MODEL 1
REMARK VINA RESULT:      -7.3      0.000      0.000
REMARK  Name = 
REMARK  12 active torsions:
REMARK  status: ('A' for Active; 'I' for Inactive)
REMARK    1  A    between atoms: O_1  and  C_2
REMARK    2  A    between atoms: C_4  and  C_6
REMARK    3  A    between atoms: C_6  and  O_7
REMARK    4  A    between atoms: O_7  and  P_8
REMARK    5  A    between atoms: P_8  and  O_9
REMARK    6  A    between atoms: P_8  and  O_10
REMARK    7  A    between atoms: C_13  and  N_18
REMARK    8  A    between atoms: C_15  and  O_17
REMARK    9  A    between atoms: C_27  and  S_28
REMARK   10  A    between atoms: S_28  and  P_29
REMARK   11  A    between atoms: P_29  and  O_30
REMARK   12  A    between atoms: P_29  and  O_31
REMARK                            x       y       z     vdW  Elec       q    Type
REMARK                         _______ _______ _______ _____ _____    ______ ____
ROOT
ATOM      1  C   UNL     1       7.440  -5.195  24.419  0.00  0.00    +0.178 C 
ATOM      2  C   UNL     1       8.629  -4.676  25.224  0.00  0.00    +0.195 C 
ATOM      3  C   UNL     1       7.995  -3.653  26.178  0.00  0.00    +0.253 C 
ATOM      4  O   UNL     1       6.570  -3.674  25.982  0.00  0.00    -0.346 OA
ATOM      5  C   UNL     1       6.233  -4.907  25.310  0.00  0.00    +0.178 C 
ENDROOT
BRANCH   3   6
ATOM      6  N   UNL     1       8.476  -2.306  25.955  0.00  0.00    -0.285 N 
ATOM      7  C   UNL     1       9.174  -1.884  24.847  0.00  0.00    +0.175 A 
ATOM      8  N   UNL     1       9.587  -2.626  23.805  0.00  0.00    -0.173 NA
ATOM      9  C   UNL     1      10.220  -1.866  22.899  0.00  0.00    +0.430 A 
ATOM     10  N   UNL     1      10.407  -0.544  22.984  0.00  0.00    -0.187 N 
ATOM     11  C   UNL     1      10.007   0.198  24.019  0.00  0.00    +0.282 A 
ATOM     12  H   UNL     1      10.902  -0.055  22.237  0.00  0.00    +0.455 HD
ATOM     13  C   UNL     1       9.336  -0.518  25.022  0.00  0.00    +0.187 A 
ATOM     14  N   UNL     1       8.783  -0.126  26.213  0.00  0.00    -0.227 NA
ATOM     15  C   UNL     1       8.285  -1.218  26.754  0.00  0.00    +0.204 A 
BRANCH  11  16
ATOM     16  S   UNL     1      10.249   1.917  24.041  0.00  0.00    +0.066 S 
BRANCH  16  17
ATOM     17  P   UNL     1       8.775   2.341  22.652  0.00  0.00    +0.396 P 
ATOM     18  O   UNL     1       7.447   1.799  23.092  0.00  0.00    -0.246 OA
BRANCH  17  19
ATOM     19  O   UNL     1       9.134   1.893  21.163  0.00  0.00    -0.316 OA
ATOM     20  H   UNL     1       8.589   2.301  20.466  0.00  0.00    +0.221 HD
ENDBRANCH  17  19
BRANCH  17  21
ATOM     21  O   UNL     1       8.662   3.931  22.499  0.00  0.00    -0.316 OA
ATOM     22  H   UNL     1       8.806   4.239  21.584  0.00  0.00    +0.221 HD
ENDBRANCH  17  21
ENDBRANCH  16  17
ENDBRANCH  11  16
ENDBRANCH   3   6
BRANCH   1  23
ATOM     23  O   UNL     1       7.365  -4.438  23.205  0.00  0.00    -0.386 OA
ATOM     24  H   UNL     1       7.818  -4.913  22.486  0.00  0.00    +0.210 HD
ENDBRANCH   1  23
BRANCH   2  25
ATOM     25  O   UNL     1       9.307  -5.681  25.984  0.00  0.00    -0.385 OA
ATOM     26  H   UNL     1       8.692  -6.377  26.272  0.00  0.00    +0.210 HD
ENDBRANCH   2  25
BRANCH   5  27
ATOM     27  C   UNL     1       5.972  -6.008  26.341  0.00  0.00    +0.206 C 
BRANCH  27  28
ATOM     28  O   UNL     1       5.362  -5.439  27.497  0.00  0.00    -0.284 OA
BRANCH  28  29
ATOM     29  P   UNL     1       5.881  -6.214  28.956  0.00  0.00    +0.472 P 
ATOM     30  O   UNL     1       6.344  -6.907  30.260  0.00  0.00    -0.228 OA
BRANCH  29  31
ATOM     31  O   UNL     1       7.334  -6.344  28.216  0.00  0.00    -0.303 OA
ATOM     32  H   UNL     1       7.985  -6.512  28.923  0.00  0.00    +0.222 HD
ENDBRANCH  29  31
BRANCH  29  33
ATOM     33  O   UNL     1       5.292  -7.590  28.296  0.00  0.00    -0.303 OA
ATOM     34  H   UNL     1       4.604  -7.967  28.877  0.00  0.00    +0.222 HD
ENDBRANCH  29  33
ENDBRANCH  28  29
ENDBRANCH  27  28
ENDBRANCH   5  27
TORSDOF 12
ENDMDL
MODEL 2
REMARK VINA RESULT:      -7.3      1.567      2.674
REMARK  Name = 
REMARK  12 active torsions:
REMARK  status: ('A' for Active; 'I' for Inactive)
REMARK    1  A    between atoms: O_1  and  C_2
REMARK    2  A    between atoms: C_4  and  C_6
REMARK    3  A    between atoms: C_6  and  O_7
REMARK    4  A    between atoms: O_7  and  P_8
REMARK    5  A    between atoms: P_8  and  O_9
REMARK    6  A    between atoms: P_8  and  O_10
REMARK    7  A    between atoms: C_13  and  N_18
REMARK    8  A    between atoms: C_15  and  O_17
REMARK    9  A    between atoms: C_27  and  S_28
REMARK   10  A    between atoms: S_28  and  P_29
REMARK   11  A    between atoms: P_29  and  O_30
REMARK   12  A    between atoms: P_29  and  O_31
REMARK                            x       y       z     vdW  Elec       q    Type
REMARK                         _______ _______ _______ _____ _____    ______ ____
ROOT
ATOM      1  C   UNL     1       4.451  -3.363  24.888  0.00  0.00    +0.178 C 
ATOM      2  C   UNL     1       5.214  -3.324  23.566  0.00  0.00    +0.195 C 
ATOM      3  C   UNL     1       6.632  -3.764  23.959  0.00  0.00    +0.253 C 
ATOM      4  O   UNL     1       6.629  -4.106  25.356  0.00  0.00    -0.346 OA
ATOM      5  C   UNL     1       5.259  -4.328  25.755  0.00  0.00    +0.178 C 
ENDROOT
BRANCH   3   6
ATOM      6  N   UNL     1       7.621  -2.731  23.735  0.00  0.00    -0.285 N 
ATOM      7  C   UNL     1       7.937  -1.726  24.620  0.00  0.00    +0.175 A 
ATOM      8  N   UNL     1       7.370  -1.475  25.812  0.00  0.00    -0.173 NA
ATOM      9  C   UNL     1       7.956  -0.425  26.407  0.00  0.00    +0.430 A 
ATOM     10  N   UNL     1       8.981   0.279  25.914  0.00  0.00    -0.187 N 
ATOM     11  C   UNL     1       9.543   0.041  24.728  0.00  0.00    +0.282 A 
ATOM     12  H   UNL     1       9.358   1.064  26.447  0.00  0.00    +0.455 HD
ATOM     13  C   UNL     1       8.989  -1.043  24.029  0.00  0.00    +0.187 A 
ATOM     14  N   UNL     1       9.284  -1.593  22.809  0.00  0.00    -0.227 NA
ATOM     15  C   UNL     1       8.443  -2.594  22.655  0.00  0.00    +0.204 A 
BRANCH  11  16
ATOM     16  S   UNL     1      10.899   0.971  24.170  0.00  0.00    +0.066 S 
BRANCH  16  17
ATOM     17  P   UNL     1       9.772   2.343  23.106  0.00  0.00    +0.396 P 
ATOM     18  O   UNL     1       8.376   2.430  23.648  0.00  0.00    -0.246 OA
BRANCH  17  19
ATOM     19  O   UNL     1       9.781   2.109  21.527  0.00  0.00    -0.316 OA
ATOM     20  H   UNL     1      10.666   2.027  21.127  0.00  0.00    +0.221 HD
ENDBRANCH  17  19
BRANCH  17  21
ATOM     21  O   UNL     1      10.468   3.779  23.231  0.00  0.00    -0.316 OA
ATOM     22  H   UNL     1      10.005   4.376  23.849  0.00  0.00    +0.221 HD
ENDBRANCH  17  21
ENDBRANCH  16  17
ENDBRANCH  11  16
ENDBRANCH   3   6
BRANCH   1  23
ATOM     23  O   UNL     1       4.469  -2.044  25.447  0.00  0.00    -0.386 OA
ATOM     24  H   UNL     1       5.348  -1.643  25.327  0.00  0.00    +0.210 HD
ENDBRANCH   1  23
BRANCH   2  25
ATOM     25  O   UNL     1       4.700  -4.208  22.565  0.00  0.00    -0.385 OA
ATOM     26  H   UNL     1       3.751  -4.370  22.695  0.00  0.00    +0.210 HD
ENDBRANCH   2  25
BRANCH   5  27
ATOM     27  C   UNL     1       4.882  -5.794  25.533  0.00  0.00    +0.206 C 
BRANCH  27  28
ATOM     28  O   UNL     1       5.661  -6.620  26.395  0.00  0.00    -0.284 OA
BRANCH  28  29
ATOM     29  P   UNL     1       5.787  -5.962  27.991  0.00  0.00    +0.472 P 
ATOM     30  O   UNL     1       5.900  -5.374  29.419  0.00  0.00    -0.228 OA
BRANCH  29  31
ATOM     31  O   UNL     1       7.404  -6.074  27.769  0.00  0.00    -0.303 OA
ATOM     32  H   UNL     1       7.531  -6.529  26.915  0.00  0.00    +0.222 HD
ENDBRANCH  29  31
BRANCH  29  33
ATOM     33  O   UNL     1       5.635  -7.504  28.512  0.00  0.00    -0.303 OA
ATOM     34  H   UNL     1       6.503  -7.950  28.484  0.00  0.00    +0.222 HD
ENDBRANCH  29  33
ENDBRANCH  28  29
ENDBRANCH  27  28
ENDBRANCH   5  27
TORSDOF 12
ENDMDL
MODEL 3
REMARK VINA RESULT:      -7.2      2.818      8.515
REMARK  Name = 
REMARK  12 active torsions:
REMARK  status: ('A' for Active; 'I' for Inactive)
REMARK    1  A    between atoms: O_1  and  C_2
REMARK    2  A    between atoms: C_4  and  C_6
REMARK    3  A    between atoms: C_6  and  O_7
REMARK    4  A    between atoms: O_7  and  P_8
REMARK    5  A    between atoms: P_8  and  O_9
REMARK    6  A    between atoms: P_8  and  O_10
REMARK    7  A    between atoms: C_13  and  N_18
REMARK    8  A    between atoms: C_15  and  O_17
REMARK    9  A    between atoms: C_27  and  S_28
REMARK   10  A    between atoms: S_28  and  P_29
REMARK   11  A    between atoms: P_29  and  O_30
REMARK   12  A    between atoms: P_29  and  O_31
REMARK                            x       y       z     vdW  Elec       q    Type
REMARK                         _______ _______ _______ _____ _____    ______ ____
ROOT
ATOM      1  C   UNL     1      10.393   2.284  23.612  0.00  0.00    +0.178 C 
ATOM      2  C   UNL     1       9.471   1.575  22.622  0.00  0.00    +0.195 C 
ATOM      3  C   UNL     1       8.099   1.629  23.310  0.00  0.00    +0.253 C 
ATOM      4  O   UNL     1       8.232   2.384  24.526  0.00  0.00    -0.346 OA
ATOM      5  C   UNL     1       9.449   3.157  24.438  0.00  0.00    +0.178 C 
ENDROOT
BRANCH   3   6
ATOM      6  N   UNL     1       7.581   0.316  23.631  0.00  0.00    -0.285 N 
ATOM      7  C   UNL     1       8.318  -0.846  23.656  0.00  0.00    +0.175 A 
ATOM      8  N   UNL     1       9.615  -1.001  23.341  0.00  0.00    -0.173 NA
ATOM      9  C   UNL     1       9.996  -2.277  23.505  0.00  0.00    +0.430 A 
ATOM     10  N   UNL     1       9.217  -3.273  23.944  0.00  0.00    -0.187 N 
ATOM     11  C   UNL     1       7.927  -3.128  24.251  0.00  0.00    +0.282 A 
ATOM     12  H   UNL     1       9.605  -4.213  24.037  0.00  0.00    +0.455 HD
ATOM     13  C   UNL     1       7.439  -1.820  24.103  0.00  0.00    +0.187 A 
ATOM     14  N   UNL     1       6.199  -1.277  24.315  0.00  0.00    -0.227 NA
ATOM     15  C   UNL     1       6.311   0.000  24.014  0.00  0.00    +0.204 A 
BRANCH  11  16
ATOM     16  S   UNL     1       6.989  -4.458  24.854  0.00  0.00    +0.066 S 
BRANCH  16  17
ATOM     17  P   UNL     1       8.411  -5.102  26.212  0.00  0.00    +0.396 P 
ATOM     18  O   UNL     1       8.983  -3.949  26.982  0.00  0.00    -0.246 OA
BRANCH  17  19
ATOM     19  O   UNL     1       9.556  -6.014  25.574  0.00  0.00    -0.316 OA
ATOM     20  H   UNL     1      10.455  -5.841  25.907  0.00  0.00    +0.221 HD
ENDBRANCH  17  19
BRANCH  17  21
ATOM     21  O   UNL     1       7.714  -6.116  27.236  0.00  0.00    -0.316 OA
ATOM     22  H   UNL     1       7.256  -6.854  26.792  0.00  0.00    +0.221 HD
ENDBRANCH  17  21
ENDBRANCH  16  17
ENDBRANCH  11  16
ENDBRANCH   3   6
BRANCH   1  23
ATOM     23  O   UNL     1      11.009   1.287  24.434  0.00  0.00    -0.386 OA
ATOM     24  H   UNL     1      11.916   1.557  24.665  0.00  0.00    +0.210 HD
ENDBRANCH   1  23
BRANCH   2  25
ATOM     25  O   UNL     1       9.389   2.205  21.341  0.00  0.00    -0.385 OA
ATOM     26  H   UNL     1       8.488   2.523  21.164  0.00  0.00    +0.210 HD
ENDBRANCH   2  25
BRANCH   5  27
ATOM     27  C   UNL     1       9.160   4.512  23.787  0.00  0.00    +0.206 C 
BRANCH  27  28
ATOM     28  O   UNL     1       7.769   4.804  23.897  0.00  0.00    -0.284 OA
BRANCH  28  29
ATOM     29  P   UNL     1       7.234   5.901  22.670  0.00  0.00    +0.472 P 
ATOM     30  O   UNL     1       6.756   6.884  21.572  0.00  0.00    -0.228 OA
BRANCH  29  31
ATOM     31  O   UNL     1       7.375   4.628  21.652  0.00  0.00    -0.303 OA
ATOM     32  H   UNL     1       7.640   3.867  22.203  0.00  0.00    +0.222 HD
ENDBRANCH  29  31
BRANCH  29  33
ATOM     33  O   UNL     1       8.806   6.332  22.534  0.00  0.00    -0.303 OA
ATOM     34  H   UNL     1       8.905   7.285  22.722  0.00  0.00    +0.222 HD
ENDBRANCH  29  33
ENDBRANCH  28  29
ENDBRANCH  27  28
ENDBRANCH   5  27
TORSDOF 12
ENDMDL
MODEL 4
REMARK VINA RESULT:      -7.1      1.501      2.330
REMARK  Name = 
REMARK  12 active torsions:
REMARK  status: ('A' for Active; 'I' for Inactive)
REMARK    1  A    between atoms: O_1  and  C_2
REMARK    2  A    between atoms: C_4  and  C_6
REMARK    3  A    between atoms: C_6  and  O_7
REMARK    4  A    between atoms: O_7  and  P_8
REMARK    5  A    between atoms: P_8  and  O_9
REMARK    6  A    between atoms: P_8  and  O_10
REMARK    7  A    between atoms: C_13  and  N_18
REMARK    8  A    between atoms: C_15  and  O_17
REMARK    9  A    between atoms: C_27  and  S_28
REMARK   10  A    between atoms: S_28  and  P_29
REMARK   11  A    between atoms: P_29  and  O_30
REMARK   12  A    between atoms: P_29  and  O_31
REMARK                            x       y       z     vdW  Elec       q    Type
REMARK                         _______ _______ _______ _____ _____    ______ ____
ROOT
ATOM      1  C   UNL     1       5.837  -5.716  25.336  0.00  0.00    +0.178 C 
ATOM      2  C   UNL     1       7.094  -5.254  26.069  0.00  0.00    +0.195 C 
ATOM      3  C   UNL     1       6.844  -3.756  26.298  0.00  0.00    +0.253 C 
ATOM      4  O   UNL     1       5.525  -3.440  25.819  0.00  0.00    -0.346 OA
ATOM      5  C   UNL     1       4.784  -4.674  25.711  0.00  0.00    +0.178 C 
ENDROOT
BRANCH   3   6
ATOM      6  N   UNL     1       7.803  -2.916  25.611  0.00  0.00    -0.285 N 
ATOM      7  C   UNL     1       7.948  -1.560  25.792  0.00  0.00    +0.175 A 
ATOM      8  N   UNL     1       7.213  -0.755  26.579  0.00  0.00    -0.173 NA
ATOM      9  C   UNL     1       7.662   0.508  26.519  0.00  0.00    +0.430 A 
ATOM     10  N   UNL     1       8.709   0.931  25.801  0.00  0.00    -0.187 N 
ATOM     11  C   UNL     1       9.437   0.139  25.012  0.00  0.00    +0.282 A 
ATOM     12  H   UNL     1       8.972   1.917  25.825  0.00  0.00    +0.455 HD
ATOM     13  C   UNL     1       9.035  -1.206  25.009  0.00  0.00    +0.187 A 
ATOM     14  N   UNL     1       9.518  -2.304  24.347  0.00  0.00    -0.227 NA
ATOM     15  C   UNL     1       8.755  -3.311  24.718  0.00  0.00    +0.204 A 
BRANCH  11  16
ATOM     16  S   UNL     1      10.808   0.750  24.141  0.00  0.00    +0.066 S 
BRANCH  16  17
ATOM     17  P   UNL     1       9.793   1.057  22.365  0.00  0.00    +0.396 P 
ATOM     18  O   UNL     1       9.840  -0.167  21.498  0.00  0.00    -0.246 OA
BRANCH  17  19
ATOM     19  O   UNL     1      10.250   2.364  21.570  0.00  0.00    -0.316 OA
ATOM     20  H   UNL     1      10.403   3.151  22.123  0.00  0.00    +0.221 HD
ENDBRANCH  17  19
BRANCH  17  21
ATOM     21  O   UNL     1       8.265   1.395  22.704  0.00  0.00    -0.316 OA
ATOM     22  H   UNL     1       8.054   2.344  22.614  0.00  0.00    +0.221 HD
ENDBRANCH  17  21
ENDBRANCH  16  17
ENDBRANCH  11  16
ENDBRANCH   3   6
BRANCH   1  23
ATOM     23  O   UNL     1       6.107  -5.680  23.930  0.00  0.00    -0.386 OA
ATOM     24  H   UNL     1       6.565  -6.494  23.656  0.00  0.00    +0.210 HD
ENDBRANCH   1  23
BRANCH   2  25
ATOM     25  O   UNL     1       7.312  -5.900  27.327  0.00  0.00    -0.385 OA
ATOM     26  H   UNL     1       8.086  -6.486  27.290  0.00  0.00    +0.210 HD
ENDBRANCH   2  25
BRANCH   5  27
ATOM     27  C   UNL     1       4.083  -4.980  27.037  0.00  0.00    +0.206 C 
BRANCH  27  28
ATOM     28  O   UNL     1       4.111  -6.385  27.275  0.00  0.00    -0.284 OA
BRANCH  28  29
ATOM     29  P   UNL     1       4.187  -6.760  28.963  0.00  0.00    +0.472 P 
ATOM     30  O   UNL     1       4.255  -7.097  30.473  0.00  0.00    -0.228 OA
BRANCH  29  31
ATOM     31  O   UNL     1       5.038  -5.371  29.100  0.00  0.00    -0.303 OA
ATOM     32  H   UNL     1       5.901  -5.537  28.677  0.00  0.00    +0.222 HD
ENDBRANCH  29  31
BRANCH  29  33
ATOM     33  O   UNL     1       5.498  -7.662  28.583  0.00  0.00    -0.303 OA
ATOM     34  H   UNL     1       6.046  -7.799  29.380  0.00  0.00    +0.222 HD
ENDBRANCH  29  33
ENDBRANCH  28  29
ENDBRANCH  27  28
ENDBRANCH   5  27
TORSDOF 12
ENDMDL
MODEL 5
REMARK VINA RESULT:      -7.1      2.792      3.461
REMARK  Name = 
REMARK  12 active torsions:
REMARK  status: ('A' for Active; 'I' for Inactive)
REMARK    1  A    between atoms: O_1  and  C_2
REMARK    2  A    between atoms: C_4  and  C_6
REMARK    3  A    between atoms: C_6  and  O_7
REMARK    4  A    between atoms: O_7  and  P_8
REMARK    5  A    between atoms: P_8  and  O_9
REMARK    6  A    between atoms: P_8  and  O_10
REMARK    7  A    between atoms: C_13  and  N_18
REMARK    8  A    between atoms: C_15  and  O_17
REMARK    9  A    between atoms: C_27  and  S_28
REMARK   10  A    between atoms: S_28  and  P_29
REMARK   11  A    between atoms: P_29  and  O_30
REMARK   12  A    between atoms: P_29  and  O_31
REMARK                            x       y       z     vdW  Elec       q    Type
REMARK                         _______ _______ _______ _____ _____    ______ ____
ROOT
ATOM      1  C   UNL     1       5.669  -4.518  21.957  0.00  0.00    +0.178 C 
ATOM      2  C   UNL     1       7.113  -4.638  22.437  0.00  0.00    +0.195 C 
ATOM      3  C   UNL     1       7.159  -3.717  23.666  0.00  0.00    +0.253 C 
ATOM      4  O   UNL     1       5.835  -3.207  23.898  0.00  0.00    -0.346 OA
ATOM      5  C   UNL     1       4.903  -4.057  23.196  0.00  0.00    +0.178 C 
ENDROOT
BRANCH   3   6
ATOM      6  N   UNL     1       8.065  -2.600  23.494  0.00  0.00    -0.285 N 
ATOM      7  C   UNL     1       8.486  -1.755  24.495  0.00  0.00    +0.175 A 
ATOM      8  N   UNL     1       8.109  -1.761  25.785  0.00  0.00    -0.173 NA
ATOM      9  C   UNL     1       8.747  -0.802  26.472  0.00  0.00    +0.430 A 
ATOM     10  N   UNL     1       9.656   0.043  25.971  0.00  0.00    -0.187 N 
ATOM     11  C   UNL     1      10.028   0.060  24.690  0.00  0.00    +0.282 A 
ATOM     12  H   UNL     1      10.087   0.740  26.580  0.00  0.00    +0.455 HD
ATOM     13  C   UNL     1       9.406  -0.912  23.892  0.00  0.00    +0.187 A 
ATOM     14  N   UNL     1       9.519  -1.212  22.560  0.00  0.00    -0.227 NA
ATOM     15  C   UNL     1       8.698  -2.219  22.348  0.00  0.00    +0.204 A 
BRANCH  11  16
ATOM     16  S   UNL     1      11.245   1.159  24.120  0.00  0.00    +0.066 S 
BRANCH  16  17
ATOM     17  P   UNL     1       9.921   2.466  23.215  0.00  0.00    +0.396 P 
ATOM     18  O   UNL     1       8.615   2.507  23.951  0.00  0.00    -0.246 OA
BRANCH  17  19
ATOM     19  O   UNL     1       9.714   2.206  21.653  0.00  0.00    -0.316 OA
ATOM     20  H   UNL     1      10.138   1.400  21.309  0.00  0.00    +0.221 HD
ENDBRANCH  17  19
BRANCH  17  21
ATOM     21  O   UNL     1      10.567   3.931  23.222  0.00  0.00    -0.316 OA
ATOM     22  H   UNL     1      11.474   3.947  23.584  0.00  0.00    +0.221 HD
ENDBRANCH  17  21
ENDBRANCH  16  17
ENDBRANCH  11  16
ENDBRANCH   3   6
BRANCH   1  23
ATOM     23  O   UNL     1       5.626  -3.516  20.934  0.00  0.00    -0.386 OA
ATOM     24  H   UNL     1       5.141  -3.850  20.159  0.00  0.00    +0.210 HD
ENDBRANCH   1  23
BRANCH   2  25
ATOM     25  O   UNL     1       7.497  -5.963  22.819  0.00  0.00    -0.385 OA
ATOM     26  H   UNL     1       6.929  -6.299  23.532  0.00  0.00    +0.210 HD
ENDBRANCH   2  25
BRANCH   5  27
ATOM     27  C   UNL     1       4.470  -5.215  24.099  0.00  0.00    +0.206 C 
BRANCH  27  28
ATOM     28  O   UNL     1       3.187  -5.682  23.689  0.00  0.00    -0.284 OA
BRANCH  28  29
ATOM     29  P   UNL     1       2.859  -7.280  24.266  0.00  0.00    +0.472 P 
ATOM     30  O   UNL     1       2.564  -8.710  24.782  0.00  0.00    -0.228 OA
BRANCH  29  31
ATOM     31  O   UNL     1       4.440  -7.572  23.970  0.00  0.00    -0.303 OA
ATOM     32  H   UNL     1       4.941  -6.931  24.510  0.00  0.00    +0.222 HD
ENDBRANCH  29  31
BRANCH  29  33
ATOM     33  O   UNL     1       2.392  -7.611  22.734  0.00  0.00    -0.303 OA
ATOM     34  H   UNL     1       1.787  -8.378  22.732  0.00  0.00    +0.222 HD
ENDBRANCH  29  33
ENDBRANCH  28  29
ENDBRANCH  27  28
ENDBRANCH   5  27
TORSDOF 12
ENDMDL
MODEL 6
REMARK VINA RESULT:      -7.1      3.248      4.508
REMARK  Name = 
REMARK  12 active torsions:
REMARK  status: ('A' for Active; 'I' for Inactive)
REMARK    1  A    between atoms: O_1  and  C_2
REMARK    2  A    between atoms: C_4  and  C_6
REMARK    3  A    between atoms: C_6  and  O_7
REMARK    4  A    between atoms: O_7  and  P_8
REMARK    5  A    between atoms: P_8  and  O_9
REMARK    6  A    between atoms: P_8  and  O_10
REMARK    7  A    between atoms: C_13  and  N_18
REMARK    8  A    between atoms: C_15  and  O_17
REMARK    9  A    between atoms: C_27  and  S_28
REMARK   10  A    between atoms: S_28  and  P_29
REMARK   11  A    between atoms: P_29  and  O_30
REMARK   12  A    between atoms: P_29  and  O_31
REMARK                            x       y       z     vdW  Elec       q    Type
REMARK                         _______ _______ _______ _____ _____    ______ ____
ROOT
ATOM      1  C   UNL     1       8.778  -3.669  24.752  0.00  0.00    +0.178 C 
ATOM      2  C   UNL     1       8.582  -2.368  25.526  0.00  0.00    +0.195 C 
ATOM      3  C   UNL     1       8.162  -1.365  24.442  0.00  0.00    +0.253 C 
ATOM      4  O   UNL     1       8.046  -2.072  23.194  0.00  0.00    -0.346 OA
ATOM      5  C   UNL     1       7.936  -3.480  23.490  0.00  0.00    +0.178 C 
ENDROOT
BRANCH   3   6
ATOM      6  N   UNL     1       9.113  -0.286  24.278  0.00  0.00    -0.285 N 
ATOM      7  C   UNL     1       8.878   0.887  23.599  0.00  0.00    +0.175 A 
ATOM      8  N   UNL     1       7.770   1.234  22.922  0.00  0.00    -0.173 NA
ATOM      9  C   UNL     1       7.893   2.466  22.406  0.00  0.00    +0.430 A 
ATOM     10  N   UNL     1       8.954   3.270  22.550  0.00  0.00    -0.187 N 
ATOM     11  C   UNL     1      10.059   2.929  23.214  0.00  0.00    +0.282 A 
ATOM     12  H   UNL     1       8.949   4.194  22.117  0.00  0.00    +0.455 HD
ATOM     13  C   UNL     1      10.021   1.648  23.787  0.00  0.00    +0.187 A 
ATOM     14  N   UNL     1      10.936   0.950  24.530  0.00  0.00    -0.227 NA
ATOM     15  C   UNL     1      10.370  -0.208  24.801  0.00  0.00    +0.204 A 
BRANCH  11  16
ATOM     16  S   UNL     1      11.380   4.040  23.395  0.00  0.00    +0.066 S 
BRANCH  16  17
ATOM     17  P   UNL     1      10.222   5.613  24.078  0.00  0.00    +0.396 P 
ATOM     18  O   UNL     1      11.071   6.667  24.726  0.00  0.00    -0.246 OA
BRANCH  17  19
ATOM     19  O   UNL     1       9.009   5.170  25.017  0.00  0.00    -0.316 OA
ATOM     20  H   UNL     1       8.386   5.882  25.250  0.00  0.00    +0.221 HD
ENDBRANCH  17  19
BRANCH  17  21
ATOM     21  O   UNL     1       9.454   6.259  22.831  0.00  0.00    -0.316 OA
ATOM     22  H   UNL     1       9.553   5.740  22.010  0.00  0.00    +0.221 HD
ENDBRANCH  17  21
ENDBRANCH  16  17
ENDBRANCH  11  16
ENDBRANCH   3   6
BRANCH   1  23
ATOM     23  O   UNL     1      10.168  -3.780  24.421  0.00  0.00    -0.386 OA
ATOM     24  H   UNL     1      10.692  -3.933  25.227  0.00  0.00    +0.210 HD
ENDBRANCH   1  23
BRANCH   2  25
ATOM     25  O   UNL     1       7.569  -2.433  26.535  0.00  0.00    -0.385 OA
ATOM     26  H   UNL     1       7.462  -3.340  26.866  0.00  0.00    +0.210 HD
ENDBRANCH   2  25
BRANCH   5  27
ATOM     27  C   UNL     1       6.467  -3.860  23.688  0.00  0.00    +0.206 C 
BRANCH  27  28
ATOM     28  O   UNL     1       6.278  -5.227  23.328  0.00  0.00    -0.284 OA
BRANCH  28  29
ATOM     29  P   UNL     1       6.119  -5.435  21.617  0.00  0.00    +0.472 P 
ATOM     30  O   UNL     1       5.976  -5.622  20.087  0.00  0.00    -0.228 OA
BRANCH  29  31
ATOM     31  O   UNL     1       5.334  -4.000  21.647  0.00  0.00    -0.303 OA
ATOM     32  H   UNL     1       5.175  -3.796  22.588  0.00  0.00    +0.222 HD
ENDBRANCH  29  31
BRANCH  29  33
ATOM     33  O   UNL     1       4.780  -6.306  21.966  0.00  0.00    -0.303 OA
ATOM     34  H   UNL     1       4.864  -6.699  22.856  0.00  0.00    +0.222 HD
ENDBRANCH  29  33
ENDBRANCH  28  29
ENDBRANCH  27  28
ENDBRANCH   5  27
TORSDOF 12
ENDMDL
MODEL 7
REMARK VINA RESULT:      -7.0      2.702      8.090
REMARK  Name = 
REMARK  12 active torsions:
REMARK  status: ('A' for Active; 'I' for Inactive)
REMARK    1  A    between atoms: O_1  and  C_2
REMARK    2  A    between atoms: C_4  and  C_6
REMARK    3  A    between atoms: C_6  and  O_7
REMARK    4  A    between atoms: O_7  and  P_8
REMARK    5  A    between atoms: P_8  and  O_9
REMARK    6  A    between atoms: P_8  and  O_10
REMARK    7  A    between atoms: C_13  and  N_18
REMARK    8  A    between atoms: C_15  and  O_17
REMARK    9  A    between atoms: C_27  and  S_28
REMARK   10  A    between atoms: S_28  and  P_29
REMARK   11  A    between atoms: P_29  and  O_30
REMARK   12  A    between atoms: P_29  and  O_31
REMARK                            x       y       z     vdW  Elec       q    Type
REMARK                         _______ _______ _______ _____ _____    ______ ____
ROOT
ATOM      1  C   UNL     1       9.934  -0.330  23.562  0.00  0.00    +0.178 C 
ATOM      2  C   UNL     1       9.804  -1.668  22.838  0.00  0.00    +0.195 C 
ATOM      3  C   UNL     1       8.305  -1.754  22.513  0.00  0.00    +0.253 C 
ATOM      4  O   UNL     1       7.680  -0.531  22.936  0.00  0.00    -0.346 OA
ATOM      5  C   UNL     1       8.714   0.464  23.096  0.00  0.00    +0.178 C 
ENDROOT
BRANCH   3   6
ATOM      6  N   UNL     1       7.652  -2.864  23.175  0.00  0.00    -0.285 N 
ATOM      7  C   UNL     1       7.260  -2.886  24.493  0.00  0.00    +0.175 A 
ATOM      8  N   UNL     1       7.449  -1.931  25.421  0.00  0.00    -0.173 NA
ATOM      9  C   UNL     1       6.910  -2.293  26.594  0.00  0.00    +0.430 A 
ATOM     10  N   UNL     1       6.248  -3.433  26.830  0.00  0.00    -0.187 N 
ATOM     11  C   UNL     1       6.064  -4.388  25.917  0.00  0.00    +0.282 A 
ATOM     12  H   UNL     1       5.873  -3.615  27.762  0.00  0.00    +0.455 HD
ATOM     13  C   UNL     1       6.602  -4.095  24.654  0.00  0.00    +0.187 A 
ATOM     14  N   UNL     1       6.619  -4.802  23.480  0.00  0.00    -0.227 NA
ATOM     15  C   UNL     1       7.263  -4.046  22.616  0.00  0.00    +0.204 A 
BRANCH  11  16
ATOM     16  S   UNL     1       5.159  -5.823  26.284  0.00  0.00    +0.066 S 
BRANCH  16  17
ATOM     17  P   UNL     1       6.063  -6.163  28.114  0.00  0.00    +0.396 P 
ATOM     18  O   UNL     1       5.737  -7.533  28.630  0.00  0.00    -0.246 OA
BRANCH  17  19
ATOM     19  O   UNL     1       5.772  -5.034  29.205  0.00  0.00    -0.316 OA
ATOM     20  H   UNL     1       6.282  -5.117  30.031  0.00  0.00    +0.221 HD
ENDBRANCH  17  19
BRANCH  17  21
ATOM     21  O   UNL     1       7.649  -6.041  27.929  0.00  0.00    -0.316 OA
ATOM     22  H   UNL     1       8.150  -6.612  28.542  0.00  0.00    +0.221 HD
ENDBRANCH  17  21
ENDBRANCH  16  17
ENDBRANCH  11  16
ENDBRANCH   3   6
BRANCH   1  23
ATOM     23  O   UNL     1       9.867  -0.581  24.970  0.00  0.00    -0.386 OA
ATOM     24  H   UNL     1       9.158  -1.221  25.162  0.00  0.00    +0.210 HD
ENDBRANCH   1  23
BRANCH   2  25
ATOM     25  O   UNL     1      10.561  -1.756  21.627  0.00  0.00    -0.385 OA
ATOM     26  H   UNL     1      10.262  -2.502  21.081  0.00  0.00    +0.210 HD
ENDBRANCH   2  25
BRANCH   5  27
ATOM     27  C   UNL     1       8.944   1.197  21.772  0.00  0.00    +0.206 C 
BRANCH  27  28
ATOM     28  O   UNL     1       8.367   2.499  21.845  0.00  0.00    -0.284 OA
BRANCH  28  29
ATOM     29  P   UNL     1       8.717   3.284  23.347  0.00  0.00    +0.472 P 
ATOM     30  O   UNL     1       9.030   3.986  24.692  0.00  0.00    -0.228 OA
BRANCH  29  31
ATOM     31  O   UNL     1       8.241   4.655  22.593  0.00  0.00    -0.303 OA
ATOM     32  H   UNL     1       7.290   4.545  22.403  0.00  0.00    +0.222 HD
ENDBRANCH  29  31
BRANCH  29  33
ATOM     33  O   UNL     1      10.256   3.381  22.804  0.00  0.00    -0.303 OA
ATOM     34  H   UNL     1      10.690   4.170  23.181  0.00  0.00    +0.222 HD
ENDBRANCH  29  33
ENDBRANCH  28  29
ENDBRANCH  27  28
ENDBRANCH   5  27
TORSDOF 12
ENDMDL
MODEL 8
REMARK VINA RESULT:      -7.0      3.882      7.868
REMARK  Name = 
REMARK  12 active torsions:
REMARK  status: ('A' for Active; 'I' for Inactive)
REMARK    1  A    between atoms: O_1  and  C_2
REMARK    2  A    between atoms: C_4  and  C_6
REMARK    3  A    between atoms: C_6  and  O_7
REMARK    4  A    between atoms: O_7  and  P_8
REMARK    5  A    between atoms: P_8  and  O_9
REMARK    6  A    between atoms: P_8  and  O_10
REMARK    7  A    between atoms: C_13  and  N_18
REMARK    8  A    between atoms: C_15  and  O_17
REMARK    9  A    between atoms: C_27  and  S_28
REMARK   10  A    between atoms: S_28  and  P_29
REMARK   11  A    between atoms: P_29  and  O_30
REMARK   12  A    between atoms: P_29  and  O_31
REMARK                            x       y       z     vdW  Elec       q    Type
REMARK                         _______ _______ _______ _____ _____    ______ ____
ROOT
ATOM      1  C   UNL     1       9.812  -0.359  22.239  0.00  0.00    +0.178 C 
ATOM      2  C   UNL     1       8.351  -0.524  22.650  0.00  0.00    +0.195 C 
ATOM      3  C   UNL     1       8.442  -1.123  24.061  0.00  0.00    +0.253 C 
ATOM      4  O   UNL     1       9.830  -1.195  24.433  0.00  0.00    -0.346 OA
ATOM      5  C   UNL     1      10.568  -0.308  23.566  0.00  0.00    +0.178 C 
ENDROOT
BRANCH   3   6
ATOM      6  N   UNL     1       7.868  -2.450  24.144  0.00  0.00    -0.285 N 
ATOM      7  C   UNL     1       6.860  -2.830  24.999  0.00  0.00    +0.175 A 
ATOM      8  N   UNL     1       6.260  -2.083  25.942  0.00  0.00    -0.173 NA
ATOM      9  C   UNL     1       5.303  -2.784  26.568  0.00  0.00    +0.430 A 
ATOM     10  N   UNL     1       4.957  -4.047  26.294  0.00  0.00    -0.187 N 
ATOM     11  C   UNL     1       5.553  -4.797  25.366  0.00  0.00    +0.282 A 
ATOM     12  H   UNL     1       4.210  -4.493  26.829  0.00  0.00    +0.455 HD
ATOM     13  C   UNL     1       6.575  -4.143  24.660  0.00  0.00    +0.187 A 
ATOM     14  N   UNL     1       7.404  -4.561  23.653  0.00  0.00    -0.227 NA
ATOM     15  C   UNL     1       8.174  -3.531  23.371  0.00  0.00    +0.204 A 
BRANCH  11  16
ATOM     16  S   UNL     1       5.022  -6.417  25.038  0.00  0.00    +0.066 S 
BRANCH  16  17
ATOM     17  P   UNL     1       3.916  -5.926  23.360  0.00  0.00    +0.396 P 
ATOM     18  O   UNL     1       3.301  -4.564  23.498  0.00  0.00    -0.246 OA
BRANCH  17  19
ATOM     19  O   UNL     1       2.834  -7.025  22.947  0.00  0.00    -0.316 OA
ATOM     20  H   UNL     1       2.543  -6.989  22.018  0.00  0.00    +0.221 HD
ENDBRANCH  17  19
BRANCH  17  21
ATOM     21  O   UNL     1       4.890  -5.929  22.090  0.00  0.00    -0.316 OA
ATOM     22  H   UNL     1       5.545  -6.652  22.112  0.00  0.00    +0.221 HD
ENDBRANCH  17  21
ENDBRANCH  16  17
ENDBRANCH  11  16
ENDBRANCH   3   6
BRANCH   1  23
ATOM     23  O   UNL     1      10.192  -1.517  21.485  0.00  0.00    -0.386 OA
ATOM     24  H   UNL     1      10.326  -2.275  22.082  0.00  0.00    +0.210 HD
ENDBRANCH   1  23
BRANCH   2  25
ATOM     25  O   UNL     1       7.613   0.701  22.698  0.00  0.00    -0.385 OA
ATOM     26  H   UNL     1       8.051   1.351  23.272  0.00  0.00    +0.210 HD
ENDBRANCH   2  25
BRANCH   5  27
ATOM     27  C   UNL     1      10.617   1.096  24.175  0.00  0.00    +0.206 C 
BRANCH  27  28
ATOM     28  O   UNL     1      10.440   2.065  23.144  0.00  0.00    -0.284 OA
BRANCH  28  29
ATOM     29  P   UNL     1       9.711   3.520  23.735  0.00  0.00    +0.472 P 
ATOM     30  O   UNL     1       9.059   4.821  24.263  0.00  0.00    -0.228 OA
BRANCH  29  31
ATOM     31  O   UNL     1       8.826   2.533  24.693  0.00  0.00    -0.303 OA
ATOM     32  H   UNL     1       8.269   2.000  24.095  0.00  0.00    +0.222 HD
ENDBRANCH  29  31
BRANCH  29  33
ATOM     33  O   UNL     1       8.693   3.387  22.462  0.00  0.00    -0.303 OA
ATOM     34  H   UNL     1       7.917   3.964  22.598  0.00  0.00    +0.222 HD
ENDBRANCH  29  33
ENDBRANCH  28  29
ENDBRANCH  27  28
ENDBRANCH   5  27
TORSDOF 12
ENDMDL
MODEL 9
REMARK VINA RESULT:      -7.0      2.415      2.801
REMARK  Name = 
REMARK  12 active torsions:
REMARK  status: ('A' for Active; 'I' for Inactive)
REMARK    1  A    between atoms: O_1  and  C_2
REMARK    2  A    between atoms: C_4  and  C_6
REMARK    3  A    between atoms: C_6  and  O_7
REMARK    4  A    between atoms: O_7  and  P_8
REMARK    5  A    between atoms: P_8  and  O_9
REMARK    6  A    between atoms: P_8  and  O_10
REMARK    7  A    between atoms: C_13  and  N_18
REMARK    8  A    between atoms: C_15  and  O_17
REMARK    9  A    between atoms: C_27  and  S_28
REMARK   10  A    between atoms: S_28  and  P_29
REMARK   11  A    between atoms: P_29  and  O_30
REMARK   12  A    between atoms: P_29  and  O_31
REMARK                            x       y       z     vdW  Elec       q    Type
REMARK                         _______ _______ _______ _____ _____    ______ ____
ROOT
ATOM      1  C   UNL     1       6.506  -5.428  23.268  0.00  0.00    +0.178 C 
ATOM      2  C   UNL     1       6.898  -4.983  24.675  0.00  0.00    +0.195 C 
ATOM      3  C   UNL     1       6.359  -3.547  24.759  0.00  0.00    +0.253 C 
ATOM      4  O   UNL     1       5.650  -3.259  23.541  0.00  0.00    -0.346 OA
ATOM      5  C   UNL     1       5.337  -4.515  22.902  0.00  0.00    +0.178 C 
ENDROOT
BRANCH   3   6
ATOM      6  N   UNL     1       7.409  -2.564  24.930  0.00  0.00    -0.285 N 
ATOM      7  C   UNL     1       8.202  -2.064  23.925  0.00  0.00    +0.175 A 
ATOM      8  N   UNL     1       8.202  -2.415  22.628  0.00  0.00    -0.173 NA
ATOM      9  C   UNL     1       9.099  -1.695  21.938  0.00  0.00    +0.430 A 
ATOM     10  N   UNL     1       9.883  -0.735  22.443  0.00  0.00    -0.187 N 
ATOM     11  C   UNL     1       9.894  -0.386  23.731  0.00  0.00    +0.282 A 
ATOM     12  H   UNL     1      10.535  -0.242  21.832  0.00  0.00    +0.455 HD
ATOM     13  C   UNL     1       8.985  -1.095  24.532  0.00  0.00    +0.187 A 
ATOM     14  N   UNL     1       8.701  -1.029  25.871  0.00  0.00    -0.227 NA
ATOM     15  C   UNL     1       7.762  -1.927  26.083  0.00  0.00    +0.204 A 
BRANCH  11  16
ATOM     16  S   UNL     1      10.910   0.898  24.307  0.00  0.00    +0.066 S 
BRANCH  16  17
ATOM     17  P   UNL     1      10.065   2.366  23.119  0.00  0.00    +0.396 P 
ATOM     18  O   UNL     1       8.723   2.781  23.645  0.00  0.00    -0.246 OA
BRANCH  17  19
ATOM     19  O   UNL     1      10.003   1.993  21.568  0.00  0.00    -0.316 OA
ATOM     20  H   UNL     1       9.163   2.208  21.125  0.00  0.00    +0.221 HD
ENDBRANCH  17  19
BRANCH  17  21
ATOM     21  O   UNL     1      11.037   3.638  23.114  0.00  0.00    -0.316 OA
ATOM     22  H   UNL     1      11.963   3.413  23.327  0.00  0.00    +0.221 HD
ENDBRANCH  17  21
ENDBRANCH  16  17
ENDBRANCH  11  16
ENDBRANCH   3   6
BRANCH   1  23
ATOM     23  O   UNL     1       7.623  -5.192  22.403  0.00  0.00    -0.386 OA
ATOM     24  H   UNL     1       7.459  -5.592  21.530  0.00  0.00    +0.210 HD
ENDBRANCH   1  23
BRANCH   2  25
ATOM     25  O   UNL     1       6.322  -5.771  25.722  0.00  0.00    -0.385 OA
ATOM     26  H   UNL     1       5.443  -5.439  25.966  0.00  0.00    +0.210 HD
ENDBRANCH   2  25
BRANCH   5  27
ATOM     27  C   UNL     1       3.988  -5.035  23.406  0.00  0.00    +0.206 C 
BRANCH  27  28
ATOM     28  O   UNL     1       4.066  -6.445  23.597  0.00  0.00    -0.284 OA
BRANCH  28  29
ATOM     29  P   UNL     1       2.856  -7.022  24.692  0.00  0.00    +0.472 P 
ATOM     30  O   UNL     1       1.774  -7.539  25.671  0.00  0.00    -0.228 OA
BRANCH  29  31
ATOM     31  O   UNL     1       4.098  -7.735  25.484  0.00  0.00    -0.303 OA
ATOM     32  H   UNL     1       3.756  -7.977  26.365  0.00  0.00    +0.222 HD
ENDBRANCH  29  31
BRANCH  29  33
ATOM     33  O   UNL     1       2.663  -8.261  23.642  0.00  0.00    -0.303 OA
ATOM     34  H   UNL     1       1.780  -8.210  23.230  0.00  0.00    +0.222 HD
ENDBRANCH  29  33
ENDBRANCH  28  29
ENDBRANCH  27  28
ENDBRANCH   5  27
TORSDOF 12
ENDMDL
