MODEL 1
REMARK VINA RESULT:      -7.4      0.000      0.000
REMARK  Name = 
REMARK  8 active torsions:
REMARK  status: ('A' for Active; 'I' for Inactive)
REMARK    1  A    between atoms: N_8  and  C_9
REMARK    2  A    between atoms: C_12  and  C_14
REMARK    3  A    between atoms: C_14  and  O_15
REMARK    4  A    between atoms: C_16  and  O_18
REMARK    5  A    between atoms: C_19  and  O_21
REMARK    6  A    between atoms: O_21  and  P_22
REMARK    7  A    between atoms: P_22  and  O_23
REMARK    8  A    between atoms: P_22  and  O_24
REMARK                            x       y       z     vdW  Elec       q    Type
REMARK                         _______ _______ _______ _____ _____    ______ ____
ROOT
ATOM      1  C   UNL     1       7.578  -3.269  23.536  0.00  0.00    +0.254 C 
ATOM      2  C   UNL     1       8.142  -4.690  23.335  0.00  0.00    +0.211 C 
ATOM      3  C   UNL     1       8.505  -5.147  24.755  0.00  0.00    +0.179 C 
ATOM      4  C   UNL     1       8.147  -3.965  25.654  0.00  0.00    +0.177 C 
ATOM      5  O   UNL     1       7.183  -3.190  24.928  0.00  0.00    -0.346 OA
ENDROOT
BRANCH   1  17
ATOM      6  N   UNL     1       5.758   1.607  22.778  0.00  0.00    -0.329 N 
ATOM      7  H   UNL     1       5.629   2.332  22.086  0.00  0.00    +0.145 HD
ATOM      8  H   UNL     1       4.945   1.003  22.875  0.00  0.00    +0.145 HD
ATOM      9  C   UNL     1       6.927   0.923  22.760  0.00  0.00    +0.195 A 
ATOM     10  N   UNL     1       8.042   1.636  22.360  0.00  0.00    -0.293 N 
ATOM     11  H   UNL     1       7.964   2.613  22.134  0.00  0.00    +0.172 HD
ATOM     12  C   UNL     1       9.332   1.128  22.319  0.00  0.00    +0.280 A 
ATOM     13  O   UNL     1      10.293   1.816  21.990  0.00  0.00    -0.265 OA
ATOM     14  C   UNL     1       9.375  -0.266  22.698  0.00  0.00    +0.172 A 
ATOM     15  N   UNL     1      10.432  -1.134  22.792  0.00  0.00    -0.229 NA
ATOM     16  C   UNL     1       9.883  -2.271  23.164  0.00  0.00    +0.203 A 
ATOM     17  N   UNL     1       8.515  -2.191  23.249  0.00  0.00    -0.285 N 
ATOM     18  C   UNL     1       8.189  -0.881  23.034  0.00  0.00    +0.171 A 
ATOM     19  N   UNL     1       6.953  -0.339  23.105  0.00  0.00    -0.196 NA
ENDBRANCH   1  17
BRANCH   3  20
ATOM     20  O   UNL     1       9.894  -5.451  24.866  0.00  0.00    -0.386 OA
ATOM     21  H   UNL     1      10.075  -6.147  24.205  0.00  0.00    +0.210 HD
ENDBRANCH   3  20
BRANCH   2  22
ATOM     22  O   UNL     1       7.146  -5.618  22.860  0.00  0.00    -0.276 OA
BRANCH  22  23
ATOM     23  P   UNL     1       5.507  -5.076  22.757  0.00  0.00    +0.473 P 
ATOM     24  O   UNL     1       4.040  -4.590  22.663  0.00  0.00    -0.228 OA
BRANCH  23  25
ATOM     25  O   UNL     1       5.140  -6.663  22.924  0.00  0.00    -0.303 OA
ATOM     26  H   UNL     1       5.526  -7.201  22.211  0.00  0.00    +0.222 HD
ENDBRANCH  23  25
BRANCH  23  27
ATOM     27  O   UNL     1       5.709  -5.179  21.136  0.00  0.00    -0.303 OA
ATOM     28  H   UNL     1       5.985  -6.099  20.966  0.00  0.00    +0.222 HD
ENDBRANCH  23  27
ENDBRANCH  22  23
ENDBRANCH   2  22
BRANCH   4  29
ATOM     29  C   UNL     1       7.610  -4.371  27.022  0.00  0.00    +0.190 C 
BRANCH  29  30
ATOM     30  O   UNL     1       8.016  -5.696  27.348  0.00  0.00    -0.392 OA
ATOM     31  H   UNL     1       8.992  -5.710  27.355  0.00  0.00    +0.210 HD
ENDBRANCH  29  30
ENDBRANCH   4  29
TORSDOF 8
ENDMDL
MODEL 2
REMARK VINA RESULT:      -7.0      2.311      4.011
REMARK  Name = 
REMARK  8 active torsions:
REMARK  status: ('A' for Active; 'I' for Inactive)
REMARK    1  A    between atoms: N_8  and  C_9
REMARK    2  A    between atoms: C_12  and  C_14
REMARK    3  A    between atoms: C_14  and  O_15
REMARK    4  A    between atoms: C_16  and  O_18
REMARK    5  A    between atoms: C_19  and  O_21
REMARK    6  A    between atoms: O_21  and  P_22
REMARK    7  A    between atoms: P_22  and  O_23
REMARK    8  A    between atoms: P_22  and  O_24
REMARK                            x       y       z     vdW  Elec       q    Type
REMARK                         _______ _______ _______ _____ _____    ______ ____
ROOT
ATOM      1  C   UNL     1       8.293  -3.889  23.701  0.00  0.00    +0.254 C 
ATOM      2  C   UNL     1       7.052  -4.117  24.587  0.00  0.00    +0.211 C 
ATOM      3  C   UNL     1       5.961  -4.535  23.592  0.00  0.00    +0.179 C 
ATOM      4  C   UNL     1       6.638  -4.497  22.224  0.00  0.00    +0.177 C 
ATOM      5  O   UNL     1       8.046  -4.615  22.472  0.00  0.00    -0.346 OA
ENDROOT
BRANCH   1  17
ATOM      6  N   UNL     1       9.092  -0.438  27.590  0.00  0.00    -0.329 N 
ATOM      7  H   UNL     1       8.701   0.365  28.063  0.00  0.00    +0.145 HD
ATOM      8  H   UNL     1       8.835  -1.320  28.028  0.00  0.00    +0.145 HD
ATOM      9  C   UNL     1       9.007  -0.475  26.238  0.00  0.00    +0.195 A 
ATOM     10  N   UNL     1       9.072   0.746  25.593  0.00  0.00    -0.293 N 
ATOM     11  H   UNL     1       9.208   1.591  26.121  0.00  0.00    +0.172 HD
ATOM     12  C   UNL     1       9.048   0.913  24.216  0.00  0.00    +0.280 A 
ATOM     13  O   UNL     1       9.145   2.019  23.692  0.00  0.00    -0.265 OA
ATOM     14  C   UNL     1       8.895  -0.345  23.522  0.00  0.00    +0.172 A 
ATOM     15  N   UNL     1       8.829  -0.623  22.182  0.00  0.00    -0.229 NA
ATOM     16  C   UNL     1       8.671  -1.929  22.130  0.00  0.00    +0.203 A 
ATOM     17  N   UNL     1       8.567  -2.495  23.377  0.00  0.00    -0.285 N 
ATOM     18  C   UNL     1       8.796  -1.492  24.278  0.00  0.00    +0.171 A 
ATOM     19  N   UNL     1       8.868  -1.621  25.621  0.00  0.00    -0.196 NA
ENDBRANCH   1  17
BRANCH   3  20
ATOM     20  O   UNL     1       4.855  -3.635  23.622  0.00  0.00    -0.386 OA
ATOM     21  H   UNL     1       4.852  -3.235  24.514  0.00  0.00    +0.210 HD
ENDBRANCH   3  20
BRANCH   2  22
ATOM     22  O   UNL     1       7.216  -5.229  25.489  0.00  0.00    -0.276 OA
BRANCH  22  23
ATOM     23  P   UNL     1       6.661  -5.050  27.117  0.00  0.00    +0.473 P 
ATOM     24  O   UNL     1       6.165  -4.891  28.576  0.00  0.00    -0.228 OA
BRANCH  23  25
ATOM     25  O   UNL     1       7.584  -3.698  27.114  0.00  0.00    -0.303 OA
ATOM     26  H   UNL     1       8.387  -3.805  27.653  0.00  0.00    +0.222 HD
ENDBRANCH  23  25
BRANCH  23  27
ATOM     27  O   UNL     1       7.907  -6.033  27.516  0.00  0.00    -0.303 OA
ATOM     28  H   UNL     1       7.775  -6.253  28.457  0.00  0.00    +0.222 HD
ENDBRANCH  23  27
ENDBRANCH  22  23
ENDBRANCH   2  22
BRANCH   4  29
ATOM     29  C   UNL     1       6.155  -5.581  21.266  0.00  0.00    +0.190 C 
BRANCH  29  30
ATOM     30  O   UNL     1       4.994  -6.225  21.781  0.00  0.00    -0.392 OA
ATOM     31  H   UNL     1       5.083  -7.179  21.599  0.00  0.00    +0.210 HD
ENDBRANCH  29  30
ENDBRANCH   4  29
TORSDOF 8
ENDMDL
MODEL 3
REMARK VINA RESULT:      -7.0      2.031      2.647
REMARK  Name = 
REMARK  8 active torsions:
REMARK  status: ('A' for Active; 'I' for Inactive)
REMARK    1  A    between atoms: N_8  and  C_9
REMARK    2  A    between atoms: C_12  and  C_14
REMARK    3  A    between atoms: C_14  and  O_15
REMARK    4  A    between atoms: C_16  and  O_18
REMARK    5  A    between atoms: C_19  and  O_21
REMARK    6  A    between atoms: O_21  and  P_22
REMARK    7  A    between atoms: P_22  and  O_23
REMARK    8  A    between atoms: P_22  and  O_24
REMARK                            x       y       z     vdW  Elec       q    Type
REMARK                         _______ _______ _______ _____ _____    ______ ____
ROOT
ATOM      1  C   UNL     1       6.654  -3.244  25.303  0.00  0.00    +0.254 C 
ATOM      2  C   UNL     1       7.245  -4.620  24.933  0.00  0.00    +0.211 C 
ATOM      3  C   UNL     1       7.222  -5.398  26.256  0.00  0.00    +0.179 C 
ATOM      4  C   UNL     1       6.648  -4.421  27.280  0.00  0.00    +0.177 C 
ATOM      5  O   UNL     1       5.910  -3.446  26.530  0.00  0.00    -0.346 OA
ENDROOT
BRANCH   1  17
ATOM      6  N   UNL     1       9.489  -1.491  21.235  0.00  0.00    -0.329 N 
ATOM      7  H   UNL     1      10.419  -1.463  20.838  0.00  0.00    +0.145 HD
ATOM      8  H   UNL     1       8.935  -2.272  20.891  0.00  0.00    +0.145 HD
ATOM      9  C   UNL     1       9.371  -1.306  22.572  0.00  0.00    +0.195 A 
ATOM     10  N   UNL     1      10.292  -0.453  23.150  0.00  0.00    -0.293 N 
ATOM     11  H   UNL     1      10.976   0.015  22.581  0.00  0.00    +0.172 HD
ATOM     12  C   UNL     1      10.308  -0.101  24.492  0.00  0.00    +0.280 A 
ATOM     13  O   UNL     1      11.128   0.690  24.948  0.00  0.00    -0.265 OA
ATOM     14  C   UNL     1       9.271  -0.775  25.239  0.00  0.00    +0.172 A 
ATOM     15  N   UNL     1       8.942  -0.710  26.568  0.00  0.00    -0.229 NA
ATOM     16  C   UNL     1       7.931  -1.544  26.692  0.00  0.00    +0.203 A 
ATOM     17  N   UNL     1       7.638  -2.191  25.516  0.00  0.00    -0.285 N 
ATOM     18  C   UNL     1       8.441  -1.638  24.558  0.00  0.00    +0.171 A 
ATOM     19  N   UNL     1       8.428  -1.923  23.237  0.00  0.00    -0.196 NA
ENDBRANCH   1  17
BRANCH   3  20
ATOM     20  O   UNL     1       8.532  -5.807  26.643  0.00  0.00    -0.386 OA
ATOM     21  H   UNL     1       8.416  -6.580  27.228  0.00  0.00    +0.210 HD
ENDBRANCH   3  20
BRANCH   2  22
ATOM     22  O   UNL     1       6.403  -5.355  24.024  0.00  0.00    -0.276 OA
BRANCH  22  23
ATOM     23  P   UNL     1       5.899  -4.577  22.564  0.00  0.00    +0.473 P 
ATOM     24  O   UNL     1       5.448  -3.879  21.257  0.00  0.00    -0.228 OA
BRANCH  23  25
ATOM     25  O   UNL     1       5.633  -6.102  22.031  0.00  0.00    -0.303 OA
ATOM     26  H   UNL     1       4.874  -6.515  22.477  0.00  0.00    +0.222 HD
ENDBRANCH  23  25
BRANCH  23  27
ATOM     27  O   UNL     1       7.484  -4.592  22.158  0.00  0.00    -0.303 OA
ATOM     28  H   UNL     1       7.861  -3.782  22.549  0.00  0.00    +0.222 HD
ENDBRANCH  23  27
ENDBRANCH  22  23
ENDBRANCH   2  22
BRANCH   4  29
ATOM     29  C   UNL     1       5.770  -5.081  28.338  0.00  0.00    +0.190 C 
BRANCH  29  30
ATOM     30  O   UNL     1       6.532  -5.990  29.126  0.00  0.00    -0.392 OA
ATOM     31  H   UNL     1       6.083  -6.080  29.987  0.00  0.00    +0.210 HD
ENDBRANCH  29  30
ENDBRANCH   4  29
TORSDOF 8
ENDMDL
MODEL 4
REMARK VINA RESULT:      -6.5      2.219      4.273
REMARK  Name = 
REMARK  8 active torsions:
REMARK  status: ('A' for Active; 'I' for Inactive)
REMARK    1  A    between atoms: N_8  and  C_9
REMARK    2  A    between atoms: C_12  and  C_14
REMARK    3  A    between atoms: C_14  and  O_15
REMARK    4  A    between atoms: C_16  and  O_18
REMARK    5  A    between atoms: C_19  and  O_21
REMARK    6  A    between atoms: O_21  and  P_22
REMARK    7  A    between atoms: P_22  and  O_23
REMARK    8  A    between atoms: P_22  and  O_24
REMARK                            x       y       z     vdW  Elec       q    Type
REMARK                         _______ _______ _______ _____ _____    ______ ____
ROOT
ATOM      1  C   UNL     1       7.003  -3.875  24.574  0.00  0.00    +0.254 C 
ATOM      2  C   UNL     1       5.859  -4.774  25.086  0.00  0.00    +0.211 C 
ATOM      3  C   UNL     1       5.357  -5.484  23.821  0.00  0.00    +0.179 C 
ATOM      4  C   UNL     1       6.222  -4.936  22.689  0.00  0.00    +0.177 C 
ATOM      5  O   UNL     1       7.418  -4.438  23.306  0.00  0.00    -0.346 OA
ENDROOT
BRANCH   1  17
ATOM      6  N   UNL     1       9.864  -0.904  21.309  0.00  0.00    -0.329 N 
ATOM      7  H   UNL     1      10.510  -0.129  21.265  0.00  0.00    +0.145 HD
ATOM      8  H   UNL     1      10.331  -1.806  21.370  0.00  0.00    +0.145 HD
ATOM      9  C   UNL     1       8.809  -0.797  22.153  0.00  0.00    +0.195 A 
ATOM     10  N   UNL     1       8.299   0.476  22.326  0.00  0.00    -0.293 N 
ATOM     11  H   UNL     1       8.688   1.251  21.817  0.00  0.00    +0.172 HD
ATOM     12  C   UNL     1       7.197   0.786  23.111  0.00  0.00    +0.280 A 
ATOM     13  O   UNL     1       6.763   1.929  23.203  0.00  0.00    -0.265 OA
ATOM     14  C   UNL     1       6.665  -0.382  23.777  0.00  0.00    +0.172 A 
ATOM     15  N   UNL     1       5.599  -0.515  24.627  0.00  0.00    -0.229 NA
ATOM     16  C   UNL     1       5.590  -1.795  24.935  0.00  0.00    +0.203 A 
ATOM     17  N   UNL     1       6.642  -2.477  24.375  0.00  0.00    -0.285 N 
ATOM     18  C   UNL     1       7.289  -1.590  23.559  0.00  0.00    +0.171 A 
ATOM     19  N   UNL     1       8.337  -1.860  22.750  0.00  0.00    -0.196 NA
ENDBRANCH   1  17
BRANCH   3  20
ATOM     20  O   UNL     1       3.982  -5.201  23.575  0.00  0.00    -0.386 OA
ATOM     21  H   UNL     1       3.825  -4.295  23.904  0.00  0.00    +0.210 HD
ENDBRANCH   3  20
BRANCH   2  22
ATOM     22  O   UNL     1       6.326  -5.813  25.968  0.00  0.00    -0.276 OA
BRANCH  22  23
ATOM     23  P   UNL     1       6.214  -5.549  27.674  0.00  0.00    +0.473 P 
ATOM     24  O   UNL     1       6.112  -5.313  29.201  0.00  0.00    -0.228 OA
BRANCH  23  25
ATOM     25  O   UNL     1       7.788  -5.998  27.685  0.00  0.00    -0.303 OA
ATOM     26  H   UNL     1       8.375  -5.255  27.908  0.00  0.00    +0.222 HD
ENDBRANCH  23  25
BRANCH  23  27
ATOM     27  O   UNL     1       5.660  -7.087  27.747  0.00  0.00    -0.303 OA
ATOM     28  H   UNL     1       5.259  -7.261  26.875  0.00  0.00    +0.222 HD
ENDBRANCH  23  27
ENDBRANCH  22  23
ENDBRANCH   2  22
BRANCH   4  29
ATOM     29  C   UNL     1       6.547  -5.961  21.608  0.00  0.00    +0.190 C 
BRANCH  29  30
ATOM     30  O   UNL     1       5.359  -6.388  20.949  0.00  0.00    -0.392 OA
ATOM     31  H   UNL     1       5.616  -6.733  20.073  0.00  0.00    +0.210 HD
ENDBRANCH  29  30
ENDBRANCH   4  29
TORSDOF 8
ENDMDL
MODEL 5
REMARK VINA RESULT:      -6.5      3.651      6.179
REMARK  Name = 
REMARK  8 active torsions:
REMARK  status: ('A' for Active; 'I' for Inactive)
REMARK    1  A    between atoms: N_8  and  C_9
REMARK    2  A    between atoms: C_12  and  C_14
REMARK    3  A    between atoms: C_14  and  O_15
REMARK    4  A    between atoms: C_16  and  O_18
REMARK    5  A    between atoms: C_19  and  O_21
REMARK    6  A    between atoms: O_21  and  P_22
REMARK    7  A    between atoms: P_22  and  O_23
REMARK    8  A    between atoms: P_22  and  O_24
REMARK                            x       y       z     vdW  Elec       q    Type
REMARK                         _______ _______ _______ _____ _____    ______ ____
ROOT
ATOM      1  C   UNL     1       8.418  -3.612  25.236  0.00  0.00    +0.254 C 
ATOM      2  C   UNL     1       8.188  -2.651  24.052  0.00  0.00    +0.211 C 
ATOM      3  C   UNL     1       7.577  -1.404  24.705  0.00  0.00    +0.179 C 
ATOM      4  C   UNL     1       7.482  -1.740  26.191  0.00  0.00    +0.177 C 
ATOM      5  O   UNL     1       8.437  -2.785  26.425  0.00  0.00    -0.346 OA
ENDROOT
BRANCH   1  17
ATOM      6  N   UNL     1       6.114  -5.655  20.971  0.00  0.00    -0.329 N 
ATOM      7  H   UNL     1       5.244  -5.709  20.460  0.00  0.00    +0.145 HD
ATOM      8  H   UNL     1       6.718  -4.904  20.647  0.00  0.00    +0.145 HD
ATOM      9  C   UNL     1       6.054  -5.739  22.322  0.00  0.00    +0.195 A 
ATOM     10  N   UNL     1       5.054  -6.544  22.836  0.00  0.00    -0.293 N 
ATOM     11  H   UNL     1       4.443  -7.050  22.219  0.00  0.00    +0.172 HD
ATOM     12  C   UNL     1       4.858  -6.794  24.187  0.00  0.00    +0.280 A 
ATOM     13  O   UNL     1       3.975  -7.546  24.589  0.00  0.00    -0.265 OA
ATOM     14  C   UNL     1       5.798  -6.070  25.012  0.00  0.00    +0.172 A 
ATOM     15  N   UNL     1       5.950  -6.036  26.374  0.00  0.00    -0.229 NA
ATOM     16  C   UNL     1       6.947  -5.199  26.567  0.00  0.00    +0.203 A 
ATOM     17  N   UNL     1       7.400  -4.643  25.396  0.00  0.00    -0.285 N 
ATOM     18  C   UNL     1       6.721  -5.263  24.384  0.00  0.00    +0.171 A 
ATOM     19  N   UNL     1       6.910  -5.079  23.059  0.00  0.00    -0.196 NA
ENDBRANCH   1  17
BRANCH   3  20
ATOM     20  O   UNL     1       6.283  -1.120  24.177  0.00  0.00    -0.386 OA
ATOM     21  H   UNL     1       5.654  -1.667  24.686  0.00  0.00    +0.210 HD
ENDBRANCH   3  20
BRANCH   2  22
ATOM     22  O   UNL     1       9.422  -2.220  23.445  0.00  0.00    -0.276 OA
BRANCH  22  23
ATOM     23  P   UNL     1       9.391  -0.813  22.440  0.00  0.00    +0.473 P 
ATOM     24  O   UNL     1       9.363   0.447  21.540  0.00  0.00    -0.228 OA
BRANCH  23  25
ATOM     25  O   UNL     1      10.448  -1.650  21.510  0.00  0.00    -0.303 OA
ATOM     26  H   UNL     1       9.994  -2.194  20.844  0.00  0.00    +0.222 HD
ENDBRANCH  23  25
BRANCH  23  27
ATOM     27  O   UNL     1      10.553  -0.232  23.434  0.00  0.00    -0.303 OA
ATOM     28  H   UNL     1      10.416  -0.684  24.287  0.00  0.00    +0.222 HD
ENDBRANCH  23  27
ENDBRANCH  22  23
ENDBRANCH   2  22
BRANCH   4  29
ATOM     29  C   UNL     1       7.731  -0.550  27.111  0.00  0.00    +0.190 C 
BRANCH  29  30
ATOM     30  O   UNL     1       9.124  -0.391  27.359  0.00  0.00    -0.392 OA
ATOM     31  H   UNL     1       9.276   0.545  27.591  0.00  0.00    +0.210 HD
ENDBRANCH  29  30
ENDBRANCH   4  29
TORSDOF 8
ENDMDL
MODEL 6
REMARK VINA RESULT:      -6.4      3.488      6.505
REMARK  Name = 
REMARK  8 active torsions:
REMARK  status: ('A' for Active; 'I' for Inactive)
REMARK    1  A    between atoms: N_8  and  C_9
REMARK    2  A    between atoms: C_12  and  C_14
REMARK    3  A    between atoms: C_14  and  O_15
REMARK    4  A    between atoms: C_16  and  O_18
REMARK    5  A    between atoms: C_19  and  O_21
REMARK    6  A    between atoms: O_21  and  P_22
REMARK    7  A    between atoms: P_22  and  O_23
REMARK    8  A    between atoms: P_22  and  O_24
REMARK                            x       y       z     vdW  Elec       q    Type
REMARK                         _______ _______ _______ _____ _____    ______ ____
ROOT
ATOM      1  C   UNL     1       6.826  -1.336  22.803  0.00  0.00    +0.254 C 
ATOM      2  C   UNL     1       7.247  -0.077  23.588  0.00  0.00    +0.211 C 
ATOM      3  C   UNL     1       8.659  -0.410  24.087  0.00  0.00    +0.179 C 
ATOM      4  C   UNL     1       8.936  -1.823  23.579  0.00  0.00    +0.177 C 
ATOM      5  O   UNL     1       8.054  -2.026  22.466  0.00  0.00    -0.346 OA
ENDROOT
BRANCH   1  17
ATOM      6  N   UNL     1       6.006  -6.180  20.923  0.00  0.00    -0.329 N 
ATOM      7  H   UNL     1       5.314  -6.790  20.511  0.00  0.00    +0.145 HD
ATOM      8  H   UNL     1       6.562  -5.686  20.229  0.00  0.00    +0.145 HD
ATOM      9  C   UNL     1       5.614  -5.386  21.948  0.00  0.00    +0.195 A 
ATOM     10  N   UNL     1       4.639  -5.905  22.779  0.00  0.00    -0.293 N 
ATOM     11  H   UNL     1       4.284  -6.834  22.625  0.00  0.00    +0.172 HD
ATOM     12  C   UNL     1       4.139  -5.268  23.906  0.00  0.00    +0.280 A 
ATOM     13  O   UNL     1       3.297  -5.790  24.630  0.00  0.00    -0.265 OA
ATOM     14  C   UNL     1       4.724  -3.959  24.088  0.00  0.00    +0.172 A 
ATOM     15  N   UNL     1       4.514  -3.016  25.060  0.00  0.00    -0.229 NA
ATOM     16  C   UNL     1       5.301  -2.018  24.716  0.00  0.00    +0.203 A 
ATOM     17  N   UNL     1       5.956  -2.250  23.532  0.00  0.00    -0.285 N 
ATOM     18  C   UNL     1       5.655  -3.533  23.167  0.00  0.00    +0.171 A 
ATOM     19  N   UNL     1       6.150  -4.203  22.103  0.00  0.00    -0.196 NA
ENDBRANCH   1  17
BRANCH   3  20
ATOM     20  O   UNL     1       8.731  -0.373  25.511  0.00  0.00    -0.386 OA
ATOM     21  H   UNL     1       9.308  -1.116  25.776  0.00  0.00    +0.210 HD
ENDBRANCH   3  20
BRANCH   2  22
ATOM     22  O   UNL     1       7.386   1.081  22.740  0.00  0.00    -0.276 OA
BRANCH  22  23
ATOM     23  P   UNL     1       8.980   1.664  22.409  0.00  0.00    +0.473 P 
ATOM     24  O   UNL     1      10.408   2.186  22.111  0.00  0.00    -0.228 OA
BRANCH  23  25
ATOM     25  O   UNL     1       8.204   2.987  21.835  0.00  0.00    -0.303 OA
ATOM     26  H   UNL     1       7.244   2.843  21.766  0.00  0.00    +0.222 HD
ENDBRANCH  23  25
BRANCH  23  27
ATOM     27  O   UNL     1       8.852   0.841  21.001  0.00  0.00    -0.303 OA
ATOM     28  H   UNL     1       8.213   0.124  21.175  0.00  0.00    +0.222 HD
ENDBRANCH  23  27
ENDBRANCH  22  23
ENDBRANCH   2  22
BRANCH   4  29
ATOM     29  C   UNL     1      10.388  -2.063  23.182  0.00  0.00    +0.190 C 
BRANCH  29  30
ATOM     30  O   UNL     1      10.616  -1.650  21.838  0.00  0.00    -0.392 OA
ATOM     31  H   UNL     1      10.906  -2.433  21.335  0.00  0.00    +0.210 HD
ENDBRANCH  29  30
ENDBRANCH   4  29
TORSDOF 8
ENDMDL
MODEL 7
REMARK VINA RESULT:      -6.4      3.667      6.642
REMARK  Name = 
REMARK  8 active torsions:
REMARK  status: ('A' for Active; 'I' for Inactive)
REMARK    1  A    between atoms: N_8  and  C_9
REMARK    2  A    between atoms: C_12  and  C_14
REMARK    3  A    between atoms: C_14  and  O_15
REMARK    4  A    between atoms: C_16  and  O_18
REMARK    5  A    between atoms: C_19  and  O_21
REMARK    6  A    between atoms: O_21  and  P_22
REMARK    7  A    between atoms: P_22  and  O_23
REMARK    8  A    between atoms: P_22  and  O_24
REMARK                            x       y       z     vdW  Elec       q    Type
REMARK                         _______ _______ _______ _____ _____    ______ ____
ROOT
ATOM      1  C   UNL     1       8.083  -0.892  25.013  0.00  0.00    +0.254 C 
ATOM      2  C   UNL     1       7.263  -0.413  23.798  0.00  0.00    +0.211 C 
ATOM      3  C   UNL     1       6.689   0.936  24.252  0.00  0.00    +0.179 C 
ATOM      4  C   UNL     1       7.197   1.123  25.680  0.00  0.00    +0.177 C 
ATOM      5  O   UNL     1       8.360   0.291  25.801  0.00  0.00    -0.346 OA
ENDROOT
BRANCH   1  17
ATOM      6  N   UNL     1      10.227  -5.655  25.637  0.00  0.00    -0.329 N 
ATOM      7  H   UNL     1      10.113  -6.637  25.423  0.00  0.00    +0.145 HD
ATOM      8  H   UNL     1      10.797  -5.164  24.953  0.00  0.00    +0.145 HD
ATOM      9  C   UNL     1       9.122  -4.960  26.001  0.00  0.00    +0.195 A 
ATOM     10  N   UNL     1       8.167  -5.666  26.708  0.00  0.00    -0.293 N 
ATOM     11  H   UNL     1       8.325  -6.629  26.950  0.00  0.00    +0.172 HD
ATOM     12  C   UNL     1       6.991  -5.122  27.207  0.00  0.00    +0.280 A 
ATOM     13  O   UNL     1       6.192  -5.786  27.859  0.00  0.00    -0.265 OA
ATOM     14  C   UNL     1       6.852  -3.726  26.858  0.00  0.00    +0.172 A 
ATOM     15  N   UNL     1       5.859  -2.829  27.149  0.00  0.00    -0.229 NA
ATOM     16  C   UNL     1       6.249  -1.715  26.564  0.00  0.00    +0.203 A 
ATOM     17  N   UNL     1       7.414  -1.875  25.856  0.00  0.00    -0.285 N 
ATOM     18  C   UNL     1       7.853  -3.145  26.111  0.00  0.00    +0.171 A 
ATOM     19  N   UNL     1       9.007  -3.697  25.679  0.00  0.00    -0.196 NA
ENDBRANCH   1  17
BRANCH   3  20
ATOM     20  O   UNL     1       5.263   0.931  24.230  0.00  0.00    -0.386 OA
ATOM     21  H   UNL     1       4.980   0.391  24.993  0.00  0.00    +0.210 HD
ENDBRANCH   3  20
BRANCH   2  22
ATOM     22  O   UNL     1       8.088  -0.130  22.651  0.00  0.00    -0.276 OA
BRANCH  22  23
ATOM     23  P   UNL     1       9.559  -1.019  22.463  0.00  0.00    +0.473 P 
ATOM     24  O   UNL     1      10.876  -1.816  22.294  0.00  0.00    -0.228 OA
BRANCH  23  25
ATOM     25  O   UNL     1      10.280   0.425  22.735  0.00  0.00    -0.303 OA
ATOM     26  H   UNL     1      10.309   0.973  21.932  0.00  0.00    +0.222 HD
ENDBRANCH  23  25
BRANCH  23  27
ATOM     27  O   UNL     1       9.369  -0.749  20.861  0.00  0.00    -0.303 OA
ATOM     28  H   UNL     1       9.887   0.055  20.669  0.00  0.00    +0.222 HD
ENDBRANCH  23  27
ENDBRANCH  22  23
ENDBRANCH   2  22
BRANCH   4  29
ATOM     29  C   UNL     1       7.515   2.570  26.038  0.00  0.00    +0.190 C 
BRANCH  29  30
ATOM     30  O   UNL     1       8.654   3.027  25.316  0.00  0.00    -0.392 OA
ATOM     31  H   UNL     1       9.444   2.810  25.845  0.00  0.00    +0.210 HD
ENDBRANCH  29  30
ENDBRANCH   4  29
TORSDOF 8
ENDMDL
MODEL 8
REMARK VINA RESULT:      -6.2      3.213      6.441
REMARK  Name = 
REMARK  8 active torsions:
REMARK  status: ('A' for Active; 'I' for Inactive)
REMARK    1  A    between atoms: N_8  and  C_9
REMARK    2  A    between atoms: C_12  and  C_14
REMARK    3  A    between atoms: C_14  and  O_15
REMARK    4  A    between atoms: C_16  and  O_18
REMARK    5  A    between atoms: C_19  and  O_21
REMARK    6  A    between atoms: O_21  and  P_22
REMARK    7  A    between atoms: P_22  and  O_23
REMARK    8  A    between atoms: P_22  and  O_24
REMARK                            x       y       z     vdW  Elec       q    Type
REMARK                         _______ _______ _______ _____ _____    ______ ____
ROOT
ATOM      1  C   UNL     1       8.420   0.116  22.418  0.00  0.00    +0.254 C 
ATOM      2  C   UNL     1       7.451   0.852  23.365  0.00  0.00    +0.211 C 
ATOM      3  C   UNL     1       8.349   1.858  24.099  0.00  0.00    +0.179 C 
ATOM      4  C   UNL     1       9.750   1.617  23.544  0.00  0.00    +0.177 C 
ATOM      5  O   UNL     1       9.571   0.983  22.270  0.00  0.00    -0.346 OA
ENDROOT
BRANCH   1  17
ATOM      6  N   UNL     1       4.956  -3.820  22.843  0.00  0.00    -0.329 N 
ATOM      7  H   UNL     1       4.465  -4.409  23.501  0.00  0.00    +0.145 HD
ATOM      8  H   UNL     1       4.427  -2.990  22.584  0.00  0.00    +0.145 HD
ATOM      9  C   UNL     1       6.263  -3.559  23.084  0.00  0.00    +0.195 A 
ATOM     10  N   UNL     1       6.979  -4.569  23.701  0.00  0.00    -0.293 N 
ATOM     11  H   UNL     1       6.536  -5.445  23.915  0.00  0.00    +0.172 HD
ATOM     12  C   UNL     1       8.335  -4.512  23.990  0.00  0.00    +0.280 A 
ATOM     13  O   UNL     1       8.930  -5.452  24.507  0.00  0.00    -0.265 OA
ATOM     14  C   UNL     1       8.914  -3.242  23.616  0.00  0.00    +0.172 A 
ATOM     15  N   UNL     1      10.199  -2.781  23.725  0.00  0.00    -0.229 NA
ATOM     16  C   UNL     1      10.145  -1.557  23.243  0.00  0.00    +0.203 A 
ATOM     17  N   UNL     1       8.870  -1.187  22.892  0.00  0.00    -0.285 N 
ATOM     18  C   UNL     1       8.087  -2.297  23.049  0.00  0.00    +0.171 A 
ATOM     19  N   UNL     1       6.776  -2.405  22.741  0.00  0.00    -0.196 NA
ENDBRANCH   1  17
BRANCH   3  20
ATOM     20  O   UNL     1       8.330   1.641  25.509  0.00  0.00    -0.386 OA
ATOM     21  H   UNL     1       8.365   2.526  25.922  0.00  0.00    +0.210 HD
ENDBRANCH   3  20
BRANCH   2  22
ATOM     22  O   UNL     1       6.473   1.635  22.654  0.00  0.00    -0.276 OA
BRANCH  22  23
ATOM     23  P   UNL     1       6.048   3.186  23.289  0.00  0.00    +0.473 P 
ATOM     24  O   UNL     1       5.668   4.576  23.858  0.00  0.00    -0.228 OA
BRANCH  23  25
ATOM     25  O   UNL     1       4.515   2.735  22.933  0.00  0.00    -0.303 OA
ATOM     26  H   UNL     1       4.462   1.796  22.686  0.00  0.00    +0.222 HD
ENDBRANCH  23  25
BRANCH  23  27
ATOM     27  O   UNL     1       6.352   3.747  21.783  0.00  0.00    -0.303 OA
ATOM     28  H   UNL     1       6.720   2.988  21.292  0.00  0.00    +0.222 HD
ENDBRANCH  23  27
ENDBRANCH  22  23
ENDBRANCH   2  22
BRANCH   4  29
ATOM     29  C   UNL     1      10.590   2.883  23.416  0.00  0.00    +0.190 C 
BRANCH  29  30
ATOM     30  O   UNL     1       9.782   3.982  23.007  0.00  0.00    -0.392 OA
ATOM     31  H   UNL     1       9.234   4.243  23.771  0.00  0.00    +0.210 HD
ENDBRANCH  29  30
ENDBRANCH   4  29
TORSDOF 8
ENDMDL
MODEL 9
REMARK VINA RESULT:      -6.1      3.502      6.499
REMARK  Name = 
REMARK  8 active torsions:
REMARK  status: ('A' for Active; 'I' for Inactive)
REMARK    1  A    between atoms: N_8  and  C_9
REMARK    2  A    between atoms: C_12  and  C_14
REMARK    3  A    between atoms: C_14  and  O_15
REMARK    4  A    between atoms: C_16  and  O_18
REMARK    5  A    between atoms: C_19  and  O_21
REMARK    6  A    between atoms: O_21  and  P_22
REMARK    7  A    between atoms: P_22  and  O_23
REMARK    8  A    between atoms: P_22  and  O_24
REMARK                            x       y       z     vdW  Elec       q    Type
REMARK                         _______ _______ _______ _____ _____    ______ ____
ROOT
ATOM      1  C   UNL     1       7.379  -1.941  24.152  0.00  0.00    +0.254 C 
ATOM      2  C   UNL     1       7.039  -0.647  23.386  0.00  0.00    +0.211 C 
ATOM      3  C   UNL     1       6.578   0.320  24.484  0.00  0.00    +0.179 C 
ATOM      4  C   UNL     1       6.665  -0.482  25.780  0.00  0.00    +0.177 C 
ATOM      5  O   UNL     1       7.594  -1.546  25.529  0.00  0.00    -0.346 OA
ENDROOT
BRANCH   1  17
ATOM      6  N   UNL     1       7.621  -5.993  27.499  0.00  0.00    -0.329 N 
ATOM      7  H   UNL     1       7.776  -6.989  27.565  0.00  0.00    +0.145 HD
ATOM      8  H   UNL     1       8.471  -5.450  27.633  0.00  0.00    +0.145 HD
ATOM      9  C   UNL     1       6.863  -5.542  26.470  0.00  0.00    +0.195 A 
ATOM     10  N   UNL     1       5.846  -6.380  26.054  0.00  0.00    -0.293 N 
ATOM     11  H   UNL     1       5.682  -7.252  26.527  0.00  0.00    +0.172 HD
ATOM     12  C   UNL     1       4.936  -6.079  25.050  0.00  0.00    +0.280 A 
ATOM     13  O   UNL     1       4.028  -6.845  24.743  0.00  0.00    -0.265 OA
ATOM     14  C   UNL     1       5.205  -4.794  24.445  0.00  0.00    +0.172 A 
ATOM     15  N   UNL     1       4.557  -4.129  23.438  0.00  0.00    -0.229 NA
ATOM     16  C   UNL     1       5.245  -3.016  23.291  0.00  0.00    +0.203 A 
ATOM     17  N   UNL     1       6.345  -2.967  24.112  0.00  0.00    -0.285 N 
ATOM     18  C   UNL     1       6.277  -4.070  24.918  0.00  0.00    +0.171 A 
ATOM     19  N   UNL     1       7.117  -4.377  25.931  0.00  0.00    -0.196 NA
ENDBRANCH   1  17
BRANCH   3  20
ATOM     20  O   UNL     1       5.239   0.760  24.263  0.00  0.00    -0.386 OA
ATOM     21  H   UNL     1       5.294   1.487  23.613  0.00  0.00    +0.210 HD
ENDBRANCH   3  20
BRANCH   2  22
ATOM     22  O   UNL     1       8.200  -0.042  22.783  0.00  0.00    -0.276 OA
BRANCH  22  23
ATOM     23  P   UNL     1       9.606  -1.021  22.551  0.00  0.00    +0.473 P 
ATOM     24  O   UNL     1      10.865  -1.899  22.342  0.00  0.00    -0.228 OA
BRANCH  23  25
ATOM     25  O   UNL     1      10.425   0.356  22.884  0.00  0.00    -0.303 OA
ATOM     26  H   UNL     1      11.279   0.392  22.420  0.00  0.00    +0.222 HD
ENDBRANCH  23  25
BRANCH  23  27
ATOM     27  O   UNL     1       9.435  -0.667  20.963  0.00  0.00    -0.303 OA
ATOM     28  H   UNL     1       9.919   0.169  20.829  0.00  0.00    +0.222 HD
ENDBRANCH  23  27
ENDBRANCH  22  23
ENDBRANCH   2  22
BRANCH   4  29
ATOM     29  C   UNL     1       7.088   0.344  26.990  0.00  0.00    +0.190 C 
BRANCH  29  30
ATOM     30  O   UNL     1       7.900   1.443  26.589  0.00  0.00    -0.392 OA
ATOM     31  H   UNL     1       7.306   2.139  26.251  0.00  0.00    +0.210 HD
ENDBRANCH  29  30
ENDBRANCH   4  29
TORSDOF 8
ENDMDL
