MODEL 1
REMARK VINA RESULT:      -5.6      0.000      0.000
REMARK  Name = 
REMARK  6 active torsions:
REMARK  status: ('A' for Active; 'I' for Inactive)
REMARK    1  A    between atoms: C_1  and  C_2
REMARK    2  A    between atoms: C_2  and  C_3
REMARK    3  A    between atoms: C_6  and  N_7
REMARK    4  A    between atoms: C_8  and  P_10
REMARK    5  A    between atoms: P_10  and  O_11
REMARK    6  A    between atoms: P_10  and  O_12
REMARK                            x       y       z     vdW  Elec       q    Type
REMARK                         _______ _______ _______ _____ _____    ______ ____
ROOT
ATOM      1  N   UNL     1       8.727  -2.122  25.071  0.00  0.00    -0.275 N 
ATOM      2  H   UNL     1       8.007  -1.993  25.780  0.00  0.00    +0.155 HD
ATOM      3  C   UNL     1       9.156  -3.424  24.905  0.00  0.00    +0.329 C 
ATOM      4  O   UNL     1      10.133  -3.758  24.234  0.00  0.00    -0.262 OA
ENDROOT
BRANCH   1   8
ATOM      5  C   UNL     1      10.186   1.301  23.049  0.00  0.00    -0.048 A 
ATOM      6  C   UNL     1      10.511   1.056  24.388  0.00  0.00    +0.005 A 
ATOM      7  C   UNL     1      10.031  -0.088  25.045  0.00  0.00    +0.023 A 
ATOM      8  C   UNL     1       9.235  -1.010  24.364  0.00  0.00    +0.034 A 
ATOM      9  C   UNL     1       8.948  -0.774  23.013  0.00  0.00    +0.023 A 
ATOM     10  C   UNL     1       9.414   0.366  22.360  0.00  0.00    +0.005 A 
BRANCH   5  12
ATOM     11  C   UNL     1      11.128   3.569  23.408  0.00  0.00    +0.009 C 
ATOM     12  C   UNL     1      10.558   2.598  22.381  0.00  0.00    +0.032 C 
ENDBRANCH   5  12
ENDBRANCH   1   8
BRANCH   3  13
ATOM     13  P   UNL     1       8.434  -4.870  25.765  0.00  0.00    +0.412 P 
ATOM     14  O   UNL     1       7.822  -6.092  26.492  0.00  0.00    -0.249 OA
BRANCH  13  15
ATOM     15  O   UNL     1       9.493  -4.634  27.026  0.00  0.00    -0.318 OA
ATOM     16  H   UNL     1       8.914  -4.682  27.818  0.00  0.00    +0.220 HD
ENDBRANCH  13  15
BRANCH  13  17
ATOM     17  O   UNL     1       9.474  -5.835  24.894  0.00  0.00    -0.318 OA
ATOM     18  H   UNL     1       9.064  -6.684  24.634  0.00  0.00    +0.220 HD
ENDBRANCH  13  17
ENDBRANCH   3  13
TORSDOF 5
ENDMDL
MODEL 2
REMARK VINA RESULT:      -5.5      2.789      3.159
REMARK  Name = 
REMARK  6 active torsions:
REMARK  status: ('A' for Active; 'I' for Inactive)
REMARK    1  A    between atoms: C_1  and  C_2
REMARK    2  A    between atoms: C_2  and  C_3
REMARK    3  A    between atoms: C_6  and  N_7
REMARK    4  A    between atoms: C_8  and  P_10
REMARK    5  A    between atoms: P_10  and  O_11
REMARK    6  A    between atoms: P_10  and  O_12
REMARK                            x       y       z     vdW  Elec       q    Type
REMARK                         _______ _______ _______ _____ _____    ______ ____
ROOT
ATOM      1  N   UNL     1       8.780  -2.153  22.199  0.00  0.00    -0.275 N 
ATOM      2  H   UNL     1       9.346  -2.883  21.772  0.00  0.00    +0.155 HD
ATOM      3  C   UNL     1       7.471  -2.508  22.460  0.00  0.00    +0.329 C 
ATOM      4  O   UNL     1       6.589  -1.722  22.804  0.00  0.00    -0.262 OA
ENDROOT
BRANCH   1   8
ATOM      5  C   UNL     1      10.356   1.677  23.081  0.00  0.00    -0.048 A 
ATOM      6  C   UNL     1      10.458   0.622  23.996  0.00  0.00    +0.005 A 
ATOM      7  C   UNL     1       9.943  -0.647  23.687  0.00  0.00    +0.023 A 
ATOM      8  C   UNL     1       9.334  -0.880  22.453  0.00  0.00    +0.034 A 
ATOM      9  C   UNL     1       9.272   0.174  21.531  0.00  0.00    +0.023 A 
ATOM     10  C   UNL     1       9.774   1.438  21.837  0.00  0.00    +0.005 A 
BRANCH   5  12
ATOM     11  C   UNL     1       9.531   3.879  23.877  0.00  0.00    +0.009 C 
ATOM     12  C   UNL     1      10.759   3.078  23.459  0.00  0.00    +0.032 C 
ENDBRANCH   5  12
ENDBRANCH   1   8
BRANCH   3  13
ATOM     13  P   UNL     1       6.783  -4.185  22.204  0.00  0.00    +0.412 P 
ATOM     14  O   UNL     1       6.202  -5.603  21.987  0.00  0.00    -0.249 OA
BRANCH  13  15
ATOM     15  O   UNL     1       5.315  -3.510  21.809  0.00  0.00    -0.318 OA
ATOM     16  H   UNL     1       5.051  -4.003  21.001  0.00  0.00    +0.220 HD
ENDBRANCH  13  15
BRANCH  13  17
ATOM     17  O   UNL     1       6.469  -4.243  23.839  0.00  0.00    -0.318 OA
ATOM     18  H   UNL     1       6.943  -4.974  24.283  0.00  0.00    +0.220 HD
ENDBRANCH  13  17
ENDBRANCH   3  13
TORSDOF 5
ENDMDL
MODEL 3
REMARK VINA RESULT:      -5.4      1.548      1.868
REMARK  Name = 
REMARK  6 active torsions:
REMARK  status: ('A' for Active; 'I' for Inactive)
REMARK    1  A    between atoms: C_1  and  C_2
REMARK    2  A    between atoms: C_2  and  C_3
REMARK    3  A    between atoms: C_6  and  N_7
REMARK    4  A    between atoms: C_8  and  P_10
REMARK    5  A    between atoms: P_10  and  O_11
REMARK    6  A    between atoms: P_10  and  O_12
REMARK                            x       y       z     vdW  Elec       q    Type
REMARK                         _______ _______ _______ _____ _____    ______ ____
ROOT
ATOM      1  N   UNL     1       9.158  -3.056  25.311  0.00  0.00    -0.275 N 
ATOM      2  H   UNL     1       9.929  -3.584  25.713  0.00  0.00    +0.155 HD
ATOM      3  C   UNL     1       7.899  -3.514  25.648  0.00  0.00    +0.329 C 
ATOM      4  O   UNL     1       6.852  -3.128  25.127  0.00  0.00    -0.262 OA
ENDROOT
BRANCH   1   8
ATOM      5  C   UNL     1       9.797   0.276  22.776  0.00  0.00    -0.048 A 
ATOM      6  C   UNL     1       9.634   0.436  24.157  0.00  0.00    +0.005 A 
ATOM      7  C   UNL     1       9.435  -0.678  24.989  0.00  0.00    +0.023 A 
ATOM      8  C   UNL     1       9.413  -1.965  24.452  0.00  0.00    +0.034 A 
ATOM      9  C   UNL     1       9.615  -2.115  23.073  0.00  0.00    +0.023 A 
ATOM     10  C   UNL     1       9.804  -1.012  22.242  0.00  0.00    +0.005 A 
BRANCH   5  12
ATOM     11  C   UNL     1       8.472   2.108  21.752  0.00  0.00    +0.009 C 
ATOM     12  C   UNL     1       9.851   1.466  21.855  0.00  0.00    +0.032 C 
ENDBRANCH   5  12
ENDBRANCH   1   8
BRANCH   3  13
ATOM     13  P   UNL     1       7.575  -4.876  26.827  0.00  0.00    +0.412 P 
ATOM     14  O   UNL     1       7.301  -6.027  27.825  0.00  0.00    -0.249 OA
BRANCH  13  15
ATOM     15  O   UNL     1       8.957  -5.641  26.306  0.00  0.00    -0.318 OA
ATOM     16  H   UNL     1       9.651  -4.954  26.419  0.00  0.00    +0.220 HD
ENDBRANCH  13  15
BRANCH  13  17
ATOM     17  O   UNL     1       6.594  -5.567  25.672  0.00  0.00    -0.318 OA
ATOM     18  H   UNL     1       6.224  -4.905  25.054  0.00  0.00    +0.220 HD
ENDBRANCH  13  17
ENDBRANCH   3  13
TORSDOF 5
ENDMDL
MODEL 4
REMARK VINA RESULT:      -5.4      2.704      3.295
REMARK  Name = 
REMARK  6 active torsions:
REMARK  status: ('A' for Active; 'I' for Inactive)
REMARK    1  A    between atoms: C_1  and  C_2
REMARK    2  A    between atoms: C_2  and  C_3
REMARK    3  A    between atoms: C_6  and  N_7
REMARK    4  A    between atoms: C_8  and  P_10
REMARK    5  A    between atoms: P_10  and  O_11
REMARK    6  A    between atoms: P_10  and  O_12
REMARK                            x       y       z     vdW  Elec       q    Type
REMARK                         _______ _______ _______ _____ _____    ______ ____
ROOT
ATOM      1  N   UNL     1       8.822  -2.222  22.319  0.00  0.00    -0.275 N 
ATOM      2  H   UNL     1       9.464  -2.880  21.883  0.00  0.00    +0.155 HD
ATOM      3  C   UNL     1       7.546  -2.706  22.532  0.00  0.00    +0.329 C 
ATOM      4  O   UNL     1       6.586  -2.017  22.877  0.00  0.00    -0.262 OA
ENDROOT
BRANCH   1   8
ATOM      5  C   UNL     1      10.209   1.691  23.154  0.00  0.00    -0.048 A 
ATOM      6  C   UNL     1       9.767   1.336  21.875  0.00  0.00    +0.005 A 
ATOM      7  C   UNL     1       9.298   0.039  21.612  0.00  0.00    +0.023 A 
ATOM      8  C   UNL     1       9.249  -0.913  22.631  0.00  0.00    +0.034 A 
ATOM      9  C   UNL     1       9.658  -0.534  23.917  0.00  0.00    +0.023 A 
ATOM     10  C   UNL     1      10.133   0.749  24.180  0.00  0.00    +0.005 A 
BRANCH   5  12
ATOM     11  C   UNL     1       9.804   4.062  23.766  0.00  0.00    +0.009 C 
ATOM     12  C   UNL     1      10.861   3.023  23.412  0.00  0.00    +0.032 C 
ENDBRANCH   5  12
ENDBRANCH   1   8
BRANCH   3  13
ATOM     13  P   UNL     1       7.024  -4.429  22.201  0.00  0.00    +0.412 P 
ATOM     14  O   UNL     1       6.583  -5.886  21.921  0.00  0.00    -0.249 OA
BRANCH  13  15
ATOM     15  O   UNL     1       5.689  -3.856  21.390  0.00  0.00    -0.318 OA
ATOM     16  H   UNL     1       5.002  -4.533  21.581  0.00  0.00    +0.220 HD
ENDBRANCH  13  15
BRANCH  13  17
ATOM     17  O   UNL     1       6.284  -4.430  23.693  0.00  0.00    -0.318 OA
ATOM     18  H   UNL     1       5.665  -5.179  23.801  0.00  0.00    +0.220 HD
ENDBRANCH  13  17
ENDBRANCH   3  13
TORSDOF 5
ENDMDL
MODEL 5
REMARK VINA RESULT:      -5.4      4.458      6.615
REMARK  Name = 
REMARK  6 active torsions:
REMARK  status: ('A' for Active; 'I' for Inactive)
REMARK    1  A    between atoms: C_1  and  C_2
REMARK    2  A    between atoms: C_2  and  C_3
REMARK    3  A    between atoms: C_6  and  N_7
REMARK    4  A    between atoms: C_8  and  P_10
REMARK    5  A    between atoms: P_10  and  O_11
REMARK    6  A    between atoms: P_10  and  O_12
REMARK                            x       y       z     vdW  Elec       q    Type
REMARK                         _______ _______ _______ _____ _____    ______ ____
ROOT
ATOM      1  N   UNL     1      10.006  -0.391  23.167  0.00  0.00    -0.275 N 
ATOM      2  H   UNL     1      10.978  -0.407  22.869  0.00  0.00    +0.155 HD
ATOM      3  C   UNL     1       9.530   0.851  23.543  0.00  0.00    +0.329 C 
ATOM      4  O   UNL     1       8.449   1.046  24.098  0.00  0.00    -0.262 OA
ENDROOT
BRANCH   1   8
ATOM      5  C   UNL     1       7.877  -4.051  23.271  0.00  0.00    -0.048 A 
ATOM      6  C   UNL     1       8.843  -3.745  24.237  0.00  0.00    +0.005 A 
ATOM      7  C   UNL     1       9.533  -2.523  24.200  0.00  0.00    +0.023 A 
ATOM      8  C   UNL     1       9.254  -1.585  23.206  0.00  0.00    +0.034 A 
ATOM      9  C   UNL     1       8.258  -1.887  22.266  0.00  0.00    +0.023 A 
ATOM     10  C   UNL     1       7.577  -3.102  22.294  0.00  0.00    +0.005 A 
BRANCH   5  12
ATOM     11  C   UNL     1       7.068  -5.838  21.751  0.00  0.00    +0.009 C 
ATOM     12  C   UNL     1       7.246  -5.416  23.204  0.00  0.00    +0.032 C 
ENDBRANCH   5  12
ENDBRANCH   1   8
BRANCH   3  13
ATOM     13  P   UNL     1      10.485   2.407  23.412  0.00  0.00    +0.412 P 
ATOM     14  O   UNL     1      11.292   3.723  23.301  0.00  0.00    -0.249 OA
BRANCH  13  15
ATOM     15  O   UNL     1       9.086   3.272  23.663  0.00  0.00    -0.318 OA
ATOM     16  H   UNL     1       8.939   3.717  22.799  0.00  0.00    +0.220 HD
ENDBRANCH  13  15
BRANCH  13  17
ATOM     17  O   UNL     1      10.293   2.317  21.759  0.00  0.00    -0.318 OA
ATOM     18  H   UNL     1      10.585   3.133  21.307  0.00  0.00    +0.220 HD
ENDBRANCH  13  17
ENDBRANCH   3  13
TORSDOF 5
ENDMDL
MODEL 6
REMARK VINA RESULT:      -5.3      3.362      3.812
REMARK  Name = 
REMARK  6 active torsions:
REMARK  status: ('A' for Active; 'I' for Inactive)
REMARK    1  A    between atoms: C_1  and  C_2
REMARK    2  A    between atoms: C_2  and  C_3
REMARK    3  A    between atoms: C_6  and  N_7
REMARK    4  A    between atoms: C_8  and  P_10
REMARK    5  A    between atoms: P_10  and  O_11
REMARK    6  A    between atoms: P_10  and  O_12
REMARK                            x       y       z     vdW  Elec       q    Type
REMARK                         _______ _______ _______ _____ _____    ______ ____
ROOT
ATOM      1  N   UNL     1       7.056  -3.268  23.265  0.00  0.00    -0.275 N 
ATOM      2  H   UNL     1       7.451  -3.766  24.060  0.00  0.00    +0.155 HD
ATOM      3  C   UNL     1       5.984  -3.894  22.658  0.00  0.00    +0.329 C 
ATOM      4  O   UNL     1       5.488  -3.547  21.587  0.00  0.00    -0.262 OA
ENDROOT
BRANCH   1   8
ATOM      5  C   UNL     1       8.879   0.358  22.056  0.00  0.00    -0.048 A 
ATOM      6  C   UNL     1       9.439  -0.881  21.724  0.00  0.00    +0.005 A 
ATOM      7  C   UNL     1       8.819  -2.077  22.120  0.00  0.00    +0.023 A 
ATOM      8  C   UNL     1       7.623  -2.047  22.837  0.00  0.00    +0.034 A 
ATOM      9  C   UNL     1       7.052  -0.801  23.131  0.00  0.00    +0.023 A 
ATOM     10  C   UNL     1       7.669   0.389  22.747  0.00  0.00    +0.005 A 
BRANCH   5  12
ATOM     11  C   UNL     1      10.238   2.174  23.063  0.00  0.00    +0.009 C 
ATOM     12  C   UNL     1       9.612   1.644  21.778  0.00  0.00    +0.032 C 
ENDBRANCH   5  12
ENDBRANCH   1   8
BRANCH   3  13
ATOM     13  P   UNL     1       5.203  -5.432  23.269  0.00  0.00    +0.412 P 
ATOM     14  O   UNL     1       4.543  -6.733  23.786  0.00  0.00    -0.249 OA
BRANCH  13  15
ATOM     15  O   UNL     1       5.516  -6.158  21.805  0.00  0.00    -0.318 OA
ATOM     16  H   UNL     1       5.553  -7.114  22.032  0.00  0.00    +0.220 HD
ENDBRANCH  13  15
BRANCH  13  17
ATOM     17  O   UNL     1       3.734  -4.806  22.797  0.00  0.00    -0.318 OA
ATOM     18  H   UNL     1       3.761  -4.436  21.892  0.00  0.00    +0.220 HD
ENDBRANCH  13  17
ENDBRANCH   3  13
TORSDOF 5
ENDMDL
MODEL 7
REMARK VINA RESULT:      -5.1      4.439      6.755
REMARK  Name = 
REMARK  6 active torsions:
REMARK  status: ('A' for Active; 'I' for Inactive)
REMARK    1  A    between atoms: C_1  and  C_2
REMARK    2  A    between atoms: C_2  and  C_3
REMARK    3  A    between atoms: C_6  and  N_7
REMARK    4  A    between atoms: C_8  and  P_10
REMARK    5  A    between atoms: P_10  and  O_11
REMARK    6  A    between atoms: P_10  and  O_12
REMARK                            x       y       z     vdW  Elec       q    Type
REMARK                         _______ _______ _______ _____ _____    ______ ____
ROOT
ATOM      1  N   UNL     1       8.221  -0.197  23.596  0.00  0.00    -0.275 N 
ATOM      2  H   UNL     1       7.788   0.304  24.369  0.00  0.00    +0.155 HD
ATOM      3  C   UNL     1       9.100   0.550  22.837  0.00  0.00    +0.329 C 
ATOM      4  O   UNL     1       9.584   0.184  21.766  0.00  0.00    -0.262 OA
ENDROOT
BRANCH   1   8
ATOM      5  C   UNL     1       7.085  -4.218  22.909  0.00  0.00    -0.048 A 
ATOM      6  C   UNL     1       6.350  -3.155  22.373  0.00  0.00    +0.005 A 
ATOM      7  C   UNL     1       6.743  -1.826  22.597  0.00  0.00    +0.023 A 
ATOM      8  C   UNL     1       7.886  -1.546  23.346  0.00  0.00    +0.034 A 
ATOM      9  C   UNL     1       8.635  -2.620  23.846  0.00  0.00    +0.023 A 
ATOM     10  C   UNL     1       8.244  -3.940  23.633  0.00  0.00    +0.005 A 
BRANCH   5  12
ATOM     11  C   UNL     1       6.190  -5.953  21.375  0.00  0.00    +0.009 C 
ATOM     12  C   UNL     1       6.589  -5.637  22.812  0.00  0.00    +0.032 C 
ENDBRANCH   5  12
ENDBRANCH   1   8
BRANCH   3  13
ATOM     13  P   UNL     1       9.592   2.271  23.217  0.00  0.00    +0.412 P 
ATOM     14  O   UNL     1      10.008   3.727  23.540  0.00  0.00    -0.249 OA
BRANCH  13  15
ATOM     15  O   UNL     1      10.344   2.372  21.737  0.00  0.00    -0.318 OA
ATOM     16  H   UNL     1      10.132   1.508  21.318  0.00  0.00    +0.220 HD
ENDBRANCH  13  15
BRANCH  13  17
ATOM     17  O   UNL     1      10.926   1.656  24.003  0.00  0.00    -0.318 OA
ATOM     18  H   UNL     1      10.691   0.947  24.635  0.00  0.00    +0.220 HD
ENDBRANCH  13  17
ENDBRANCH   3  13
TORSDOF 5
ENDMDL
MODEL 8
REMARK VINA RESULT:      -4.9      2.344      2.778
REMARK  Name = 
REMARK  6 active torsions:
REMARK  status: ('A' for Active; 'I' for Inactive)
REMARK    1  A    between atoms: C_1  and  C_2
REMARK    2  A    between atoms: C_2  and  C_3
REMARK    3  A    between atoms: C_6  and  N_7
REMARK    4  A    between atoms: C_8  and  P_10
REMARK    5  A    between atoms: P_10  and  O_11
REMARK    6  A    between atoms: P_10  and  O_12
REMARK                            x       y       z     vdW  Elec       q    Type
REMARK                         _______ _______ _______ _____ _____    ______ ____
ROOT
ATOM      1  N   UNL     1       6.759  -3.595  24.388  0.00  0.00    -0.275 N 
ATOM      2  H   UNL     1       6.006  -4.151  23.990  0.00  0.00    +0.155 HD
ATOM      3  C   UNL     1       7.147  -3.965  25.661  0.00  0.00    +0.329 C 
ATOM      4  O   UNL     1       7.908  -3.313  26.377  0.00  0.00    -0.262 OA
ENDROOT
BRANCH   1   8
ATOM      5  C   UNL     1       8.529  -0.376  22.280  0.00  0.00    -0.048 A 
ATOM      6  C   UNL     1       9.061  -1.669  22.211  0.00  0.00    +0.005 A 
ATOM      7  C   UNL     1       8.458  -2.731  22.904  0.00  0.00    +0.023 A 
ATOM      8  C   UNL     1       7.306  -2.515  23.661  0.00  0.00    +0.034 A 
ATOM      9  C   UNL     1       6.761  -1.224  23.693  0.00  0.00    +0.023 A 
ATOM     10  C   UNL     1       7.362  -0.166  23.013  0.00  0.00    +0.005 A 
BRANCH   5  12
ATOM     11  C   UNL     1       8.353   2.029  21.693  0.00  0.00    +0.009 C 
ATOM     12  C   UNL     1       9.252   0.797  21.675  0.00  0.00    +0.032 C 
ENDBRANCH   5  12
ENDBRANCH   1   8
BRANCH   3  13
ATOM     13  P   UNL     1       6.491  -5.416  26.563  0.00  0.00    +0.412 P 
ATOM     14  O   UNL     1       5.935  -6.644  27.324  0.00  0.00    -0.249 OA
BRANCH  13  15
ATOM     15  O   UNL     1       6.465  -4.520  27.964  0.00  0.00    -0.318 OA
ATOM     16  H   UNL     1       6.713  -5.174  28.653  0.00  0.00    +0.220 HD
ENDBRANCH  13  15
BRANCH  13  17
ATOM     17  O   UNL     1       8.062  -5.931  26.761  0.00  0.00    -0.318 OA
ATOM     18  H   UNL     1       8.711  -5.285  26.419  0.00  0.00    +0.220 HD
ENDBRANCH  13  17
ENDBRANCH   3  13
TORSDOF 5
ENDMDL
MODEL 9
REMARK VINA RESULT:      -4.9      4.256      7.213
REMARK  Name = 
REMARK  6 active torsions:
REMARK  status: ('A' for Active; 'I' for Inactive)
REMARK    1  A    between atoms: C_1  and  C_2
REMARK    2  A    between atoms: C_2  and  C_3
REMARK    3  A    between atoms: C_6  and  N_7
REMARK    4  A    between atoms: C_8  and  P_10
REMARK    5  A    between atoms: P_10  and  O_11
REMARK    6  A    between atoms: P_10  and  O_12
REMARK                            x       y       z     vdW  Elec       q    Type
REMARK                         _______ _______ _______ _____ _____    ______ ____
ROOT
ATOM      1  N   UNL     1       8.315  -2.985  22.821  0.00  0.00    -0.275 N 
ATOM      2  H   UNL     1       9.296  -3.201  22.657  0.00  0.00    +0.155 HD
ATOM      3  C   UNL     1       7.980  -1.651  22.689  0.00  0.00    +0.329 C 
ATOM      4  O   UNL     1       6.898  -1.167  23.018  0.00  0.00    -0.262 OA
ENDROOT
BRANCH   1   8
ATOM      5  C   UNL     1       5.504  -5.982  23.845  0.00  0.00    -0.048 A 
ATOM      6  C   UNL     1       5.779  -5.672  22.508  0.00  0.00    +0.005 A 
ATOM      7  C   UNL     1       6.722  -4.685  22.181  0.00  0.00    +0.023 A 
ATOM      8  C   UNL     1       7.413  -4.008  23.186  0.00  0.00    +0.034 A 
ATOM      9  C   UNL     1       7.157  -4.355  24.520  0.00  0.00    +0.023 A 
ATOM     10  C   UNL     1       6.215  -5.328  24.850  0.00  0.00    +0.005 A 
BRANCH   5  12
ATOM     11  C   UNL     1       4.255  -7.007  25.730  0.00  0.00    +0.009 C 
ATOM     12  C   UNL     1       4.385  -6.920  24.213  0.00  0.00    +0.032 C 
ENDBRANCH   5  12
ENDBRANCH   1   8
BRANCH   3  13
ATOM     13  P   UNL     1       9.136  -0.345  22.135  0.00  0.00    +0.412 P 
ATOM     14  O   UNL     1      10.113   0.761  21.666  0.00  0.00    -0.249 OA
BRANCH  13  15
ATOM     15  O   UNL     1      10.099  -1.509  21.439  0.00  0.00    -0.318 OA
ATOM     16  H   UNL     1       9.808  -2.336  21.882  0.00  0.00    +0.220 HD
ENDBRANCH  13  15
BRANCH  13  17
ATOM     17  O   UNL     1       9.868  -0.439  23.628  0.00  0.00    -0.318 OA
ATOM     18  H   UNL     1       9.699  -1.294  24.071  0.00  0.00    +0.220 HD
ENDBRANCH  13  17
ENDBRANCH   3  13
TORSDOF 5
ENDMDL
