MODEL 1
REMARK VINA RESULT:      -6.0      0.000      0.000
REMARK  Name = 
REMARK  6 active torsions:
REMARK  status: ('A' for Active; 'I' for Inactive)
REMARK    1  A    between atoms: C_1  and  C_2
REMARK    2  A    between atoms: C_2  and  C_3
REMARK    3  A    between atoms: C_3  and  S_4
REMARK    4  A    between atoms: S_4  and  C_5
REMARK    5  A    between atoms: C_14  and  O_16
REMARK    6  A    between atoms: O_16  and  C_17
REMARK                            x       y       z     vdW  Elec       q    Type
REMARK                         _______ _______ _______ _____ _____    ______ ____
ROOT
ATOM      1  C   UNL     1       9.617   1.735  23.651  0.00  0.00    +0.010 A 
ATOM      2  C   UNL     1      10.046   0.960  22.567  0.00  0.00    +0.017 A 
ATOM      3  C   UNL     1       9.986  -0.438  22.609  0.00  0.00    +0.031 A 
ATOM      4  C   UNL     1       9.492  -1.052  23.765  0.00  0.00    +0.091 A 
ATOM      5  N   UNL     1       9.333  -2.380  24.039  0.00  0.00    -0.214 NA
ATOM      6  C   UNL     1       8.840  -2.451  25.251  0.00  0.00    +0.203 A 
ATOM      7  N   UNL     1       8.682  -1.192  25.781  0.00  0.00    -0.326 N 
ATOM      8  H   UNL     1       8.327  -0.976  26.699  0.00  0.00    +0.169 HD
ATOM      9  N   UNL     1       8.504  -3.582  25.947  0.00  0.00    -0.221 N 
ATOM     10  H   UNL     1       8.127  -3.541  26.879  0.00  0.00    +0.161 HD
ATOM     11  C   UNL     1       8.652  -4.830  25.401  0.00  0.00    +0.406 C 
ATOM     12  O   UNL     1       9.081  -5.135  24.297  0.00  0.00    -0.226 OA
ATOM     13  C   UNL     1       9.086  -0.273  24.841  0.00  0.00    +0.068 A 
ATOM     14  C   UNL     1       9.140   1.126  24.827  0.00  0.00    +0.042 A 
ENDROOT
BRANCH  11  15
ATOM     15  O   UNL     1       8.226  -5.754  26.311  0.00  0.00    -0.453 OA
ATOM     16  C   UNL     1       7.156  -5.275  27.130  0.00  0.00    +0.282 C 
ENDBRANCH  11  15
BRANCH   1  17
ATOM     17  S   UNL     1       9.731   3.519  23.595  0.00  0.00    -0.125 S 
BRANCH  17  18
ATOM     18  C   UNL     1      11.540   3.726  23.427  0.00  0.00    +0.074 C 
BRANCH  18  20
ATOM     19  C   UNL     1      13.068   5.511  22.509  0.00  0.00    +0.004 C 
ATOM     20  C   UNL     1      11.886   5.214  23.423  0.00  0.00    +0.008 C 
ENDBRANCH  18  20
ENDBRANCH  17  18
ENDBRANCH   1  17
TORSDOF 4
ENDMDL
MODEL 2
REMARK VINA RESULT:      -5.9      1.936      2.374
REMARK  Name = 
REMARK  6 active torsions:
REMARK  status: ('A' for Active; 'I' for Inactive)
REMARK    1  A    between atoms: C_1  and  C_2
REMARK    2  A    between atoms: C_2  and  C_3
REMARK    3  A    between atoms: C_3  and  S_4
REMARK    4  A    between atoms: S_4  and  C_5
REMARK    5  A    between atoms: C_14  and  O_16
REMARK    6  A    between atoms: O_16  and  C_17
REMARK                            x       y       z     vdW  Elec       q    Type
REMARK                         _______ _______ _______ _____ _____    ______ ____
ROOT
ATOM      1  C   UNL     1       9.373   1.673  23.856  0.00  0.00    +0.010 A 
ATOM      2  C   UNL     1      10.319   0.915  24.557  0.00  0.00    +0.017 A 
ATOM      3  C   UNL     1      10.227  -0.481  24.616  0.00  0.00    +0.031 A 
ATOM      4  C   UNL     1       9.160  -1.109  23.963  0.00  0.00    +0.091 A 
ATOM      5  N   UNL     1       8.863  -2.439  23.875  0.00  0.00    -0.214 NA
ATOM      6  C   UNL     1       7.766  -2.526  23.164  0.00  0.00    +0.203 A 
ATOM      7  N   UNL     1       7.333  -1.274  22.792  0.00  0.00    -0.326 N 
ATOM      8  H   UNL     1       6.510  -1.070  22.247  0.00  0.00    +0.169 HD
ATOM      9  N   UNL     1       7.097  -3.665  22.802  0.00  0.00    -0.221 N 
ATOM     10  H   UNL     1       6.258  -3.636  22.248  0.00  0.00    +0.161 HD
ATOM     11  C   UNL     1       7.549  -4.906  23.167  0.00  0.00    +0.406 C 
ATOM     12  O   UNL     1       8.535  -5.197  23.828  0.00  0.00    -0.226 OA
ATOM     13  C   UNL     1       8.218  -0.345  23.287  0.00  0.00    +0.068 A 
ATOM     14  C   UNL     1       8.284   1.051  23.216  0.00  0.00    +0.042 A 
ENDROOT
BRANCH  11  15
ATOM     15  O   UNL     1       6.697  -5.843  22.657  0.00  0.00    -0.453 OA
ATOM     16  C   UNL     1       6.474  -5.687  21.252  0.00  0.00    +0.282 C 
ENDBRANCH  11  15
BRANCH   1  17
ATOM     17  S   UNL     1       9.486   3.458  23.817  0.00  0.00    -0.125 S 
BRANCH  17  18
ATOM     18  C   UNL     1      11.251   3.664  23.385  0.00  0.00    +0.074 C 
BRANCH  18  20
ATOM     19  C   UNL     1      13.041   5.390  22.961  0.00  0.00    +0.004 C 
ATOM     20  C   UNL     1      11.633   5.139  23.484  0.00  0.00    +0.008 C 
ENDBRANCH  18  20
ENDBRANCH  17  18
ENDBRANCH   1  17
TORSDOF 4
ENDMDL
MODEL 3
REMARK VINA RESULT:      -5.8      1.628      1.988
REMARK  Name = 
REMARK  6 active torsions:
REMARK  status: ('A' for Active; 'I' for Inactive)
REMARK    1  A    between atoms: C_1  and  C_2
REMARK    2  A    between atoms: C_2  and  C_3
REMARK    3  A    between atoms: C_3  and  S_4
REMARK    4  A    between atoms: S_4  and  C_5
REMARK    5  A    between atoms: C_14  and  O_16
REMARK    6  A    between atoms: O_16  and  C_17
REMARK                            x       y       z     vdW  Elec       q    Type
REMARK                         _______ _______ _______ _____ _____    ______ ____
ROOT
ATOM      1  C   UNL     1       9.909   1.477  23.452  0.00  0.00    +0.010 A 
ATOM      2  C   UNL     1      10.100   0.689  22.310  0.00  0.00    +0.017 A 
ATOM      3  C   UNL     1       9.898  -0.697  22.346  0.00  0.00    +0.031 A 
ATOM      4  C   UNL     1       9.505  -1.284  23.554  0.00  0.00    +0.091 A 
ATOM      5  N   UNL     1       9.245  -2.595  23.834  0.00  0.00    -0.214 NA
ATOM      6  C   UNL     1       8.920  -2.644  25.102  0.00  0.00    +0.203 A 
ATOM      7  N   UNL     1       8.971  -1.389  25.662  0.00  0.00    -0.326 N 
ATOM      8  H   UNL     1       8.771  -1.160  26.623  0.00  0.00    +0.169 HD
ATOM      9  N   UNL     1       8.564  -3.751  25.828  0.00  0.00    -0.221 N 
ATOM     10  H   UNL     1       8.326  -3.694  26.803  0.00  0.00    +0.161 HD
ATOM     11  C   UNL     1       8.502  -4.993  25.253  0.00  0.00    +0.406 C 
ATOM     12  O   UNL     1       8.739  -5.314  24.098  0.00  0.00    -0.226 OA
ATOM     13  C   UNL     1       9.337  -0.494  24.684  0.00  0.00    +0.068 A 
ATOM     14  C   UNL     1       9.537   0.892  24.676  0.00  0.00    +0.042 A 
ENDROOT
BRANCH  11  15
ATOM     15  O   UNL     1       8.110  -5.891  26.205  0.00  0.00    -0.453 OA
ATOM     16  C   UNL     1       7.173  -5.340  27.135  0.00  0.00    +0.282 C 
ENDBRANCH  11  15
BRANCH   1  17
ATOM     17  S   UNL     1      10.204   3.240  23.398  0.00  0.00    -0.125 S 
BRANCH  17  18
ATOM     18  C   UNL     1       8.584   3.860  23.977  0.00  0.00    +0.074 C 
BRANCH  18  20
ATOM     19  C   UNL     1       7.043   3.177  22.101  0.00  0.00    +0.004 C 
ATOM     20  C   UNL     1       7.760   4.335  22.782  0.00  0.00    +0.008 C 
ENDBRANCH  18  20
ENDBRANCH  17  18
ENDBRANCH   1  17
TORSDOF 4
ENDMDL
MODEL 4
REMARK VINA RESULT:      -5.8      1.628      1.812
REMARK  Name = 
REMARK  6 active torsions:
REMARK  status: ('A' for Active; 'I' for Inactive)
REMARK    1  A    between atoms: C_1  and  C_2
REMARK    2  A    between atoms: C_2  and  C_3
REMARK    3  A    between atoms: C_3  and  S_4
REMARK    4  A    between atoms: S_4  and  C_5
REMARK    5  A    between atoms: C_14  and  O_16
REMARK    6  A    between atoms: O_16  and  C_17
REMARK                            x       y       z     vdW  Elec       q    Type
REMARK                         _______ _______ _______ _____ _____    ______ ____
ROOT
ATOM      1  C   UNL     1      10.413   2.119  23.231  0.00  0.00    +0.010 A 
ATOM      2  C   UNL     1      10.002   1.662  21.973  0.00  0.00    +0.017 A 
ATOM      3  C   UNL     1       9.467   0.378  21.810  0.00  0.00    +0.031 A 
ATOM      4  C   UNL     1       9.358  -0.449  22.933  0.00  0.00    +0.091 A 
ATOM      5  N   UNL     1       8.871  -1.721  23.026  0.00  0.00    -0.214 NA
ATOM      6  C   UNL     1       8.983  -2.068  24.285  0.00  0.00    +0.203 A 
ATOM      7  N   UNL     1       9.544  -1.048  25.018  0.00  0.00    -0.326 N 
ATOM      8  H   UNL     1       9.740  -1.068  26.006  0.00  0.00    +0.169 HD
ATOM      9  N   UNL     1       8.611  -3.257  24.856  0.00  0.00    -0.221 N 
ATOM     10  H   UNL     1       8.733  -3.435  25.839  0.00  0.00    +0.161 HD
ATOM     11  C   UNL     1       8.039  -4.258  24.117  0.00  0.00    +0.406 C 
ATOM     12  O   UNL     1       7.788  -4.277  22.921  0.00  0.00    -0.226 OA
ATOM     13  C   UNL     1       9.786   0.009  24.172  0.00  0.00    +0.068 A 
ATOM     14  C   UNL     1      10.328   1.286  24.362  0.00  0.00    +0.042 A 
ENDROOT
BRANCH  11  15
ATOM     15  O   UNL     1       7.764  -5.306  24.948  0.00  0.00    -0.453 OA
ATOM     16  C   UNL     1       8.270  -5.113  26.272  0.00  0.00    +0.282 C 
ENDBRANCH  11  15
BRANCH   1  17
ATOM     17  S   UNL     1      11.124   3.750  23.418  0.00  0.00    -0.125 S 
BRANCH  17  18
ATOM     18  C   UNL     1       9.666   4.676  24.018  0.00  0.00    +0.074 C 
BRANCH  18  20
ATOM     19  C   UNL     1       8.377   6.571  22.963  0.00  0.00    +0.004 C 
ATOM     20  C   UNL     1       9.725   6.113  23.503  0.00  0.00    +0.008 C 
ENDBRANCH  18  20
ENDBRANCH  17  18
ENDBRANCH   1  17
TORSDOF 4
ENDMDL
MODEL 5
REMARK VINA RESULT:      -5.8      4.940      6.087
REMARK  Name = 
REMARK  6 active torsions:
REMARK  status: ('A' for Active; 'I' for Inactive)
REMARK    1  A    between atoms: C_1  and  C_2
REMARK    2  A    between atoms: C_2  and  C_3
REMARK    3  A    between atoms: C_3  and  S_4
REMARK    4  A    between atoms: S_4  and  C_5
REMARK    5  A    between atoms: C_14  and  O_16
REMARK    6  A    between atoms: O_16  and  C_17
REMARK                            x       y       z     vdW  Elec       q    Type
REMARK                         _______ _______ _______ _____ _____    ______ ____
ROOT
ATOM      1  C   UNL     1       8.082  -3.074  23.453  0.00  0.00    +0.010 A 
ATOM      2  C   UNL     1       7.123  -2.205  22.917  0.00  0.00    +0.017 A 
ATOM      3  C   UNL     1       5.810  -2.633  22.685  0.00  0.00    +0.031 A 
ATOM      4  C   UNL     1       5.473  -3.955  22.994  0.00  0.00    +0.091 A 
ATOM      5  N   UNL     1       4.273  -4.595  22.864  0.00  0.00    -0.214 NA
ATOM      6  C   UNL     1       4.462  -5.822  23.282  0.00  0.00    +0.203 A 
ATOM      7  N   UNL     1       5.768  -6.001  23.676  0.00  0.00    -0.326 N 
ATOM      8  H   UNL     1       6.167  -6.856  24.031  0.00  0.00    +0.169 HD
ATOM      9  N   UNL     1       3.536  -6.830  23.349  0.00  0.00    -0.221 N 
ATOM     10  H   UNL     1       3.772  -7.747  23.689  0.00  0.00    +0.161 HD
ATOM     11  C   UNL     1       2.235  -6.633  22.967  0.00  0.00    +0.406 C 
ATOM     12  O   UNL     1       1.713  -5.618  22.530  0.00  0.00    -0.226 OA
ATOM     13  C   UNL     1       6.437  -4.812  23.509  0.00  0.00    +0.068 A 
ATOM     14  C   UNL     1       7.758  -4.411  23.746  0.00  0.00    +0.042 A 
ENDROOT
BRANCH  11  15
ATOM     15  O   UNL     1       1.548  -7.797  23.156  0.00  0.00    -0.453 OA
ATOM     16  C   UNL     1       0.975  -8.307  21.948  0.00  0.00    +0.282 C 
ENDBRANCH  11  15
BRANCH   1  17
ATOM     17  S   UNL     1       9.763  -2.521  23.714  0.00  0.00    -0.125 S 
BRANCH  17  18
ATOM     18  C   UNL     1       9.944  -1.353  22.318  0.00  0.00    +0.074 C 
BRANCH  18  20
ATOM     19  C   UNL     1       9.774   1.108  21.795  0.00  0.00    +0.004 C 
ATOM     20  C   UNL     1      10.100   0.067  22.858  0.00  0.00    +0.008 C 
ENDBRANCH  18  20
ENDBRANCH  17  18
ENDBRANCH   1  17
TORSDOF 4
ENDMDL
MODEL 6
REMARK VINA RESULT:      -5.8      2.993      4.117
REMARK  Name = 
REMARK  6 active torsions:
REMARK  status: ('A' for Active; 'I' for Inactive)
REMARK    1  A    between atoms: C_1  and  C_2
REMARK    2  A    between atoms: C_2  and  C_3
REMARK    3  A    between atoms: C_3  and  S_4
REMARK    4  A    between atoms: S_4  and  C_5
REMARK    5  A    between atoms: C_14  and  O_16
REMARK    6  A    between atoms: O_16  and  C_17
REMARK                            x       y       z     vdW  Elec       q    Type
REMARK                         _______ _______ _______ _____ _____    ______ ____
ROOT
ATOM      1  C   UNL     1       9.076  -2.271  23.258  0.00  0.00    +0.010 A 
ATOM      2  C   UNL     1       7.703  -2.298  22.983  0.00  0.00    +0.017 A 
ATOM      3  C   UNL     1       6.822  -3.048  23.772  0.00  0.00    +0.031 A 
ATOM      4  C   UNL     1       7.344  -3.782  24.844  0.00  0.00    +0.091 A 
ATOM      5  N   UNL     1       6.695  -4.574  25.747  0.00  0.00    -0.214 NA
ATOM      6  C   UNL     1       7.614  -5.046  26.552  0.00  0.00    +0.203 A 
ATOM      7  N   UNL     1       8.857  -4.584  26.187  0.00  0.00    -0.326 N 
ATOM      8  H   UNL     1       9.729  -4.806  26.642  0.00  0.00    +0.169 HD
ATOM      9  N   UNL     1       7.433  -5.879  27.624  0.00  0.00    -0.221 N 
ATOM     10  H   UNL     1       8.203  -6.191  28.192  0.00  0.00    +0.161 HD
ATOM     11  C   UNL     1       6.187  -6.319  27.986  0.00  0.00    +0.406 C 
ATOM     12  O   UNL     1       5.109  -6.078  27.461  0.00  0.00    -0.226 OA
ATOM     13  C   UNL     1       8.709  -3.761  25.095  0.00  0.00    +0.068 A 
ATOM     14  C   UNL     1       9.612  -3.023  24.319  0.00  0.00    +0.042 A 
ENDROOT
BRANCH  11  15
ATOM     15  O   UNL     1       6.312  -7.115  29.088  0.00  0.00    -0.453 OA
ATOM     16  C   UNL     1       6.019  -6.425  30.308  0.00  0.00    +0.282 C 
ENDBRANCH  11  15
BRANCH   1  17
ATOM     17  S   UNL     1      10.192  -1.333  22.221  0.00  0.00    -0.125 S 
BRANCH  17  18
ATOM     18  C   UNL     1      10.166   0.278  23.085  0.00  0.00    +0.074 C 
BRANCH  18  20
ATOM     19  C   UNL     1       8.566   1.412  21.499  0.00  0.00    +0.004 C 
ATOM     20  C   UNL     1       9.979   1.401  22.067  0.00  0.00    +0.008 C 
ENDBRANCH  18  20
ENDBRANCH  17  18
ENDBRANCH   1  17
TORSDOF 4
ENDMDL
MODEL 7
REMARK VINA RESULT:      -5.8      4.132      7.811
REMARK  Name = 
REMARK  6 active torsions:
REMARK  status: ('A' for Active; 'I' for Inactive)
REMARK    1  A    between atoms: C_1  and  C_2
REMARK    2  A    between atoms: C_2  and  C_3
REMARK    3  A    between atoms: C_3  and  S_4
REMARK    4  A    between atoms: S_4  and  C_5
REMARK    5  A    between atoms: C_14  and  O_16
REMARK    6  A    between atoms: O_16  and  C_17
REMARK                            x       y       z     vdW  Elec       q    Type
REMARK                         _______ _______ _______ _____ _____    ______ ____
ROOT
ATOM      1  C   UNL     1       7.285  -4.789  22.882  0.00  0.00    +0.010 A 
ATOM      2  C   UNL     1       8.161  -5.029  23.947  0.00  0.00    +0.017 A 
ATOM      3  C   UNL     1       9.000  -4.018  24.434  0.00  0.00    +0.031 A 
ATOM      4  C   UNL     1       8.950  -2.758  23.828  0.00  0.00    +0.091 A 
ATOM      5  N   UNL     1       9.656  -1.627  24.125  0.00  0.00    -0.214 NA
ATOM      6  C   UNL     1       9.261  -0.711  23.276  0.00  0.00    +0.203 A 
ATOM      7  N   UNL     1       8.313  -1.224  22.420  0.00  0.00    -0.326 N 
ATOM      8  H   UNL     1       7.857  -0.724  21.674  0.00  0.00    +0.169 HD
ATOM      9  N   UNL     1       9.684   0.589  23.198  0.00  0.00    -0.221 N 
ATOM     10  H   UNL     1       9.320   1.227  22.510  0.00  0.00    +0.161 HD
ATOM     11  C   UNL     1      10.617   1.091  24.066  0.00  0.00    +0.406 C 
ATOM     12  O   UNL     1      11.196   0.521  24.979  0.00  0.00    -0.226 OA
ATOM     13  C   UNL     1       8.090  -2.538  22.761  0.00  0.00    +0.068 A 
ATOM     14  C   UNL     1       7.244  -3.531  22.252  0.00  0.00    +0.042 A 
ENDROOT
BRANCH  11  15
ATOM     15  O   UNL     1      10.829   2.405  23.761  0.00  0.00    -0.453 OA
ATOM     16  C   UNL     1       9.651   3.205  23.896  0.00  0.00    +0.282 C 
ENDBRANCH  11  15
BRANCH   1  17
ATOM     17  S   UNL     1       6.244  -6.099  22.249  0.00  0.00    -0.125 S 
BRANCH  17  18
ATOM     18  C   UNL     1       4.629  -5.600  22.948  0.00  0.00    +0.074 C 
BRANCH  18  20
ATOM     19  C   UNL     1       5.015  -6.371  25.318  0.00  0.00    +0.004 C 
ATOM     20  C   UNL     1       4.217  -6.586  24.040  0.00  0.00    +0.008 C 
ENDBRANCH  18  20
ENDBRANCH  17  18
ENDBRANCH   1  17
TORSDOF 4
ENDMDL
MODEL 8
REMARK VINA RESULT:      -5.7      4.526      8.363
REMARK  Name = 
REMARK  6 active torsions:
REMARK  status: ('A' for Active; 'I' for Inactive)
REMARK    1  A    between atoms: C_1  and  C_2
REMARK    2  A    between atoms: C_2  and  C_3
REMARK    3  A    between atoms: C_3  and  S_4
REMARK    4  A    between atoms: S_4  and  C_5
REMARK    5  A    between atoms: C_14  and  O_16
REMARK    6  A    between atoms: O_16  and  C_17
REMARK                            x       y       z     vdW  Elec       q    Type
REMARK                         _______ _______ _______ _____ _____    ______ ____
ROOT
ATOM      1  C   UNL     1       4.627  -5.276  23.007  0.00  0.00    +0.010 A 
ATOM      2  C   UNL     1       5.793  -6.009  22.753  0.00  0.00    +0.017 A 
ATOM      3  C   UNL     1       7.019  -5.365  22.542  0.00  0.00    +0.031 A 
ATOM      4  C   UNL     1       7.057  -3.967  22.583  0.00  0.00    +0.091 A 
ATOM      5  N   UNL     1       8.119  -3.125  22.415  0.00  0.00    -0.214 NA
ATOM      6  C   UNL     1       7.648  -1.909  22.539  0.00  0.00    +0.203 A 
ATOM      7  N   UNL     1       6.294  -1.937  22.776  0.00  0.00    -0.326 N 
ATOM      8  H   UNL     1       5.697  -1.135  22.902  0.00  0.00    +0.169 HD
ATOM      9  N   UNL     1       8.349  -0.734  22.460  0.00  0.00    -0.221 N 
ATOM     10  H   UNL     1       7.902   0.161  22.571  0.00  0.00    +0.161 HD
ATOM     11  C   UNL     1       9.701  -0.720  22.239  0.00  0.00    +0.406 C 
ATOM     12  O   UNL     1      10.458  -1.666  22.077  0.00  0.00    -0.226 OA
ATOM     13  C   UNL     1       5.890  -3.251  22.817  0.00  0.00    +0.068 A 
ATOM     14  C   UNL     1       4.651  -3.869  23.027  0.00  0.00    +0.042 A 
ENDROOT
BRANCH  11  15
ATOM     15  O   UNL     1      10.124   0.578  22.225  0.00  0.00    -0.453 OA
ATOM     16  C   UNL     1       9.113   1.487  21.780  0.00  0.00    +0.282 C 
ENDBRANCH  11  15
BRANCH   1  17
ATOM     17  S   UNL     1       3.063  -6.111  23.242  0.00  0.00    -0.125 S 
BRANCH  17  18
ATOM     18  C   UNL     1       3.517  -7.289  24.565  0.00  0.00    +0.074 C 
BRANCH  18  20
ATOM     19  C   UNL     1       5.062  -6.588  26.431  0.00  0.00    +0.004 C 
ATOM     20  C   UNL     1       3.638  -6.544  25.894  0.00  0.00    +0.008 C 
ENDBRANCH  18  20
ENDBRANCH  17  18
ENDBRANCH   1  17
TORSDOF 4
ENDMDL
MODEL 9
REMARK VINA RESULT:      -5.7      4.697      7.798
REMARK  Name = 
REMARK  6 active torsions:
REMARK  status: ('A' for Active; 'I' for Inactive)
REMARK    1  A    between atoms: C_1  and  C_2
REMARK    2  A    between atoms: C_2  and  C_3
REMARK    3  A    between atoms: C_3  and  S_4
REMARK    4  A    between atoms: S_4  and  C_5
REMARK    5  A    between atoms: C_14  and  O_16
REMARK    6  A    between atoms: O_16  and  C_17
REMARK                            x       y       z     vdW  Elec       q    Type
REMARK                         _______ _______ _______ _____ _____    ______ ____
ROOT
ATOM      1  C   UNL     1       7.846  -1.643  22.551  0.00  0.00    +0.010 A 
ATOM      2  C   UNL     1       9.219  -1.829  22.353  0.00  0.00    +0.017 A 
ATOM      3  C   UNL     1      10.118  -0.762  22.472  0.00  0.00    +0.031 A 
ATOM      4  C   UNL     1       9.615   0.505  22.789  0.00  0.00    +0.091 A 
ATOM      5  N   UNL     1      10.283   1.682  22.962  0.00  0.00    -0.214 NA
ATOM      6  C   UNL     1       9.375   2.585  23.241  0.00  0.00    +0.203 A 
ATOM      7  N   UNL     1       8.121   2.020  23.245  0.00  0.00    -0.326 N 
ATOM      8  H   UNL     1       7.255   2.504  23.426  0.00  0.00    +0.169 HD
ATOM      9  N   UNL     1       9.577   3.914  23.506  0.00  0.00    -0.221 N 
ATOM     10  H   UNL     1       8.815   4.536  23.715  0.00  0.00    +0.161 HD
ATOM     11  C   UNL     1      10.834   4.459  23.514  0.00  0.00    +0.406 C 
ATOM     12  O   UNL     1      11.905   3.912  23.297  0.00  0.00    -0.226 OA
ATOM     13  C   UNL     1       8.249   0.680  22.965  0.00  0.00    +0.068 A 
ATOM     14  C   UNL     1       7.328  -0.368  22.847  0.00  0.00    +0.042 A 
ENDROOT
BRANCH  11  15
ATOM     15  O   UNL     1      10.728   5.785  23.821  0.00  0.00    -0.453 OA
ATOM     16  C   UNL     1       9.461   6.341  23.457  0.00  0.00    +0.282 C 
ENDBRANCH  11  15
BRANCH   1  17
ATOM     17  S   UNL     1       6.707  -3.009  22.363  0.00  0.00    -0.125 S 
BRANCH  17  18
ATOM     18  C   UNL     1       7.594  -4.306  23.300  0.00  0.00    +0.074 C 
BRANCH  18  20
ATOM     19  C   UNL     1       6.461  -5.596  21.452  0.00  0.00    +0.004 C 
ATOM     20  C   UNL     1       7.539  -5.623  22.527  0.00  0.00    +0.008 C 
ENDBRANCH  18  20
ENDBRANCH  17  18
ENDBRANCH   1  17
TORSDOF 4
ENDMDL
