MODEL 1
REMARK VINA RESULT:      -7.1      0.000      0.000
REMARK  Name = 
REMARK  10 active torsions:
REMARK  status: ('A' for Active; 'I' for Inactive)
REMARK    1  A    between atoms: N_8  and  C_9
REMARK    2  A    between atoms: C_12  and  O_14
REMARK    3  A    between atoms: C_15  and  C_17
REMARK    4  A    between atoms: C_17  and  O_18
REMARK    5  A    between atoms: O_18  and  P_19
REMARK    6  A    between atoms: P_19  and  O_20
REMARK    7  A    between atoms: P_19  and  O_22
REMARK    8  A    between atoms: O_22  and  P_23
REMARK    9  A    between atoms: P_23  and  O_24
REMARK   10  A    between atoms: P_23  and  O_25
REMARK                            x       y       z     vdW  Elec       q    Type
REMARK                         _______ _______ _______ _____ _____    ______ ____
ROOT
ATOM      1  C   UNL     1       7.247  -2.986  23.156  0.00  0.00    +0.225 C 
ATOM      2  O   UNL     1       7.746  -4.197  23.759  0.00  0.00    -0.348 OA
ATOM      3  C   UNL     1       6.841  -5.256  23.373  0.00  0.00    +0.175 C 
ATOM      4  C   UNL     1       5.905  -4.667  22.301  0.00  0.00    +0.150 C 
ATOM      5  C   UNL     1       6.672  -3.445  21.836  0.00  0.00    +0.088 C 
ENDROOT
BRANCH   1  17
ATOM      6  N   UNL     1       8.484  -0.308  27.474  0.00  0.00    -0.329 N 
ATOM      7  H   UNL     1       9.197  -0.147  28.171  0.00  0.00    +0.145 HD
ATOM      8  H   UNL     1       7.811  -1.017  27.746  0.00  0.00    +0.145 HD
ATOM      9  C   UNL     1       8.882  -0.435  26.185  0.00  0.00    +0.195 A 
ATOM     10  N   UNL     1       9.992   0.298  25.813  0.00  0.00    -0.293 N 
ATOM     11  H   UNL     1      10.441   0.910  26.473  0.00  0.00    +0.172 HD
ATOM     12  C   UNL     1      10.544   0.300  24.539  0.00  0.00    +0.280 A 
ATOM     13  O   UNL     1      11.527   0.983  24.261  0.00  0.00    -0.265 OA
ATOM     14  C   UNL     1       9.825  -0.561  23.628  0.00  0.00    +0.172 A 
ATOM     15  N   UNL     1      10.042  -0.850  22.305  0.00  0.00    -0.229 NA
ATOM     16  C   UNL     1       9.108  -1.733  22.007  0.00  0.00    +0.203 A 
ATOM     17  N   UNL     1       8.298  -2.006  23.079  0.00  0.00    -0.288 N 
ATOM     18  C   UNL     1       8.742  -1.248  24.124  0.00  0.00    +0.171 A 
ATOM     19  N   UNL     1       8.226  -1.223  25.377  0.00  0.00    -0.196 NA
ENDBRANCH   1  17
BRANCH   4  20
ATOM     20  O   UNL     1       5.621  -5.539  21.221  0.00  0.00    -0.389 OA
ATOM     21  H   UNL     1       5.970  -5.153  20.399  0.00  0.00    +0.210 HD
ENDBRANCH   4  20
BRANCH   3  22
ATOM     22  C   UNL     1       6.116  -5.713  24.634  0.00  0.00    +0.206 C 
BRANCH  22  23
ATOM     23  O   UNL     1       6.049  -4.669  25.582  0.00  0.00    -0.284 OA
BRANCH  23  24
ATOM     24  P   UNL     1       6.659  -4.944  27.073  0.00  0.00    +0.483 P 
ATOM     25  O   UNL     1       7.970  -5.719  26.950  0.00  0.00    -0.227 OA
BRANCH  24  26
ATOM     26  O   UNL     1       7.584  -3.491  26.906  0.00  0.00    -0.302 OA
ATOM     27  H   UNL     1       8.510  -3.806  26.913  0.00  0.00    +0.222 HD
ENDBRANCH  24  26
BRANCH  24  28
ATOM     28  O   UNL     1       5.734  -6.396  27.241  0.00  0.00    -0.186 OA
BRANCH  28  29
ATOM     29  P   UNL     1       5.274  -6.599  28.896  0.00  0.00    +0.481 P 
ATOM     30  O   UNL     1       4.862  -6.781  30.377  0.00  0.00    -0.227 OA
BRANCH  29  31
ATOM     31  O   UNL     1       6.028  -5.166  29.148  0.00  0.00    -0.302 OA
ATOM     32  H   UNL     1       5.732  -4.472  28.532  0.00  0.00    +0.222 HD
ENDBRANCH  29  31
BRANCH  29  33
ATOM     33  O   UNL     1       6.639  -7.482  29.067  0.00  0.00    -0.302 OA
ATOM     34  H   UNL     1       7.379  -6.845  29.048  0.00  0.00    +0.222 HD
ENDBRANCH  29  33
ENDBRANCH  28  29
ENDBRANCH  24  28
ENDBRANCH  23  24
ENDBRANCH  22  23
ENDBRANCH   3  22
TORSDOF 10
ENDMDL
MODEL 2
REMARK VINA RESULT:      -6.7      4.424      8.071
REMARK  Name = 
REMARK  10 active torsions:
REMARK  status: ('A' for Active; 'I' for Inactive)
REMARK    1  A    between atoms: N_8  and  C_9
REMARK    2  A    between atoms: C_12  and  O_14
REMARK    3  A    between atoms: C_15  and  C_17
REMARK    4  A    between atoms: C_17  and  O_18
REMARK    5  A    between atoms: O_18  and  P_19
REMARK    6  A    between atoms: P_19  and  O_20
REMARK    7  A    between atoms: P_19  and  O_22
REMARK    8  A    between atoms: O_22  and  P_23
REMARK    9  A    between atoms: P_23  and  O_24
REMARK   10  A    between atoms: P_23  and  O_25
REMARK                            x       y       z     vdW  Elec       q    Type
REMARK                         _______ _______ _______ _____ _____    ______ ____
ROOT
ATOM      1  C   UNL     1       7.370  -2.371  23.381  0.00  0.00    +0.225 C 
ATOM      2  O   UNL     1       6.719  -1.096  23.210  0.00  0.00    -0.348 OA
ATOM      3  C   UNL     1       7.714  -0.190  22.681  0.00  0.00    +0.175 C 
ATOM      4  C   UNL     1       8.937  -1.048  22.309  0.00  0.00    +0.150 C 
ATOM      5  C   UNL     1       8.345  -2.442  22.229  0.00  0.00    +0.088 C 
ENDROOT
BRANCH   1  17
ATOM      6  N   UNL     1       7.684  -5.871  27.255  0.00  0.00    -0.329 N 
ATOM      7  H   UNL     1       7.239  -6.220  28.091  0.00  0.00    +0.145 HD
ATOM      8  H   UNL     1       8.382  -5.158  27.440  0.00  0.00    +0.145 HD
ATOM      9  C   UNL     1       6.889  -5.560  26.203  0.00  0.00    +0.195 A 
ATOM     10  N   UNL     1       5.747  -6.322  26.054  0.00  0.00    -0.293 N 
ATOM     11  H   UNL     1       5.556  -7.080  26.685  0.00  0.00    +0.172 HD
ATOM     12  C   UNL     1       4.815  -6.155  25.037  0.00  0.00    +0.280 A 
ATOM     13  O   UNL     1       3.821  -6.872  24.947  0.00  0.00    -0.265 OA
ATOM     14  C   UNL     1       5.172  -5.082  24.136  0.00  0.00    +0.172 A 
ATOM     15  N   UNL     1       4.531  -4.588  23.029  0.00  0.00    -0.229 NA
ATOM     16  C   UNL     1       5.287  -3.580  22.638  0.00  0.00    +0.203 A 
ATOM     17  N   UNL     1       6.387  -3.421  23.441  0.00  0.00    -0.288 N 
ATOM     18  C   UNL     1       6.330  -4.389  24.401  0.00  0.00    +0.171 A 
ATOM     19  N   UNL     1       7.221  -4.583  25.404  0.00  0.00    -0.196 NA
ENDBRANCH   1  17
BRANCH   4  20
ATOM     20  O   UNL     1       9.565  -0.685  21.091  0.00  0.00    -0.389 OA
ATOM     21  H   UNL     1      10.130   0.093  21.244  0.00  0.00    +0.210 HD
ENDBRANCH   4  20
BRANCH   3  22
ATOM     22  C   UNL     1       7.999   0.848  23.760  0.00  0.00    +0.206 C 
BRANCH  22  23
ATOM     23  O   UNL     1       9.337   1.293  23.689  0.00  0.00    -0.284 OA
BRANCH  23  24
ATOM     24  P   UNL     1       9.614   2.822  23.184  0.00  0.00    +0.483 P 
ATOM     25  O   UNL     1      11.063   3.202  23.486  0.00  0.00    -0.227 OA
BRANCH  24  26
ATOM     26  O   UNL     1      10.173   2.170  21.681  0.00  0.00    -0.302 OA
ATOM     27  H   UNL     1      10.220   2.951  21.094  0.00  0.00    +0.222 HD
ENDBRANCH  24  26
BRANCH  24  28
ATOM     28  O   UNL     1       9.055   3.475  24.685  0.00  0.00    -0.186 OA
BRANCH  28  29
ATOM     29  P   UNL     1       8.344   5.028  24.410  0.00  0.00    +0.481 P 
ATOM     30  O   UNL     1       7.708   6.418  24.163  0.00  0.00    -0.227 OA
BRANCH  29  31
ATOM     31  O   UNL     1       8.578   4.711  22.819  0.00  0.00    -0.302 OA
ATOM     32  H   UNL     1       9.179   3.959  22.670  0.00  0.00    +0.222 HD
ENDBRANCH  29  31
BRANCH  29  33
ATOM     33  O   UNL     1       9.842   5.645  24.628  0.00  0.00    -0.302 OA
ATOM     34  H   UNL     1      10.463   4.993  24.251  0.00  0.00    +0.222 HD
ENDBRANCH  29  33
ENDBRANCH  28  29
ENDBRANCH  24  28
ENDBRANCH  23  24
ENDBRANCH  22  23
ENDBRANCH   3  22
TORSDOF 10
ENDMDL
MODEL 3
REMARK VINA RESULT:      -6.7      1.048      2.179
REMARK  Name = 
REMARK  10 active torsions:
REMARK  status: ('A' for Active; 'I' for Inactive)
REMARK    1  A    between atoms: N_8  and  C_9
REMARK    2  A    between atoms: C_12  and  O_14
REMARK    3  A    between atoms: C_15  and  C_17
REMARK    4  A    between atoms: C_17  and  O_18
REMARK    5  A    between atoms: O_18  and  P_19
REMARK    6  A    between atoms: P_19  and  O_20
REMARK    7  A    between atoms: P_19  and  O_22
REMARK    8  A    between atoms: O_22  and  P_23
REMARK    9  A    between atoms: P_23  and  O_24
REMARK   10  A    between atoms: P_23  and  O_25
REMARK                            x       y       z     vdW  Elec       q    Type
REMARK                         _______ _______ _______ _____ _____    ______ ____
ROOT
ATOM      1  C   UNL     1       7.219  -2.927  23.110  0.00  0.00    +0.225 C 
ATOM      2  O   UNL     1       7.752  -4.118  23.724  0.00  0.00    -0.348 OA
ATOM      3  C   UNL     1       6.871  -5.204  23.357  0.00  0.00    +0.175 C 
ATOM      4  C   UNL     1       5.914  -4.652  22.285  0.00  0.00    +0.150 C 
ATOM      5  C   UNL     1       6.647  -3.417  21.800  0.00  0.00    +0.088 C 
ENDROOT
BRANCH   1  17
ATOM      6  N   UNL     1       8.452  -0.199  27.398  0.00  0.00    -0.329 N 
ATOM      7  H   UNL     1       9.171  -0.018  28.084  0.00  0.00    +0.145 HD
ATOM      8  H   UNL     1       7.801  -0.924  27.682  0.00  0.00    +0.145 HD
ATOM      9  C   UNL     1       8.834  -0.323  26.104  0.00  0.00    +0.195 A 
ATOM     10  N   UNL     1       9.920   0.436  25.713  0.00  0.00    -0.293 N 
ATOM     11  H   UNL     1      10.364   1.061  26.363  0.00  0.00    +0.172 HD
ATOM     12  C   UNL     1      10.454   0.445  24.431  0.00  0.00    +0.280 A 
ATOM     13  O   UNL     1      11.416   1.151  24.135  0.00  0.00    -0.265 OA
ATOM     14  C   UNL     1       9.742  -0.437  23.533  0.00  0.00    +0.172 A 
ATOM     15  N   UNL     1       9.948  -0.727  22.209  0.00  0.00    -0.229 NA
ATOM     16  C   UNL     1       9.031  -1.634  21.928  0.00  0.00    +0.203 A 
ATOM     17  N   UNL     1       8.244  -1.922  23.013  0.00  0.00    -0.288 N 
ATOM     18  C   UNL     1       8.684  -1.149  24.049  0.00  0.00    +0.171 A 
ATOM     19  N   UNL     1       8.187  -1.130  25.309  0.00  0.00    -0.196 NA
ENDBRANCH   1  17
BRANCH   4  20
ATOM     20  O   UNL     1       5.644  -5.544  21.218  0.00  0.00    -0.389 OA
ATOM     21  H   UNL     1       5.214  -6.343  21.571  0.00  0.00    +0.210 HD
ENDBRANCH   4  20
BRANCH   3  22
ATOM     22  C   UNL     1       6.167  -5.663  24.630  0.00  0.00    +0.206 C 
BRANCH  22  23
ATOM     23  O   UNL     1       7.031  -5.570  25.743  0.00  0.00    -0.284 OA
BRANCH  23  24
ATOM     24  P   UNL     1       6.363  -5.325  27.215  0.00  0.00    +0.483 P 
ATOM     25  O   UNL     1       5.421  -6.483  27.543  0.00  0.00    -0.227 OA
BRANCH  24  26
ATOM     26  O   UNL     1       7.644  -6.268  27.896  0.00  0.00    -0.302 OA
ATOM     27  H   UNL     1       7.401  -6.339  28.840  0.00  0.00    +0.222 HD
ENDBRANCH  24  26
BRANCH  24  28
ATOM     28  O   UNL     1       5.082  -4.382  26.535  0.00  0.00    -0.186 OA
BRANCH  28  29
ATOM     29  P   UNL     1       5.252  -2.734  27.033  0.00  0.00    +0.481 P 
ATOM     30  O   UNL     1       5.404  -1.259  27.480  0.00  0.00    -0.227 OA
BRANCH  29  31
ATOM     31  O   UNL     1       5.127  -2.373  25.440  0.00  0.00    -0.302 OA
ATOM     32  H   UNL     1       4.516  -2.965  24.967  0.00  0.00    +0.222 HD
ENDBRANCH  29  31
BRANCH  29  33
ATOM     33  O   UNL     1       6.866  -2.982  26.971  0.00  0.00    -0.302 OA
ATOM     34  H   UNL     1       7.239  -2.228  26.476  0.00  0.00    +0.222 HD
ENDBRANCH  29  33
ENDBRANCH  28  29
ENDBRANCH  24  28
ENDBRANCH  23  24
ENDBRANCH  22  23
ENDBRANCH   3  22
TORSDOF 10
ENDMDL
MODEL 4
REMARK VINA RESULT:      -6.7      3.763      5.024
REMARK  Name = 
REMARK  10 active torsions:
REMARK  status: ('A' for Active; 'I' for Inactive)
REMARK    1  A    between atoms: N_8  and  C_9
REMARK    2  A    between atoms: C_12  and  O_14
REMARK    3  A    between atoms: C_15  and  C_17
REMARK    4  A    between atoms: C_17  and  O_18
REMARK    5  A    between atoms: O_18  and  P_19
REMARK    6  A    between atoms: P_19  and  O_20
REMARK    7  A    between atoms: P_19  and  O_22
REMARK    8  A    between atoms: O_22  and  P_23
REMARK    9  A    between atoms: P_23  and  O_24
REMARK   10  A    between atoms: P_23  and  O_25
REMARK                            x       y       z     vdW  Elec       q    Type
REMARK                         _______ _______ _______ _____ _____    ______ ____
ROOT
ATOM      1  C   UNL     1       9.078   1.146  23.364  0.00  0.00    +0.225 C 
ATOM      2  O   UNL     1       9.605   0.585  24.583  0.00  0.00    -0.348 OA
ATOM      3  C   UNL     1       9.853  -0.814  24.323  0.00  0.00    +0.175 C 
ATOM      4  C   UNL     1       9.679  -1.018  22.807  0.00  0.00    +0.150 C 
ATOM      5  C   UNL     1       9.804   0.395  22.272  0.00  0.00    +0.088 C 
ENDROOT
BRANCH   1  17
ATOM      6  N   UNL     1       4.949   4.154  22.242  0.00  0.00    -0.329 N 
ATOM      7  H   UNL     1       4.294   4.828  22.610  0.00  0.00    +0.145 HD
ATOM      8  H   UNL     1       4.614   3.197  22.300  0.00  0.00    +0.145 HD
ATOM      9  C   UNL     1       6.247   4.273  22.610  0.00  0.00    +0.195 A 
ATOM     10  N   UNL     1       6.703   5.558  22.833  0.00  0.00    -0.293 N 
ATOM     11  H   UNL     1       6.094   6.345  22.692  0.00  0.00    +0.172 HD
ATOM     12  C   UNL     1       8.000   5.879  23.212  0.00  0.00    +0.280 A 
ATOM     13  O   UNL     1       8.354   7.043  23.385  0.00  0.00    -0.265 OA
ATOM     14  C   UNL     1       8.837   4.709  23.351  0.00  0.00    +0.172 A 
ATOM     15  N   UNL     1      10.154   4.584  23.714  0.00  0.00    -0.229 NA
ATOM     16  C   UNL     1      10.368   3.282  23.722  0.00  0.00    +0.203 A 
ATOM     17  N   UNL     1       9.248   2.576  23.366  0.00  0.00    -0.288 N 
ATOM     18  C   UNL     1       8.260   3.483  23.113  0.00  0.00    +0.171 A 
ATOM     19  N   UNL     1       6.988   3.206  22.740  0.00  0.00    -0.196 NA
ENDBRANCH   1  17
BRANCH   4  20
ATOM     20  O   UNL     1      10.635  -1.880  22.213  0.00  0.00    -0.389 OA
ATOM     21  H   UNL     1      10.171  -2.559  21.692  0.00  0.00    +0.210 HD
ENDBRANCH   4  20
BRANCH   3  22
ATOM     22  C   UNL     1       8.863  -1.612  25.166  0.00  0.00    +0.206 C 
BRANCH  22  23
ATOM     23  O   UNL     1       8.361  -2.715  24.441  0.00  0.00    -0.284 OA
BRANCH  23  24
ATOM     24  P   UNL     1       8.582  -4.210  25.064  0.00  0.00    +0.483 P 
ATOM     25  O   UNL     1       8.217  -5.256  24.011  0.00  0.00    -0.227 OA
BRANCH  24  26
ATOM     26  O   UNL     1      10.178  -4.196  24.394  0.00  0.00    -0.302 OA
ATOM     27  H   UNL     1      10.132  -3.505  23.704  0.00  0.00    +0.222 HD
ENDBRANCH  24  26
BRANCH  24  28
ATOM     28  O   UNL     1       6.987  -4.224  25.734  0.00  0.00    -0.186 OA
BRANCH  28  29
ATOM     29  P   UNL     1       6.967  -5.211  27.154  0.00  0.00    +0.481 P 
ATOM     30  O   UNL     1       6.948  -6.095  28.425  0.00  0.00    -0.227 OA
BRANCH  29  31
ATOM     31  O   UNL     1       8.443  -5.725  26.663  0.00  0.00    -0.302 OA
ATOM     32  H   UNL     1       8.403  -6.269  25.857  0.00  0.00    +0.222 HD
ENDBRANCH  29  31
BRANCH  29  33
ATOM     33  O   UNL     1       6.156  -6.313  26.260  0.00  0.00    -0.302 OA
ATOM     34  H   UNL     1       5.489  -6.709  26.854  0.00  0.00    +0.222 HD
ENDBRANCH  29  33
ENDBRANCH  28  29
ENDBRANCH  24  28
ENDBRANCH  23  24
ENDBRANCH  22  23
ENDBRANCH   3  22
TORSDOF 10
ENDMDL
MODEL 5
REMARK VINA RESULT:      -6.6      2.317      4.699
REMARK  Name = 
REMARK  10 active torsions:
REMARK  status: ('A' for Active; 'I' for Inactive)
REMARK    1  A    between atoms: N_8  and  C_9
REMARK    2  A    between atoms: C_12  and  O_14
REMARK    3  A    between atoms: C_15  and  C_17
REMARK    4  A    between atoms: C_17  and  O_18
REMARK    5  A    between atoms: O_18  and  P_19
REMARK    6  A    between atoms: P_19  and  O_20
REMARK    7  A    between atoms: P_19  and  O_22
REMARK    8  A    between atoms: O_22  and  P_23
REMARK    9  A    between atoms: P_23  and  O_24
REMARK   10  A    between atoms: P_23  and  O_25
REMARK                            x       y       z     vdW  Elec       q    Type
REMARK                         _______ _______ _______ _____ _____    ______ ____
ROOT
ATOM      1  C   UNL     1       7.832  -3.090  25.985  0.00  0.00    +0.225 C 
ATOM      2  O   UNL     1       6.671  -2.903  26.819  0.00  0.00    -0.348 OA
ATOM      3  C   UNL     1       6.262  -4.217  27.261  0.00  0.00    +0.175 C 
ATOM      4  C   UNL     1       7.384  -5.189  26.850  0.00  0.00    +0.150 C 
ATOM      5  C   UNL     1       8.556  -4.255  26.620  0.00  0.00    +0.088 C 
ENDROOT
BRANCH   1  17
ATOM      6  N   UNL     1       9.575  -1.565  21.295  0.00  0.00    -0.329 N 
ATOM      7  H   UNL     1       9.488  -0.872  20.567  0.00  0.00    +0.145 HD
ATOM      8  H   UNL     1       8.990  -2.380  21.146  0.00  0.00    +0.145 HD
ATOM      9  C   UNL     1       9.547  -1.135  22.580  0.00  0.00    +0.195 A 
ATOM     10  N   UNL     1      10.080   0.118  22.816  0.00  0.00    -0.293 N 
ATOM     11  H   UNL     1      10.488   0.646  22.064  0.00  0.00    +0.172 HD
ATOM     12  C   UNL     1      10.143   0.725  24.063  0.00  0.00    +0.280 A 
ATOM     13  O   UNL     1      10.641   1.838  24.216  0.00  0.00    -0.265 OA
ATOM     14  C   UNL     1       9.585  -0.105  25.107  0.00  0.00    +0.172 A 
ATOM     15  N   UNL     1       9.442   0.118  26.452  0.00  0.00    -0.229 NA
ATOM     16  C   UNL     1       8.821  -0.958  26.897  0.00  0.00    +0.203 A 
ATOM     17  N   UNL     1       8.575  -1.860  25.894  0.00  0.00    -0.288 N 
ATOM     18  C   UNL     1       9.073  -1.328  24.740  0.00  0.00    +0.171 A 
ATOM     19  N   UNL     1       9.031  -1.892  23.509  0.00  0.00    -0.196 NA
ENDBRANCH   1  17
BRANCH   4  20
ATOM     20  O   UNL     1       7.695  -6.176  27.818  0.00  0.00    -0.389 OA
ATOM     21  H   UNL     1       7.130  -6.045  28.600  0.00  0.00    +0.210 HD
ENDBRANCH   4  20
BRANCH   3  22
ATOM     22  C   UNL     1       4.920  -4.518  26.603  0.00  0.00    +0.206 C 
BRANCH  22  23
ATOM     23  O   UNL     1       4.913  -5.815  26.046  0.00  0.00    -0.284 OA
BRANCH  23  24
ATOM     24  P   UNL     1       4.361  -5.993  24.518  0.00  0.00    +0.483 P 
ATOM     25  O   UNL     1       4.360  -7.477  24.149  0.00  0.00    -0.227 OA
BRANCH  24  26
ATOM     26  O   UNL     1       2.776  -6.229  25.173  0.00  0.00    -0.302 OA
ATOM     27  H   UNL     1       2.183  -5.976  24.438  0.00  0.00    +0.222 HD
ENDBRANCH  24  26
BRANCH  24  28
ATOM     28  O   UNL     1       5.945  -5.758  23.863  0.00  0.00    -0.186 OA
BRANCH  28  29
ATOM     29  P   UNL     1       5.823  -4.957  22.334  0.00  0.00    +0.481 P 
ATOM     30  O   UNL     1       5.714  -4.240  20.966  0.00  0.00    -0.227 OA
BRANCH  29  31
ATOM     31  O   UNL     1       4.217  -4.874  22.650  0.00  0.00    -0.302 OA
ATOM     32  H   UNL     1       3.712  -5.587  22.220  0.00  0.00    +0.222 HD
ENDBRANCH  29  31
BRANCH  29  33
ATOM     33  O   UNL     1       5.735  -6.448  21.669  0.00  0.00    -0.302 OA
ATOM     34  H   UNL     1       5.682  -6.312  20.703  0.00  0.00    +0.222 HD
ENDBRANCH  29  33
ENDBRANCH  28  29
ENDBRANCH  24  28
ENDBRANCH  23  24
ENDBRANCH  22  23
ENDBRANCH   3  22
TORSDOF 10
ENDMDL
MODEL 6
REMARK VINA RESULT:      -6.6      3.163      4.503
REMARK  Name = 
REMARK  10 active torsions:
REMARK  status: ('A' for Active; 'I' for Inactive)
REMARK    1  A    between atoms: N_8  and  C_9
REMARK    2  A    between atoms: C_12  and  O_14
REMARK    3  A    between atoms: C_15  and  C_17
REMARK    4  A    between atoms: C_17  and  O_18
REMARK    5  A    between atoms: O_18  and  P_19
REMARK    6  A    between atoms: P_19  and  O_20
REMARK    7  A    between atoms: P_19  and  O_22
REMARK    8  A    between atoms: O_22  and  P_23
REMARK    9  A    between atoms: P_23  and  O_24
REMARK   10  A    between atoms: P_23  and  O_25
REMARK                            x       y       z     vdW  Elec       q    Type
REMARK                         _______ _______ _______ _____ _____    ______ ____
ROOT
ATOM      1  C   UNL     1       8.877  -1.743  24.393  0.00  0.00    +0.225 C 
ATOM      2  O   UNL     1       8.513  -1.991  25.766  0.00  0.00    -0.348 OA
ATOM      3  C   UNL     1       8.502  -3.426  25.940  0.00  0.00    +0.175 C 
ATOM      4  C   UNL     1       9.119  -4.028  24.664  0.00  0.00    +0.150 C 
ATOM      5  C   UNL     1       9.858  -2.845  24.070  0.00  0.00    +0.088 C 
ENDROOT
BRANCH   1  17
ATOM      6  N   UNL     1       5.541   1.994  22.889  0.00  0.00    -0.329 N 
ATOM      7  H   UNL     1       5.060   2.835  23.173  0.00  0.00    +0.145 HD
ATOM      8  H   UNL     1       4.996   1.151  23.040  0.00  0.00    +0.145 HD
ATOM      9  C   UNL     1       6.834   1.852  23.267  0.00  0.00    +0.195 A 
ATOM     10  N   UNL     1       7.574   3.014  23.365  0.00  0.00    -0.293 N 
ATOM     11  H   UNL     1       7.161   3.900  23.132  0.00  0.00    +0.172 HD
ATOM     12  C   UNL     1       8.912   3.069  23.733  0.00  0.00    +0.280 A 
ATOM     13  O   UNL     1       9.524   4.133  23.791  0.00  0.00    -0.265 OA
ATOM     14  C   UNL     1       9.459   1.759  24.008  0.00  0.00    +0.172 A 
ATOM     15  N   UNL     1      10.714   1.376  24.407  0.00  0.00    -0.229 NA
ATOM     16  C   UNL     1      10.624   0.067  24.552  0.00  0.00    +0.203 A 
ATOM     17  N   UNL     1       9.370  -0.398  24.251  0.00  0.00    -0.288 N 
ATOM     18  C   UNL     1       8.615   0.680  23.887  0.00  0.00    +0.171 A 
ATOM     19  N   UNL     1       7.311   0.663  23.520  0.00  0.00    -0.196 NA
ENDBRANCH   1  17
BRANCH   4  20
ATOM     20  O   UNL     1       9.993  -5.121  24.889  0.00  0.00    -0.389 OA
ATOM     21  H   UNL     1      10.161  -5.203  25.845  0.00  0.00    +0.210 HD
ENDBRANCH   4  20
BRANCH   3  22
ATOM     22  C   UNL     1       7.054  -3.842  26.175  0.00  0.00    +0.206 C 
BRANCH  22  23
ATOM     23  O   UNL     1       6.177  -2.759  25.946  0.00  0.00    -0.284 OA
BRANCH  23  24
ATOM     24  P   UNL     1       5.321  -2.745  24.553  0.00  0.00    +0.483 P 
ATOM     25  O   UNL     1       3.830  -2.853  24.874  0.00  0.00    -0.227 OA
BRANCH  24  26
ATOM     26  O   UNL     1       5.162  -1.031  24.729  0.00  0.00    -0.302 OA
ATOM     27  H   UNL     1       5.375  -0.687  23.838  0.00  0.00    +0.222 HD
ENDBRANCH  24  26
BRANCH  24  28
ATOM     28  O   UNL     1       5.480  -4.459  24.377  0.00  0.00    -0.186 OA
BRANCH  28  29
ATOM     29  P   UNL     1       5.600  -4.858  22.698  0.00  0.00    +0.481 P 
ATOM     30  O   UNL     1       5.707  -5.214  21.196  0.00  0.00    -0.227 OA
BRANCH  29  31
ATOM     31  O   UNL     1       5.581  -3.239  22.444  0.00  0.00    -0.302 OA
ATOM     32  H   UNL     1       5.323  -2.737  23.238  0.00  0.00    +0.222 HD
ENDBRANCH  29  31
BRANCH  29  33
ATOM     33  O   UNL     1       3.971  -4.993  22.713  0.00  0.00    -0.302 OA
ATOM     34  H   UNL     1       3.777  -5.950  22.702  0.00  0.00    +0.222 HD
ENDBRANCH  29  33
ENDBRANCH  28  29
ENDBRANCH  24  28
ENDBRANCH  23  24
ENDBRANCH  22  23
ENDBRANCH   3  22
TORSDOF 10
ENDMDL
MODEL 7
REMARK VINA RESULT:      -6.5      4.653      7.919
REMARK  Name = 
REMARK  10 active torsions:
REMARK  status: ('A' for Active; 'I' for Inactive)
REMARK    1  A    between atoms: N_8  and  C_9
REMARK    2  A    between atoms: C_12  and  O_14
REMARK    3  A    between atoms: C_15  and  C_17
REMARK    4  A    between atoms: C_17  and  O_18
REMARK    5  A    between atoms: O_18  and  P_19
REMARK    6  A    between atoms: P_19  and  O_20
REMARK    7  A    between atoms: P_19  and  O_22
REMARK    8  A    between atoms: O_22  and  P_23
REMARK    9  A    between atoms: P_23  and  O_24
REMARK   10  A    between atoms: P_23  and  O_25
REMARK                            x       y       z     vdW  Elec       q    Type
REMARK                         _______ _______ _______ _____ _____    ______ ____
ROOT
ATOM      1  C   UNL     1       6.802  -3.900  24.178  0.00  0.00    +0.225 C 
ATOM      2  O   UNL     1       6.846  -2.856  23.185  0.00  0.00    -0.348 OA
ATOM      3  C   UNL     1       8.133  -2.212  23.316  0.00  0.00    +0.175 C 
ATOM      4  C   UNL     1       8.965  -3.082  24.277  0.00  0.00    +0.150 C 
ATOM      5  C   UNL     1       8.225  -4.405  24.241  0.00  0.00    +0.088 C 
ENDROOT
BRANCH   1  17
ATOM      6  N   UNL     1       5.131  -7.217  27.861  0.00  0.00    -0.329 N 
ATOM      7  H   UNL     1       4.344  -7.492  28.429  0.00  0.00    +0.145 HD
ATOM      8  H   UNL     1       5.740  -6.545  28.318  0.00  0.00    +0.145 HD
ATOM      9  C   UNL     1       4.893  -6.903  26.565  0.00  0.00    +0.195 A 
ATOM     10  N   UNL     1       3.864  -7.590  25.950  0.00  0.00    -0.293 N 
ATOM     11  H   UNL     1       3.358  -8.301  26.449  0.00  0.00    +0.172 HD
ATOM     12  C   UNL     1       3.475  -7.409  24.629  0.00  0.00    +0.280 A 
ATOM     13  O   UNL     1       2.558  -8.059  24.130  0.00  0.00    -0.265 OA
ATOM     14  C   UNL     1       4.272  -6.410  23.954  0.00  0.00    +0.172 A 
ATOM     15  N   UNL     1       4.211  -5.929  22.671  0.00  0.00    -0.229 NA
ATOM     16  C   UNL     1       5.144  -4.996  22.628  0.00  0.00    +0.203 A 
ATOM     17  N   UNL     1       5.803  -4.875  23.824  0.00  0.00    -0.288 N 
ATOM     18  C   UNL     1       5.260  -5.788  24.680  0.00  0.00    +0.171 A 
ATOM     19  N   UNL     1       5.616  -5.993  25.972  0.00  0.00    -0.196 NA
ENDBRANCH   1  17
BRANCH   4  20
ATOM     20  O   UNL     1      10.323  -3.240  23.906  0.00  0.00    -0.389 OA
ATOM     21  H   UNL     1      10.876  -3.233  24.707  0.00  0.00    +0.210 HD
ENDBRANCH   4  20
BRANCH   3  22
ATOM     22  C   UNL     1       7.881  -0.799  23.831  0.00  0.00    +0.206 C 
BRANCH  22  23
ATOM     23  O   UNL     1       8.126   0.155  22.820  0.00  0.00    -0.284 OA
BRANCH  23  24
ATOM     24  P   UNL     1       9.641   0.753  22.679  0.00  0.00    +0.483 P 
ATOM     25  O   UNL     1      10.625  -0.193  23.365  0.00  0.00    -0.227 OA
BRANCH  24  26
ATOM     26  O   UNL     1       9.829  -0.202  21.248  0.00  0.00    -0.302 OA
ATOM     27  H   UNL     1      10.797  -0.218  21.107  0.00  0.00    +0.222 HD
ENDBRANCH  24  26
BRANCH  24  28
ATOM     28  O   UNL     1       9.453   1.709  24.109  0.00  0.00    -0.186 OA
BRANCH  28  29
ATOM     29  P   UNL     1       8.965   3.311  23.672  0.00  0.00    +0.481 P 
ATOM     30  O   UNL     1       8.530   4.743  23.280  0.00  0.00    -0.227 OA
BRANCH  29  31
ATOM     31  O   UNL     1       7.436   2.774  23.914  0.00  0.00    -0.302 OA
ATOM     32  H   UNL     1       6.875   2.870  23.125  0.00  0.00    +0.222 HD
ENDBRANCH  29  31
BRANCH  29  33
ATOM     33  O   UNL     1       9.024   2.801  22.119  0.00  0.00    -0.302 OA
ATOM     34  H   UNL     1       9.105   3.605  21.572  0.00  0.00    +0.222 HD
ENDBRANCH  29  33
ENDBRANCH  28  29
ENDBRANCH  24  28
ENDBRANCH  23  24
ENDBRANCH  22  23
ENDBRANCH   3  22
TORSDOF 10
ENDMDL
MODEL 8
REMARK VINA RESULT:      -6.5      1.989      2.558
REMARK  Name = 
REMARK  10 active torsions:
REMARK  status: ('A' for Active; 'I' for Inactive)
REMARK    1  A    between atoms: N_8  and  C_9
REMARK    2  A    between atoms: C_12  and  O_14
REMARK    3  A    between atoms: C_15  and  C_17
REMARK    4  A    between atoms: C_17  and  O_18
REMARK    5  A    between atoms: O_18  and  P_19
REMARK    6  A    between atoms: P_19  and  O_20
REMARK    7  A    between atoms: P_19  and  O_22
REMARK    8  A    between atoms: O_22  and  P_23
REMARK    9  A    between atoms: P_23  and  O_24
REMARK   10  A    between atoms: P_23  and  O_25
REMARK                            x       y       z     vdW  Elec       q    Type
REMARK                         _______ _______ _______ _____ _____    ______ ____
ROOT
ATOM      1  C   UNL     1       7.688  -2.834  23.247  0.00  0.00    +0.225 C 
ATOM      2  O   UNL     1       8.373  -3.861  23.992  0.00  0.00    -0.348 OA
ATOM      3  C   UNL     1       7.573  -5.059  23.880  0.00  0.00    +0.175 C 
ATOM      4  C   UNL     1       6.492  -4.770  22.822  0.00  0.00    +0.150 C 
ATOM      5  C   UNL     1       7.069  -3.577  22.086  0.00  0.00    +0.088 C 
ENDROOT
BRANCH   1  17
ATOM      6  N   UNL     1       5.816   2.015  22.663  0.00  0.00    -0.329 N 
ATOM      7  H   UNL     1       5.813   2.950  23.042  0.00  0.00    +0.145 HD
ATOM      8  H   UNL     1       5.054   1.440  23.007  0.00  0.00    +0.145 HD
ATOM      9  C   UNL     1       6.997   1.350  22.637  0.00  0.00    +0.195 A 
ATOM     10  N   UNL     1       8.128   2.122  22.456  0.00  0.00    -0.293 N 
ATOM     11  H   UNL     1       8.050   3.115  22.320  0.00  0.00    +0.172 HD
ATOM     12  C   UNL     1       9.422   1.622  22.399  0.00  0.00    +0.280 A 
ATOM     13  O   UNL     1      10.393   2.356  22.222  0.00  0.00    -0.265 OA
ATOM     14  C   UNL     1       9.463   0.185  22.552  0.00  0.00    +0.172 A 
ATOM     15  N   UNL     1      10.521  -0.687  22.568  0.00  0.00    -0.229 NA
ATOM     16  C   UNL     1       9.969  -1.865  22.791  0.00  0.00    +0.203 A 
ATOM     17  N   UNL     1       8.606  -1.780  22.903  0.00  0.00    -0.288 N 
ATOM     18  C   UNL     1       8.267  -0.468  22.739  0.00  0.00    +0.171 A 
ATOM     19  N   UNL     1       7.017   0.054  22.785  0.00  0.00    -0.196 NA
ENDBRANCH   1  17
BRANCH   4  20
ATOM     20  O   UNL     1       6.229  -5.845  21.937  0.00  0.00    -0.389 OA
ATOM     21  H   UNL     1       6.046  -6.648  22.456  0.00  0.00    +0.210 HD
ENDBRANCH   4  20
BRANCH   3  22
ATOM     22  C   UNL     1       7.010  -5.357  25.266  0.00  0.00    +0.206 C 
BRANCH  22  23
ATOM     23  O   UNL     1       5.608  -5.518  25.215  0.00  0.00    -0.284 OA
BRANCH  23  24
ATOM     24  P   UNL     1       4.897  -6.434  26.366  0.00  0.00    +0.483 P 
ATOM     25  O   UNL     1       3.434  -6.014  26.516  0.00  0.00    -0.227 OA
BRANCH  24  26
ATOM     26  O   UNL     1       4.385  -7.516  25.116  0.00  0.00    -0.302 OA
ATOM     27  H   UNL     1       3.981  -6.924  24.450  0.00  0.00    +0.222 HD
ENDBRANCH  24  26
BRANCH  24  28
ATOM     28  O   UNL     1       5.408  -5.353  27.617  0.00  0.00    -0.186 OA
BRANCH  28  29
ATOM     29  P   UNL     1       5.862  -6.263  29.016  0.00  0.00    +0.481 P 
ATOM     30  O   UNL     1       6.267  -7.078  30.268  0.00  0.00    -0.227 OA
BRANCH  29  31
ATOM     31  O   UNL     1       7.346  -6.341  28.327  0.00  0.00    -0.302 OA
ATOM     32  H   UNL     1       7.899  -5.567  28.536  0.00  0.00    +0.222 HD
ENDBRANCH  29  31
BRANCH  29  33
ATOM     33  O   UNL     1       5.296  -7.578  28.225  0.00  0.00    -0.302 OA
ATOM     34  H   UNL     1       5.279  -7.339  27.278  0.00  0.00    +0.222 HD
ENDBRANCH  29  33
ENDBRANCH  28  29
ENDBRANCH  24  28
ENDBRANCH  23  24
ENDBRANCH  22  23
ENDBRANCH   3  22
TORSDOF 10
ENDMDL
MODEL 9
REMARK VINA RESULT:      -6.5      2.493      3.308
REMARK  Name = 
REMARK  10 active torsions:
REMARK  status: ('A' for Active; 'I' for Inactive)
REMARK    1  A    between atoms: N_8  and  C_9
REMARK    2  A    between atoms: C_12  and  O_14
REMARK    3  A    between atoms: C_15  and  C_17
REMARK    4  A    between atoms: C_17  and  O_18
REMARK    5  A    between atoms: O_18  and  P_19
REMARK    6  A    between atoms: P_19  and  O_20
REMARK    7  A    between atoms: P_19  and  O_22
REMARK    8  A    between atoms: O_22  and  P_23
REMARK    9  A    between atoms: P_23  and  O_24
REMARK   10  A    between atoms: P_23  and  O_25
REMARK                            x       y       z     vdW  Elec       q    Type
REMARK                         _______ _______ _______ _____ _____    ______ ____
ROOT
ATOM      1  C   UNL     1       8.812  -1.599  24.375  0.00  0.00    +0.225 C 
ATOM      2  O   UNL     1       8.435  -1.790  25.754  0.00  0.00    -0.348 OA
ATOM      3  C   UNL     1       8.395  -3.217  25.980  0.00  0.00    +0.175 C 
ATOM      4  C   UNL     1       9.008  -3.878  24.731  0.00  0.00    +0.150 C 
ATOM      5  C   UNL     1       9.773  -2.732  24.099  0.00  0.00    +0.088 C 
ENDROOT
BRANCH   1  17
ATOM      6  N   UNL     1       5.553   2.151  22.742  0.00  0.00    -0.329 N 
ATOM      7  H   UNL     1       5.090   3.011  22.996  0.00  0.00    +0.145 HD
ATOM      8  H   UNL     1       4.992   1.325  22.921  0.00  0.00    +0.145 HD
ATOM      9  C   UNL     1       6.843   1.995  23.125  0.00  0.00    +0.195 A 
ATOM     10  N   UNL     1       7.607   3.145  23.183  0.00  0.00    -0.293 N 
ATOM     11  H   UNL     1       7.212   4.031  22.919  0.00  0.00    +0.172 HD
ATOM     12  C   UNL     1       8.946   3.185  23.549  0.00  0.00    +0.280 A 
ATOM     13  O   UNL     1       9.580   4.237  23.571  0.00  0.00    -0.265 OA
ATOM     14  C   UNL     1       9.466   1.875  23.869  0.00  0.00    +0.172 A 
ATOM     15  N   UNL     1      10.713   1.479  24.282  0.00  0.00    -0.229 NA
ATOM     16  C   UNL     1      10.596   0.179  24.473  0.00  0.00    +0.203 A 
ATOM     17  N   UNL     1       9.333  -0.270  24.187  0.00  0.00    -0.288 N 
ATOM     18  C   UNL     1       8.600   0.809  23.785  0.00  0.00    +0.171 A 
ATOM     19  N   UNL     1       7.296   0.807  23.419  0.00  0.00    -0.196 NA
ENDBRANCH   1  17
BRANCH   4  20
ATOM     20  O   UNL     1       9.858  -4.979  25.003  0.00  0.00    -0.389 OA
ATOM     21  H   UNL     1      10.199  -4.902  25.911  0.00  0.00    +0.210 HD
ENDBRANCH   4  20
BRANCH   3  22
ATOM     22  C   UNL     1       6.937  -3.595  26.220  0.00  0.00    +0.206 C 
BRANCH  22  23
ATOM     23  O   UNL     1       6.763  -4.121  27.519  0.00  0.00    -0.284 OA
BRANCH  23  24
ATOM     24  P   UNL     1       6.391  -5.706  27.662  0.00  0.00    +0.483 P 
ATOM     25  O   UNL     1       6.108  -6.288  26.277  0.00  0.00    -0.227 OA
BRANCH  24  26
ATOM     26  O   UNL     1       8.062  -6.069  27.395  0.00  0.00    -0.302 OA
ATOM     27  H   UNL     1       8.493  -5.191  27.405  0.00  0.00    +0.222 HD
ENDBRANCH  24  26
BRANCH  24  28
ATOM     28  O   UNL     1       4.720  -5.344  27.929  0.00  0.00    -0.186 OA
BRANCH  28  29
ATOM     29  P   UNL     1       4.002  -6.601  28.876  0.00  0.00    +0.481 P 
ATOM     30  O   UNL     1       3.359  -7.726  29.724  0.00  0.00    -0.227 OA
BRANCH  29  31
ATOM     31  O   UNL     1       5.408  -7.409  28.638  0.00  0.00    -0.302 OA
ATOM     32  H   UNL     1       5.302  -8.184  28.059  0.00  0.00    +0.222 HD
ENDBRANCH  29  31
BRANCH  29  33
ATOM     33  O   UNL     1       3.325  -7.131  27.485  0.00  0.00    -0.302 OA
ATOM     34  H   UNL     1       2.651  -6.468  27.241  0.00  0.00    +0.222 HD
ENDBRANCH  29  33
ENDBRANCH  28  29
ENDBRANCH  24  28
ENDBRANCH  23  24
ENDBRANCH  22  23
ENDBRANCH   3  22
TORSDOF 10
ENDMDL
