MODEL 1
REMARK VINA RESULT:      -4.6      0.000      0.000
REMARK  Name = 
REMARK  4 active torsions:
REMARK  status: ('A' for Active; 'I' for Inactive)
REMARK    1  A    between atoms: O_1  and  C_2
REMARK    2  A    between atoms: C_6  and  C_12
REMARK    3  A    between atoms: C_9  and  O_11
REMARK    4  A    between atoms: C_12  and  O_13
REMARK                            x       y       z     vdW  Elec       q    Type
REMARK                         _______ _______ _______ _____ _____    ______ ____
ROOT
ATOM      1  C   UNL     1       9.899   2.342  23.903  0.00  0.00    +0.169 C 
ATOM      2  C   UNL     1       9.185   2.132  22.566  0.00  0.00    +0.148 C 
ATOM      3  C   UNL     1       8.239   0.938  22.663  0.00  0.00    +0.077 C 
ATOM      4  C   UNL     1       8.959  -0.311  23.170  0.00  0.00    +0.229 C 
ATOM      5  O   UNL     1       9.696  -0.084  24.379  0.00  0.00    -0.363 OA
ATOM      6  C   UNL     1      10.591   1.040  24.324  0.00  0.00    +0.194 C 
ENDROOT
BRANCH   1   7
ATOM      7  O   UNL     1       8.944   2.748  24.888  0.00  0.00    -0.387 OA
ATOM      8  H   UNL     1       8.768   1.984  25.463  0.00  0.00    +0.210 HD
ENDBRANCH   1   7
BRANCH   2   9
ATOM      9  O   UNL     1      10.163   1.924  21.548  0.00  0.00    -0.389 OA
ATOM     10  H   UNL     1      11.044   1.853  21.967  0.00  0.00    +0.210 HD
ENDBRANCH   2   9
BRANCH   4  11
ATOM     11  C   UNL     1       9.806  -0.992  22.084  0.00  0.00    +0.334 C 
ATOM     12  O   UNL     1      10.768  -1.717  22.291  0.00  0.00    -0.248 OA
BRANCH  11  13
ATOM     13  O   UNL     1       9.391  -0.650  20.837  0.00  0.00    -0.479 OA
ATOM     14  H   UNL     1       9.063   0.277  20.849  0.00  0.00    +0.295 HD
ENDBRANCH  11  13
ENDBRANCH   4  11
TORSDOF 4
ENDMDL
MODEL 2
REMARK VINA RESULT:      -4.5      1.502      3.481
REMARK  Name = 
REMARK  4 active torsions:
REMARK  status: ('A' for Active; 'I' for Inactive)
REMARK    1  A    between atoms: O_1  and  C_2
REMARK    2  A    between atoms: C_6  and  C_12
REMARK    3  A    between atoms: C_9  and  O_11
REMARK    4  A    between atoms: C_12  and  O_13
REMARK                            x       y       z     vdW  Elec       q    Type
REMARK                         _______ _______ _______ _____ _____    ______ ____
ROOT
ATOM      1  C   UNL     1       8.863  -1.984  23.001  0.00  0.00    +0.169 C 
ATOM      2  C   UNL     1      10.103  -1.255  22.479  0.00  0.00    +0.148 C 
ATOM      3  C   UNL     1      10.334   0.022  23.282  0.00  0.00    +0.077 C 
ATOM      4  C   UNL     1       9.084   0.899  23.316  0.00  0.00    +0.229 C 
ATOM      5  O   UNL     1       7.907   0.188  23.725  0.00  0.00    -0.363 OA
ATOM      6  C   UNL     1       7.665  -1.026  22.993  0.00  0.00    +0.194 C 
ENDROOT
BRANCH   1   7
ATOM      7  O   UNL     1       9.120  -2.461  24.325  0.00  0.00    -0.387 OA
ATOM      8  H   UNL     1       9.479  -3.362  24.252  0.00  0.00    +0.210 HD
ENDBRANCH   1   7
BRANCH   2   9
ATOM      9  O   UNL     1       9.916  -0.959  21.096  0.00  0.00    -0.389 OA
ATOM     10  H   UNL     1       9.761  -1.795  20.612  0.00  0.00    +0.210 HD
ENDBRANCH   2   9
BRANCH   4  11
ATOM     11  C   UNL     1       8.872   1.684  22.013  0.00  0.00    +0.334 C 
ATOM     12  O   UNL     1       7.791   1.881  21.475  0.00  0.00    -0.248 OA
BRANCH  11  13
ATOM     13  O   UNL     1      10.050   2.101  21.482  0.00  0.00    -0.479 OA
ATOM     14  H   UNL     1      10.652   1.329  21.387  0.00  0.00    +0.295 HD
ENDBRANCH  11  13
ENDBRANCH   4  11
TORSDOF 4
ENDMDL
MODEL 3
REMARK VINA RESULT:      -4.3      1.634      2.759
REMARK  Name = 
REMARK  4 active torsions:
REMARK  status: ('A' for Active; 'I' for Inactive)
REMARK    1  A    between atoms: O_1  and  C_2
REMARK    2  A    between atoms: C_6  and  C_12
REMARK    3  A    between atoms: C_9  and  O_11
REMARK    4  A    between atoms: C_12  and  O_13
REMARK                            x       y       z     vdW  Elec       q    Type
REMARK                         _______ _______ _______ _____ _____    ______ ____
ROOT
ATOM      1  C   UNL     1       8.447   0.244  25.384  0.00  0.00    +0.169 C 
ATOM      2  C   UNL     1       8.572  -0.843  24.314  0.00  0.00    +0.148 C 
ATOM      3  C   UNL     1       9.996  -0.875  23.767  0.00  0.00    +0.077 C 
ATOM      4  C   UNL     1      10.446   0.503  23.287  0.00  0.00    +0.229 C 
ATOM      5  O   UNL     1      10.248   1.533  24.266  0.00  0.00    -0.363 OA
ATOM      6  C   UNL     1       8.917   1.585  24.808  0.00  0.00    +0.194 C 
ENDROOT
BRANCH   1   7
ATOM      7  O   UNL     1       9.236  -0.122  26.520  0.00  0.00    -0.387 OA
ATOM      8  H   UNL     1      10.002  -0.628  26.199  0.00  0.00    +0.210 HD
ENDBRANCH   1   7
BRANCH   2   9
ATOM      9  O   UNL     1       7.633  -0.575  23.273  0.00  0.00    -0.389 OA
ATOM     10  H   UNL     1       7.227  -1.418  22.990  0.00  0.00    +0.210 HD
ENDBRANCH   2   9
BRANCH   4  11
ATOM     11  C   UNL     1       9.863   0.876  21.916  0.00  0.00    +0.334 C 
ATOM     12  O   UNL     1       9.306   0.101  21.151  0.00  0.00    -0.248 OA
BRANCH  11  13
ATOM     13  O   UNL     1      10.084   2.181  21.615  0.00  0.00    -0.479 OA
ATOM     14  H   UNL     1      10.011   2.305  20.643  0.00  0.00    +0.295 HD
ENDBRANCH  11  13
ENDBRANCH   4  11
TORSDOF 4
ENDMDL
MODEL 4
REMARK VINA RESULT:      -4.3      1.551      2.876
REMARK  Name = 
REMARK  4 active torsions:
REMARK  status: ('A' for Active; 'I' for Inactive)
REMARK    1  A    between atoms: O_1  and  C_2
REMARK    2  A    between atoms: C_6  and  C_12
REMARK    3  A    between atoms: C_9  and  O_11
REMARK    4  A    between atoms: C_12  and  O_13
REMARK                            x       y       z     vdW  Elec       q    Type
REMARK                         _______ _______ _______ _____ _____    ______ ____
ROOT
ATOM      1  C   UNL     1       8.878   1.117  21.813  0.00  0.00    +0.169 C 
ATOM      2  C   UNL     1       8.604   1.218  23.314  0.00  0.00    +0.148 C 
ATOM      3  C   UNL     1       9.851   0.822  24.100  0.00  0.00    +0.077 C 
ATOM      4  C   UNL     1      10.376  -0.546  23.669  0.00  0.00    +0.229 C 
ATOM      5  O   UNL     1      10.551  -0.662  22.250  0.00  0.00    -0.363 OA
ATOM      6  C   UNL     1       9.395  -0.288  21.480  0.00  0.00    +0.194 C 
ENDROOT
BRANCH   1   7
ATOM      7  O   UNL     1       9.839   2.111  21.442  0.00  0.00    -0.387 OA
ATOM      8  H   UNL     1      10.487   2.180  22.163  0.00  0.00    +0.210 HD
ENDBRANCH   1   7
BRANCH   2   9
ATOM      9  O   UNL     1       7.506   0.367  23.641  0.00  0.00    -0.389 OA
ATOM     10  H   UNL     1       7.712  -0.542  23.343  0.00  0.00    +0.210 HD
ENDBRANCH   2   9
BRANCH   4  11
ATOM     11  C   UNL     1       9.562  -1.708  24.257  0.00  0.00    +0.334 C 
ATOM     12  O   UNL     1       8.686  -1.600  25.103  0.00  0.00    -0.248 OA
BRANCH  11  13
ATOM     13  O   UNL     1       9.967  -2.906  23.760  0.00  0.00    -0.479 OA
ATOM     14  H   UNL     1      10.128  -2.816  22.795  0.00  0.00    +0.295 HD
ENDBRANCH  11  13
ENDBRANCH   4  11
TORSDOF 4
ENDMDL
MODEL 5
REMARK VINA RESULT:      -4.2      1.461      3.415
REMARK  Name = 
REMARK  4 active torsions:
REMARK  status: ('A' for Active; 'I' for Inactive)
REMARK    1  A    between atoms: O_1  and  C_2
REMARK    2  A    between atoms: C_6  and  C_12
REMARK    3  A    between atoms: C_9  and  O_11
REMARK    4  A    between atoms: C_12  and  O_13
REMARK                            x       y       z     vdW  Elec       q    Type
REMARK                         _______ _______ _______ _____ _____    ______ ____
ROOT
ATOM      1  C   UNL     1       9.827  -1.405  24.180  0.00  0.00    +0.169 C 
ATOM      2  C   UNL     1       9.551  -0.184  25.059  0.00  0.00    +0.148 C 
ATOM      3  C   UNL     1       8.458   0.675  24.430  0.00  0.00    +0.077 C 
ATOM      4  C   UNL     1       8.785   1.032  22.981  0.00  0.00    +0.229 C 
ATOM      5  O   UNL     1       9.125  -0.110  22.183  0.00  0.00    -0.363 OA
ATOM      6  C   UNL     1      10.148  -0.946  22.752  0.00  0.00    +0.194 C 
ENDROOT
BRANCH   1   7
ATOM      7  O   UNL     1       8.679  -2.260  24.189  0.00  0.00    -0.387 OA
ATOM      8  H   UNL     1       8.040  -1.906  23.548  0.00  0.00    +0.210 HD
ENDBRANCH   1   7
BRANCH   2   9
ATOM      9  O   UNL     1      10.760   0.560  25.206  0.00  0.00    -0.389 OA
ATOM     10  H   UNL     1      10.725   1.339  24.615  0.00  0.00    +0.210 HD
ENDBRANCH   2   9
BRANCH   4  11
ATOM     11  C   UNL     1       9.822   2.159  22.865  0.00  0.00    +0.334 C 
ATOM     12  O   UNL     1      10.173   2.892  23.779  0.00  0.00    -0.248 OA
BRANCH  11  13
ATOM     13  O   UNL     1      10.280   2.290  21.594  0.00  0.00    -0.479 OA
ATOM     14  H   UNL     1      10.538   3.225  21.439  0.00  0.00    +0.295 HD
ENDBRANCH  11  13
ENDBRANCH   4  11
TORSDOF 4
ENDMDL
MODEL 6
REMARK VINA RESULT:      -4.2      4.329      5.716
REMARK  Name = 
REMARK  4 active torsions:
REMARK  status: ('A' for Active; 'I' for Inactive)
REMARK    1  A    between atoms: O_1  and  C_2
REMARK    2  A    between atoms: C_6  and  C_12
REMARK    3  A    between atoms: C_9  and  O_11
REMARK    4  A    between atoms: C_12  and  O_13
REMARK                            x       y       z     vdW  Elec       q    Type
REMARK                         _______ _______ _______ _____ _____    ______ ____
ROOT
ATOM      1  C   UNL     1       8.754  -4.767  26.664  0.00  0.00    +0.169 C 
ATOM      2  C   UNL     1       7.829  -3.588  26.355  0.00  0.00    +0.148 C 
ATOM      3  C   UNL     1       7.113  -3.820  25.028  0.00  0.00    +0.077 C 
ATOM      4  C   UNL     1       8.100  -4.127  23.903  0.00  0.00    +0.229 C 
ATOM      5  O   UNL     1       9.020  -5.178  24.231  0.00  0.00    -0.363 OA
ATOM      6  C   UNL     1       9.705  -4.994  25.482  0.00  0.00    +0.194 C 
ENDROOT
BRANCH   1   7
ATOM      7  O   UNL     1       7.963  -5.935  26.906  0.00  0.00    -0.387 OA
ATOM      8  H   UNL     1       8.345  -6.665  26.390  0.00  0.00    +0.210 HD
ENDBRANCH   1   7
BRANCH   2   9
ATOM      9  O   UNL     1       8.606  -2.392  26.312  0.00  0.00    -0.389 OA
ATOM     10  H   UNL     1       8.030  -1.652  26.036  0.00  0.00    +0.210 HD
ENDBRANCH   2   9
BRANCH   4  11
ATOM     11  C   UNL     1       8.808  -2.872  23.372  0.00  0.00    +0.334 C 
ATOM     12  O   UNL     1       9.945  -2.526  23.662  0.00  0.00    -0.248 OA
BRANCH  11  13
ATOM     13  O   UNL     1       7.995  -2.140  22.567  0.00  0.00    -0.479 OA
ATOM     14  H   UNL     1       7.951  -2.567  21.682  0.00  0.00    +0.295 HD
ENDBRANCH  11  13
ENDBRANCH   4  11
TORSDOF 4
ENDMDL
MODEL 7
REMARK VINA RESULT:      -4.2      1.245      3.630
REMARK  Name = 
REMARK  4 active torsions:
REMARK  status: ('A' for Active; 'I' for Inactive)
REMARK    1  A    between atoms: O_1  and  C_2
REMARK    2  A    between atoms: C_6  and  C_12
REMARK    3  A    between atoms: C_9  and  O_11
REMARK    4  A    between atoms: C_12  and  O_13
REMARK                            x       y       z     vdW  Elec       q    Type
REMARK                         _______ _______ _______ _____ _____    ______ ____
ROOT
ATOM      1  C   UNL     1       9.040  -0.799  21.911  0.00  0.00    +0.169 C 
ATOM      2  C   UNL     1       9.050   0.674  21.500  0.00  0.00    +0.148 C 
ATOM      3  C   UNL     1      10.191   1.404  22.203  0.00  0.00    +0.077 C 
ATOM      4  C   UNL     1      10.143   1.197  23.716  0.00  0.00    +0.229 C 
ATOM      5  O   UNL     1      10.048  -0.184  24.093  0.00  0.00    -0.363 OA
ATOM      6  C   UNL     1       8.987  -0.903  23.441  0.00  0.00    +0.194 C 
ENDROOT
BRANCH   1   7
ATOM      7  O   UNL     1      10.214  -1.438  21.401  0.00  0.00    -0.387 OA
ATOM      8  H   UNL     1      10.868  -0.746  21.206  0.00  0.00    +0.210 HD
ENDBRANCH   1   7
BRANCH   2   9
ATOM      9  O   UNL     1       7.791   1.256  21.836  0.00  0.00    -0.389 OA
ATOM     10  H   UNL     1       7.114   0.550  21.861  0.00  0.00    +0.210 HD
ENDBRANCH   2   9
BRANCH   4  11
ATOM     11  C   UNL     1       9.081   2.068  24.403  0.00  0.00    +0.334 C 
ATOM     12  O   UNL     1       8.625   3.110  23.955  0.00  0.00    -0.248 OA
BRANCH  11  13
ATOM     13  O   UNL     1       8.732   1.568  25.617  0.00  0.00    -0.479 OA
ATOM     14  H   UNL     1       7.787   1.300  25.595  0.00  0.00    +0.295 HD
ENDBRANCH  11  13
ENDBRANCH   4  11
TORSDOF 4
ENDMDL
MODEL 8
REMARK VINA RESULT:      -4.1      1.935      3.414
REMARK  Name = 
REMARK  4 active torsions:
REMARK  status: ('A' for Active; 'I' for Inactive)
REMARK    1  A    between atoms: O_1  and  C_2
REMARK    2  A    between atoms: C_6  and  C_12
REMARK    3  A    between atoms: C_9  and  O_11
REMARK    4  A    between atoms: C_12  and  O_13
REMARK                            x       y       z     vdW  Elec       q    Type
REMARK                         _______ _______ _______ _____ _____    ______ ____
ROOT
ATOM      1  C   UNL     1      10.232   0.867  23.710  0.00  0.00    +0.169 C 
ATOM      2  C   UNL     1      10.474   2.273  23.159  0.00  0.00    +0.148 C 
ATOM      3  C   UNL     1       9.613   3.284  23.910  0.00  0.00    +0.077 C 
ATOM      4  C   UNL     1       8.140   2.878  23.911  0.00  0.00    +0.229 C 
ATOM      5  O   UNL     1       7.928   1.529  24.349  0.00  0.00    -0.363 OA
ATOM      6  C   UNL     1       8.732   0.552  23.666  0.00  0.00    +0.194 C 
ENDROOT
BRANCH   1   7
ATOM      7  O   UNL     1      10.724   0.797  25.052  0.00  0.00    -0.387 OA
ATOM      8  H   UNL     1      11.265   1.589  25.212  0.00  0.00    +0.210 HD
ENDBRANCH   1   7
BRANCH   2   9
ATOM      9  O   UNL     1      10.168   2.281  21.765  0.00  0.00    -0.389 OA
ATOM     10  H   UNL     1       9.198   2.223  21.655  0.00  0.00    +0.210 HD
ENDBRANCH   2   9
BRANCH   4  11
ATOM     11  C   UNL     1       7.439   3.179  22.578  0.00  0.00    +0.334 C 
ATOM     12  O   UNL     1       6.583   2.478  22.056  0.00  0.00    -0.248 OA
BRANCH  11  13
ATOM     13  O   UNL     1       7.922   4.309  22.001  0.00  0.00    -0.479 OA
ATOM     14  H   UNL     1       7.246   4.672  21.387  0.00  0.00    +0.295 HD
ENDBRANCH  11  13
ENDBRANCH   4  11
TORSDOF 4
ENDMDL
MODEL 9
REMARK VINA RESULT:      -4.1      1.474      2.045
REMARK  Name = 
REMARK  4 active torsions:
REMARK  status: ('A' for Active; 'I' for Inactive)
REMARK    1  A    between atoms: O_1  and  C_2
REMARK    2  A    between atoms: C_6  and  C_12
REMARK    3  A    between atoms: C_9  and  O_11
REMARK    4  A    between atoms: C_12  and  O_13
REMARK                            x       y       z     vdW  Elec       q    Type
REMARK                         _______ _______ _______ _____ _____    ______ ____
ROOT
ATOM      1  C   UNL     1       9.113   1.743  24.327  0.00  0.00    +0.169 C 
ATOM      2  C   UNL     1      10.346   1.262  23.561  0.00  0.00    +0.148 C 
ATOM      3  C   UNL     1      10.035   1.181  22.069  0.00  0.00    +0.077 C 
ATOM      4  C   UNL     1       8.788   0.341  21.800  0.00  0.00    +0.229 C 
ATOM      5  O   UNL     1       7.657   0.744  22.584  0.00  0.00    -0.363 OA
ATOM      6  C   UNL     1       7.919   0.839  23.995  0.00  0.00    +0.194 C 
ENDROOT
BRANCH   1   7
ATOM      7  O   UNL     1       8.834   3.100  23.967  0.00  0.00    -0.387 OA
ATOM      8  H   UNL     1       9.591   3.432  23.455  0.00  0.00    +0.210 HD
ENDBRANCH   1   7
BRANCH   2   9
ATOM      9  O   UNL     1      10.736  -0.013  24.069  0.00  0.00    -0.389 OA
ATOM     10  H   UNL     1      11.066  -0.560  23.329  0.00  0.00    +0.210 HD
ENDBRANCH   2   9
BRANCH   4  11
ATOM     11  C   UNL     1       9.056  -1.169  21.888  0.00  0.00    +0.334 C 
ATOM     12  O   UNL     1       8.260  -2.004  22.293  0.00  0.00    -0.248 OA
BRANCH  11  13
ATOM     13  O   UNL     1      10.322  -1.476  21.508  0.00  0.00    -0.479 OA
ATOM     14  H   UNL     1      10.729  -0.690  21.079  0.00  0.00    +0.295 HD
ENDBRANCH  11  13
ENDBRANCH   4  11
TORSDOF 4
ENDMDL
