MODEL 1
REMARK VINA RESULT:      -7.8      0.000      0.000
REMARK  Name = 
REMARK  6 active torsions:
REMARK  status: ('A' for Active; 'I' for Inactive)
REMARK    1  A    between atoms: C_2  and  C_3
REMARK    2  A    between atoms: C_2  and  N_4
REMARK    3  A    between atoms: C_2  and  C_25
REMARK    4  A    between atoms: C_7  and  N_9
REMARK    5  A    between atoms: N_9  and  S_10
REMARK    6  A    between atoms: S_10  and  C_13
REMARK                            x       y       z     vdW  Elec       q    Type
REMARK                         _______ _______ _______ _____ _____    ______ ____
ROOT
ATOM      1  N   UNL     1       9.140  -3.035  25.010  0.00  0.00    -0.289 N 
ATOM      2  C   UNL     1       9.779  -2.147  24.160  0.00  0.00    +0.235 C 
ATOM      3  O   UNL     1      10.499  -2.453  23.222  0.00  0.00    -0.274 OA
ATOM      4  C   UNL     1       9.386  -0.724  24.573  0.00  0.00    +0.164 C 
ATOM      5  C   UNL     1       8.195  -0.976  25.496  0.00  0.00    +0.049 C 
ATOM      6  C   UNL     1       8.440  -2.352  26.071  0.00  0.00    +0.110 C 
ENDROOT
BRANCH   1   7
ATOM      7  C   UNL     1       9.012  -4.472  24.740  0.00  0.00    +0.159 C 
ATOM      8  C   UNL     1       9.968  -5.267  25.622  0.00  0.00    +0.038 C 
BRANCH   7   9
ATOM      9  C   UNL     1       7.533  -4.955  24.890  0.00  0.00    +0.236 C 
ATOM     10  N   UNL     1       6.758  -5.057  23.744  0.00  0.00    -0.296 N 
ATOM     11  C   UNL     1       6.981  -4.319  22.496  0.00  0.00    +0.136 C 
ATOM     12  C   UNL     1       5.811  -3.362  22.231  0.00  0.00    +0.179 C 
ATOM     13  O   UNL     1       4.561  -4.070  22.222  0.00  0.00    -0.377 OA
ATOM     14  C   UNL     1       4.327  -4.704  23.491  0.00  0.00    +0.179 C 
ATOM     15  C   UNL     1       5.442  -5.703  23.811  0.00  0.00    +0.136 C 
ATOM     16  O   UNL     1       7.078  -5.275  25.992  0.00  0.00    -0.274 OA
ENDBRANCH   7   9
ENDBRANCH   1   7
BRANCH   4  17
ATOM     17  N   UNL     1       9.018   0.023  23.355  0.00  0.00    -0.177 NA
ATOM     18  H   UNL     1       8.008   0.083  23.205  0.00  0.00    +0.149 HD
BRANCH  17  19
ATOM     19  S   UNL     1       9.744   1.474  23.002  0.00  0.00    +0.074 S 
ATOM     20  O   UNL     1      10.120   1.506  21.609  0.00  0.00    -0.152 OA
ATOM     21  O   UNL     1      10.697   1.736  24.057  0.00  0.00    -0.152 OA
BRANCH  19  22
ATOM     22  C   UNL     1       8.556   2.765  23.169  0.00  0.00    +0.173 A 
ATOM     23  N   UNL     1       8.961   4.076  23.060  0.00  0.00    -0.339 N 
ATOM     24  H   UNL     1       9.930   4.349  22.944  0.00  0.00    +0.167 HD
ATOM     25  C   UNL     1       7.876   4.905  22.905  0.00  0.00    +0.048 A 
ATOM     26  C   UNL     1       7.821   6.269  22.598  0.00  0.00    +0.027 A 
ATOM     27  C   UNL     1       6.556   6.833  22.408  0.00  0.00    +0.022 A 
ATOM     28  C   UNL     1       5.403   6.064  22.555  0.00  0.00    +0.042 A 
ATOM     29  C   UNL     1       5.471   4.712  22.904  0.00  0.00    +0.030 A 
ATOM     30 CL   UNL     1       3.864   6.783  22.264  0.00  0.00    -0.084 Cl
ATOM     31  C   UNL     1       6.737   4.117  23.063  0.00  0.00    +0.003 A 
ATOM     32  C   UNL     1       7.178   2.787  23.303  0.00  0.00    +0.057 A 
ENDBRANCH  19  22
ENDBRANCH  17  19
ENDBRANCH   4  17
TORSDOF 5
ENDMDL
MODEL 2
REMARK VINA RESULT:      -7.8      4.346      8.389
REMARK  Name = 
REMARK  6 active torsions:
REMARK  status: ('A' for Active; 'I' for Inactive)
REMARK    1  A    between atoms: C_2  and  C_3
REMARK    2  A    between atoms: C_2  and  N_4
REMARK    3  A    between atoms: C_2  and  C_25
REMARK    4  A    between atoms: C_7  and  N_9
REMARK    5  A    between atoms: N_9  and  S_10
REMARK    6  A    between atoms: S_10  and  C_13
REMARK                            x       y       z     vdW  Elec       q    Type
REMARK                         _______ _______ _______ _____ _____    ______ ____
ROOT
ATOM      1  N   UNL     1       9.527  -0.996  23.895  0.00  0.00    -0.289 N 
ATOM      2  C   UNL     1       8.726  -2.112  24.071  0.00  0.00    +0.235 C 
ATOM      3  O   UNL     1       8.305  -2.524  25.141  0.00  0.00    -0.274 OA
ATOM      4  C   UNL     1       8.424  -2.706  22.690  0.00  0.00    +0.164 C 
ATOM      5  C   UNL     1       8.853  -1.576  21.755  0.00  0.00    +0.049 C 
ATOM      6  C   UNL     1       9.927  -0.834  22.519  0.00  0.00    +0.110 C 
ENDROOT
BRANCH   1   7
ATOM      7  C   UNL     1       9.759   0.013  24.937  0.00  0.00    +0.159 C 
ATOM      8  C   UNL     1      11.105   0.698  24.725  0.00  0.00    +0.038 C 
BRANCH   7   9
ATOM      9  C   UNL     1       8.582   1.038  25.015  0.00  0.00    +0.236 C 
ATOM     10  N   UNL     1       7.849   1.105  26.191  0.00  0.00    -0.296 N 
ATOM     11  C   UNL     1       7.716   0.025  27.174  0.00  0.00    +0.136 C 
ATOM     12  C   UNL     1       6.259  -0.454  27.240  0.00  0.00    +0.179 C 
ATOM     13  O   UNL     1       5.371   0.640  27.519  0.00  0.00    -0.377 OA
ATOM     14  C   UNL     1       5.456   1.638  26.487  0.00  0.00    +0.179 C 
ATOM     15  C   UNL     1       6.880   2.191  26.383  0.00  0.00    +0.136 C 
ATOM     16  O   UNL     1       8.335   1.796  24.072  0.00  0.00    -0.274 OA
ENDBRANCH   7   9
ENDBRANCH   1   7
BRANCH   4  17
ATOM     17  N   UNL     1       6.978  -2.990  22.618  0.00  0.00    -0.177 NA
ATOM     18  H   UNL     1       6.460  -2.317  22.049  0.00  0.00    +0.149 HD
BRANCH  17  19
ATOM     19  S   UNL     1       6.435  -4.533  22.332  0.00  0.00    +0.074 S 
ATOM     20  O   UNL     1       7.481  -5.314  21.718  0.00  0.00    -0.152 OA
ATOM     21  O   UNL     1       5.122  -4.415  21.740  0.00  0.00    -0.152 OA
BRANCH  19  22
ATOM     22  C   UNL     1       6.138  -5.331  23.876  0.00  0.00    +0.173 A 
ATOM     23  N   UNL     1       7.048  -5.185  24.899  0.00  0.00    -0.339 N 
ATOM     24  H   UNL     1       7.921  -4.683  24.796  0.00  0.00    +0.167 HD
ATOM     25  C   UNL     1       6.505  -5.604  26.091  0.00  0.00    +0.048 A 
ATOM     26  C   UNL     1       6.998  -5.488  27.395  0.00  0.00    +0.027 A 
ATOM     27  C   UNL     1       6.172  -5.928  28.433  0.00  0.00    +0.022 A 
ATOM     28  C   UNL     1       4.926  -6.490  28.164  0.00  0.00    +0.042 A 
ATOM     29  C   UNL     1       4.463  -6.638  26.853  0.00  0.00    +0.030 A 
ATOM     30 CL   UNL     1       3.916  -6.976  29.474  0.00  0.00    -0.084 Cl
ATOM     31  C   UNL     1       5.264  -6.168  25.796  0.00  0.00    +0.003 A 
ATOM     32  C   UNL     1       5.078  -6.057  24.391  0.00  0.00    +0.057 A 
ENDBRANCH  19  22
ENDBRANCH  17  19
ENDBRANCH   4  17
TORSDOF 5
ENDMDL
MODEL 3
REMARK VINA RESULT:      -7.8      2.049      2.104
REMARK  Name = 
REMARK  6 active torsions:
REMARK  status: ('A' for Active; 'I' for Inactive)
REMARK    1  A    between atoms: C_2  and  C_3
REMARK    2  A    between atoms: C_2  and  N_4
REMARK    3  A    between atoms: C_2  and  C_25
REMARK    4  A    between atoms: C_7  and  N_9
REMARK    5  A    between atoms: N_9  and  S_10
REMARK    6  A    between atoms: S_10  and  C_13
REMARK                            x       y       z     vdW  Elec       q    Type
REMARK                         _______ _______ _______ _____ _____    ______ ____
ROOT
ATOM      1  N   UNL     1       8.845  -2.996  24.947  0.00  0.00    -0.289 N 
ATOM      2  C   UNL     1       9.344  -2.180  23.945  0.00  0.00    +0.235 C 
ATOM      3  O   UNL     1      10.096  -2.533  23.049  0.00  0.00    -0.274 OA
ATOM      4  C   UNL     1       8.750  -0.780  24.130  0.00  0.00    +0.164 C 
ATOM      5  C   UNL     1       7.613  -1.041  25.116  0.00  0.00    +0.049 C 
ATOM      6  C   UNL     1       8.059  -2.254  25.902  0.00  0.00    +0.110 C 
ENDROOT
BRANCH   1   7
ATOM      7  C   UNL     1       8.926  -4.462  24.921  0.00  0.00    +0.159 C 
ATOM      8  C   UNL     1       9.819  -4.967  26.050  0.00  0.00    +0.038 C 
BRANCH   7   9
ATOM      9  C   UNL     1       7.507  -5.116  24.954  0.00  0.00    +0.236 C 
ATOM     10  N   UNL     1       6.793  -5.192  23.767  0.00  0.00    -0.296 N 
ATOM     11  C   UNL     1       6.978  -4.316  22.605  0.00  0.00    +0.136 C 
ATOM     12  C   UNL     1       5.718  -3.472  22.372  0.00  0.00    +0.179 C 
ATOM     13  O   UNL     1       4.557  -4.308  22.238  0.00  0.00    -0.377 OA
ATOM     14  C   UNL     1       4.349  -5.084  23.431  0.00  0.00    +0.179 C 
ATOM     15  C   UNL     1       5.557  -5.981  23.711  0.00  0.00    +0.136 C 
ATOM     16  O   UNL     1       7.050  -5.589  25.999  0.00  0.00    -0.274 OA
ENDBRANCH   7   9
ENDBRANCH   1   7
BRANCH   4  17
ATOM     17  N   UNL     1       8.271  -0.306  22.817  0.00  0.00    -0.177 NA
ATOM     18  H   UNL     1       7.252  -0.326  22.725  0.00  0.00    +0.149 HD
BRANCH  17  19
ATOM     19  S   UNL     1       8.889   1.080  22.142  0.00  0.00    +0.074 S 
ATOM     20  O   UNL     1       7.961   1.604  21.168  0.00  0.00    -0.152 OA
ATOM     21  O   UNL     1      10.270   0.809  21.814  0.00  0.00    -0.152 OA
BRANCH  19  22
ATOM     22  C   UNL     1       8.980   2.329  23.382  0.00  0.00    +0.173 A 
ATOM     23  N   UNL     1       9.801   3.417  23.187  0.00  0.00    -0.339 N 
ATOM     24  H   UNL     1      10.409   3.515  22.383  0.00  0.00    +0.167 HD
ATOM     25  C   UNL     1       9.507   4.411  24.090  0.00  0.00    +0.048 A 
ATOM     26  C   UNL     1       9.965   5.731  24.158  0.00  0.00    +0.027 A 
ATOM     27  C   UNL     1       9.412   6.551  25.145  0.00  0.00    +0.022 A 
ATOM     28  C   UNL     1       8.470   6.052  26.042  0.00  0.00    +0.042 A 
ATOM     29  C   UNL     1       8.052   4.719  25.990  0.00  0.00    +0.030 A 
ATOM     30 CL   UNL     1       7.775   7.108  27.214  0.00  0.00    -0.084 Cl
ATOM     31  C   UNL     1       8.569   3.887  24.979  0.00  0.00    +0.003 A 
ATOM     32  C   UNL     1       8.302   2.553  24.568  0.00  0.00    +0.057 A 
ENDBRANCH  19  22
ENDBRANCH  17  19
ENDBRANCH   4  17
TORSDOF 5
ENDMDL
MODEL 4
REMARK VINA RESULT:      -7.7      4.228      5.966
REMARK  Name = 
REMARK  6 active torsions:
REMARK  status: ('A' for Active; 'I' for Inactive)
REMARK    1  A    between atoms: C_2  and  C_3
REMARK    2  A    between atoms: C_2  and  N_4
REMARK    3  A    between atoms: C_2  and  C_25
REMARK    4  A    between atoms: C_7  and  N_9
REMARK    5  A    between atoms: N_9  and  S_10
REMARK    6  A    between atoms: S_10  and  C_13
REMARK                            x       y       z     vdW  Elec       q    Type
REMARK                         _______ _______ _______ _____ _____    ______ ____
ROOT
ATOM      1  N   UNL     1       4.780  -6.194  26.918  0.00  0.00    -0.289 N 
ATOM      2  C   UNL     1       5.504  -6.046  25.747  0.00  0.00    +0.235 C 
ATOM      3  O   UNL     1       5.173  -6.466  24.648  0.00  0.00    -0.274 OA
ATOM      4  C   UNL     1       6.760  -5.227  26.062  0.00  0.00    +0.164 C 
ATOM      5  C   UNL     1       6.434  -4.659  27.442  0.00  0.00    +0.049 C 
ATOM      6  C   UNL     1       5.489  -5.666  28.058  0.00  0.00    +0.110 C 
ENDROOT
BRANCH   1   7
ATOM      7  C   UNL     1       3.379  -6.635  26.960  0.00  0.00    +0.159 C 
ATOM      8  C   UNL     1       2.949  -6.906  28.398  0.00  0.00    +0.038 C 
BRANCH   7   9
ATOM      9  C   UNL     1       2.435  -5.614  26.246  0.00  0.00    +0.236 C 
ATOM     10  N   UNL     1       1.569  -6.093  25.273  0.00  0.00    -0.296 N 
ATOM     11  C   UNL     1       1.760  -7.320  24.492  0.00  0.00    +0.136 C 
ATOM     12  C   UNL     1       1.951  -6.978  23.009  0.00  0.00    +0.179 C 
ATOM     13  O   UNL     1       0.854  -6.192  22.517  0.00  0.00    -0.377 OA
ATOM     14  C   UNL     1       0.752  -4.954  23.241  0.00  0.00    +0.179 C 
ATOM     15  C   UNL     1       0.526  -5.214  24.732  0.00  0.00    +0.136 C 
ATOM     16  O   UNL     1       2.431  -4.421  26.565  0.00  0.00    -0.274 OA
ENDBRANCH   7   9
ENDBRANCH   1   7
BRANCH   4  17
ATOM     17  N   UNL     1       6.899  -4.181  25.031  0.00  0.00    -0.177 NA
ATOM     18  H   UNL     1       6.978  -3.238  25.417  0.00  0.00    +0.149 HD
BRANCH  17  19
ATOM     19  S   UNL     1       7.953  -4.380  23.763  0.00  0.00    +0.074 S 
ATOM     20  O   UNL     1       7.213  -4.560  22.537  0.00  0.00    -0.152 OA
ATOM     21  O   UNL     1       8.958  -5.324  24.194  0.00  0.00    -0.152 OA
BRANCH  19  22
ATOM     22  C   UNL     1       8.848  -2.881  23.522  0.00  0.00    +0.173 A 
ATOM     23  N   UNL     1       8.841  -2.280  22.283  0.00  0.00    -0.339 N 
ATOM     24  H   UNL     1       8.390  -2.686  21.473  0.00  0.00    +0.167 HD
ATOM     25  C   UNL     1       9.317  -0.993  22.369  0.00  0.00    +0.048 A 
ATOM     26  C   UNL     1       9.336   0.026  21.411  0.00  0.00    +0.027 A 
ATOM     27  C   UNL     1       9.803   1.279  21.817  0.00  0.00    +0.022 A 
ATOM     28  C   UNL     1      10.262   1.482  23.117  0.00  0.00    +0.042 A 
ATOM     29  C   UNL     1      10.277   0.443  24.053  0.00  0.00    +0.030 A 
ATOM     30 CL   UNL     1      10.784   3.054  23.595  0.00  0.00    -0.084 Cl
ATOM     31  C   UNL     1       9.776  -0.816  23.674  0.00  0.00    +0.003 A 
ATOM     32  C   UNL     1       9.544  -2.035  24.368  0.00  0.00    +0.057 A 
ENDBRANCH  19  22
ENDBRANCH  17  19
ENDBRANCH   4  17
TORSDOF 5
ENDMDL
MODEL 5
REMARK VINA RESULT:      -7.7      3.657      8.330
REMARK  Name = 
REMARK  6 active torsions:
REMARK  status: ('A' for Active; 'I' for Inactive)
REMARK    1  A    between atoms: C_2  and  C_3
REMARK    2  A    between atoms: C_2  and  N_4
REMARK    3  A    between atoms: C_2  and  C_25
REMARK    4  A    between atoms: C_7  and  N_9
REMARK    5  A    between atoms: N_9  and  S_10
REMARK    6  A    between atoms: S_10  and  C_13
REMARK                            x       y       z     vdW  Elec       q    Type
REMARK                         _______ _______ _______ _____ _____    ______ ____
ROOT
ATOM      1  N   UNL     1       9.491  -0.100  23.159  0.00  0.00    -0.289 N 
ATOM      2  C   UNL     1       9.777  -0.767  24.339  0.00  0.00    +0.235 C 
ATOM      3  O   UNL     1      10.108  -0.242  25.392  0.00  0.00    -0.274 OA
ATOM      4  C   UNL     1       9.557  -2.266  24.105  0.00  0.00    +0.164 C 
ATOM      5  C   UNL     1       8.783  -2.274  22.788  0.00  0.00    +0.049 C 
ATOM      6  C   UNL     1       9.223  -1.014  22.077  0.00  0.00    +0.110 C 
ENDROOT
BRANCH   1   7
ATOM      7  C   UNL     1       9.277   1.351  23.075  0.00  0.00    +0.159 C 
ATOM      8  C   UNL     1      10.028   1.931  21.882  0.00  0.00    +0.038 C 
BRANCH   7   9
ATOM      9  C   UNL     1       7.755   1.705  23.043  0.00  0.00    +0.236 C 
ATOM     10  N   UNL     1       7.192   2.276  24.175  0.00  0.00    -0.296 N 
ATOM     11  C   UNL     1       7.706   2.142  25.542  0.00  0.00    +0.136 C 
ATOM     12  C   UNL     1       6.702   1.374  26.412  0.00  0.00    +0.179 C 
ATOM     13  O   UNL     1       5.410   2.002  26.381  0.00  0.00    -0.377 OA
ATOM     14  C   UNL     1       4.892   2.033  25.041  0.00  0.00    +0.179 C 
ATOM     15  C   UNL     1       5.828   2.815  24.115  0.00  0.00    +0.136 C 
ATOM     16  O   UNL     1       7.081   1.520  22.025  0.00  0.00    -0.274 OA
ENDBRANCH   7   9
ENDBRANCH   1   7
BRANCH   4  17
ATOM     17  N   UNL     1       8.770  -2.797  25.234  0.00  0.00    -0.177 NA
ATOM     18  H   UNL     1       7.808  -2.451  25.258  0.00  0.00    +0.149 HD
BRANCH  17  19
ATOM     19  S   UNL     1       8.814  -4.416  25.606  0.00  0.00    +0.074 S 
ATOM     20  O   UNL     1       8.740  -4.590  27.037  0.00  0.00    -0.152 OA
ATOM     21  O   UNL     1       9.875  -5.001  24.818  0.00  0.00    -0.152 OA
BRANCH  19  22
ATOM     22  C   UNL     1       7.351  -5.184  24.992  0.00  0.00    +0.173 A 
ATOM     23  N   UNL     1       6.560  -5.915  25.849  0.00  0.00    -0.339 N 
ATOM     24  H   UNL     1       6.803  -6.087  26.817  0.00  0.00    +0.167 HD
ATOM     25  C   UNL     1       5.334  -6.164  25.279  0.00  0.00    +0.048 A 
ATOM     26  C   UNL     1       4.177  -6.718  25.838  0.00  0.00    +0.027 A 
ATOM     27  C   UNL     1       3.035  -6.763  25.033  0.00  0.00    +0.022 A 
ATOM     28  C   UNL     1       3.070  -6.303  23.718  0.00  0.00    +0.042 A 
ATOM     29  C   UNL     1       4.244  -5.791  23.159  0.00  0.00    +0.030 A 
ATOM     30 CL   UNL     1       1.629  -6.330  22.773  0.00  0.00    -0.084 Cl
ATOM     31  C   UNL     1       5.395  -5.703  23.965  0.00  0.00    +0.003 A 
ATOM     32  C   UNL     1       6.694  -5.156  23.774  0.00  0.00    +0.057 A 
ENDBRANCH  19  22
ENDBRANCH  17  19
ENDBRANCH   4  17
TORSDOF 5
ENDMDL
MODEL 6
REMARK VINA RESULT:      -7.6      3.790      8.508
REMARK  Name = 
REMARK  6 active torsions:
REMARK  status: ('A' for Active; 'I' for Inactive)
REMARK    1  A    between atoms: C_2  and  C_3
REMARK    2  A    between atoms: C_2  and  N_4
REMARK    3  A    between atoms: C_2  and  C_25
REMARK    4  A    between atoms: C_7  and  N_9
REMARK    5  A    between atoms: N_9  and  S_10
REMARK    6  A    between atoms: S_10  and  C_13
REMARK                            x       y       z     vdW  Elec       q    Type
REMARK                         _______ _______ _______ _____ _____    ______ ____
ROOT
ATOM      1  N   UNL     1       9.784  -0.434  23.510  0.00  0.00    -0.289 N 
ATOM      2  C   UNL     1       9.018  -1.524  23.890  0.00  0.00    +0.235 C 
ATOM      3  O   UNL     1       8.737  -1.831  25.039  0.00  0.00    -0.274 OA
ATOM      4  C   UNL     1       8.549  -2.244  22.621  0.00  0.00    +0.164 C 
ATOM      5  C   UNL     1       8.850  -1.210  21.537  0.00  0.00    +0.049 C 
ATOM      6  C   UNL     1      10.007  -0.406  22.085  0.00  0.00    +0.110 C 
ENDROOT
BRANCH   1   7
ATOM      7  C   UNL     1      10.139   0.667  24.414  0.00  0.00    +0.159 C 
ATOM      8  C   UNL     1      11.602   0.561  24.833  0.00  0.00    +0.038 C 
BRANCH   7   9
ATOM      9  C   UNL     1       9.806   2.058  23.784  0.00  0.00    +0.236 C 
ATOM     10  N   UNL     1       8.488   2.491  23.814  0.00  0.00    -0.296 N 
ATOM     11  C   UNL     1       7.309   1.625  23.914  0.00  0.00    +0.136 C 
ATOM     12  C   UNL     1       6.468   1.726  22.634  0.00  0.00    +0.179 C 
ATOM     13  O   UNL     1       6.113   3.091  22.360  0.00  0.00    -0.377 OA
ATOM     14  C   UNL     1       7.290   3.895  22.174  0.00  0.00    +0.179 C 
ATOM     15  C   UNL     1       8.167   3.870  23.428  0.00  0.00    +0.136 C 
ATOM     16  O   UNL     1      10.695   2.769  23.308  0.00  0.00    -0.274 OA
ENDBRANCH   7   9
ENDBRANCH   1   7
BRANCH   4  17
ATOM     17  N   UNL     1       7.107  -2.525  22.758  0.00  0.00    -0.177 NA
ATOM     18  H   UNL     1       6.511  -1.791  22.368  0.00  0.00    +0.149 HD
BRANCH  17  19
ATOM     19  S   UNL     1       6.500  -4.026  22.384  0.00  0.00    +0.074 S 
ATOM     20  O   UNL     1       7.486  -4.782  21.651  0.00  0.00    -0.152 OA
ATOM     21  O   UNL     1       5.160  -3.825  21.881  0.00  0.00    -0.152 OA
BRANCH  19  22
ATOM     22  C   UNL     1       6.266  -4.936  23.876  0.00  0.00    +0.173 A 
ATOM     23  N   UNL     1       7.118  -4.727  24.937  0.00  0.00    -0.339 N 
ATOM     24  H   UNL     1       7.921  -4.111  24.890  0.00  0.00    +0.167 HD
ATOM     25  C   UNL     1       6.601  -5.276  26.086  0.00  0.00    +0.048 A 
ATOM     26  C   UNL     1       7.036  -5.167  27.411  0.00  0.00    +0.027 A 
ATOM     27  C   UNL     1       6.245  -5.766  28.396  0.00  0.00    +0.022 A 
ATOM     28  C   UNL     1       5.092  -6.470  28.055  0.00  0.00    +0.042 A 
ATOM     29  C   UNL     1       4.692  -6.607  26.723  0.00  0.00    +0.030 A 
ATOM     30 CL   UNL     1       4.117  -7.152  29.302  0.00  0.00    -0.084 Cl
ATOM     31  C   UNL     1       5.454  -5.980  25.719  0.00  0.00    +0.003 A 
ATOM     32  C   UNL     1       5.296  -5.820  24.315  0.00  0.00    +0.057 A 
ENDBRANCH  19  22
ENDBRANCH  17  19
ENDBRANCH   4  17
TORSDOF 5
ENDMDL
MODEL 7
REMARK VINA RESULT:      -7.6      3.853      5.969
REMARK  Name = 
REMARK  6 active torsions:
REMARK  status: ('A' for Active; 'I' for Inactive)
REMARK    1  A    between atoms: C_2  and  C_3
REMARK    2  A    between atoms: C_2  and  N_4
REMARK    3  A    between atoms: C_2  and  C_25
REMARK    4  A    between atoms: C_7  and  N_9
REMARK    5  A    between atoms: N_9  and  S_10
REMARK    6  A    between atoms: S_10  and  C_13
REMARK                            x       y       z     vdW  Elec       q    Type
REMARK                         _______ _______ _______ _____ _____    ______ ____
ROOT
ATOM      1  N   UNL     1       4.755  -5.106  23.671  0.00  0.00    -0.289 N 
ATOM      2  C   UNL     1       5.799  -4.626  24.444  0.00  0.00    +0.235 C 
ATOM      3  O   UNL     1       5.692  -4.125  25.553  0.00  0.00    -0.274 OA
ATOM      4  C   UNL     1       7.108  -4.878  23.687  0.00  0.00    +0.164 C 
ATOM      5  C   UNL     1       6.668  -5.861  22.604  0.00  0.00    +0.049 C 
ATOM      6  C   UNL     1       5.206  -5.549  22.375  0.00  0.00    +0.110 C 
ENDROOT
BRANCH   1   7
ATOM      7  C   UNL     1       3.399  -5.334  24.185  0.00  0.00    +0.159 C 
ATOM      8  C   UNL     1       2.452  -5.702  23.047  0.00  0.00    +0.038 C 
BRANCH   7   9
ATOM      9  C   UNL     1       3.390  -6.402  25.327  0.00  0.00    +0.236 C 
ATOM     10  N   UNL     1       2.787  -6.068  26.531  0.00  0.00    -0.296 N 
ATOM     11  C   UNL     1       2.594  -4.706  27.038  0.00  0.00    +0.136 C 
ATOM     12  C   UNL     1       3.417  -4.496  28.316  0.00  0.00    +0.179 C 
ATOM     13  O   UNL     1       3.094  -5.489  29.303  0.00  0.00    -0.377 OA
ATOM     14  C   UNL     1       3.383  -6.808  28.810  0.00  0.00    +0.179 C 
ATOM     15  C   UNL     1       2.570  -7.105  27.547  0.00  0.00    +0.136 C 
ATOM     16  O   UNL     1       3.871  -7.525  25.150  0.00  0.00    -0.274 OA
ENDBRANCH   7   9
ENDBRANCH   1   7
BRANCH   4  17
ATOM     17  N   UNL     1       8.079  -5.464  24.631  0.00  0.00    -0.177 NA
ATOM     18  H   UNL     1       8.498  -6.335  24.295  0.00  0.00    +0.149 HD
BRANCH  17  19
ATOM     19  S   UNL     1       9.228  -4.512  25.361  0.00  0.00    +0.074 S 
ATOM     20  O   UNL     1      10.546  -4.975  25.003  0.00  0.00    -0.152 OA
ATOM     21  O   UNL     1       8.824  -4.346  26.739  0.00  0.00    -0.152 OA
BRANCH  19  22
ATOM     22  C   UNL     1       9.134  -2.885  24.689  0.00  0.00    +0.173 A 
ATOM     23  N   UNL     1       9.920  -2.553  23.608  0.00  0.00    -0.339 N 
ATOM     24  H   UNL     1      10.603  -3.183  23.205  0.00  0.00    +0.167 HD
ATOM     25  C   UNL     1       9.490  -1.377  23.042  0.00  0.00    +0.048 A 
ATOM     26  C   UNL     1       9.878  -0.756  21.850  0.00  0.00    +0.027 A 
ATOM     27  C   UNL     1       9.190   0.402  21.477  0.00  0.00    +0.022 A 
ATOM     28  C   UNL     1       8.184   0.926  22.286  0.00  0.00    +0.042 A 
ATOM     29  C   UNL     1       7.835   0.319  23.496  0.00  0.00    +0.030 A 
ATOM     30 CL   UNL     1       7.325   2.328  21.768  0.00  0.00    -0.084 Cl
ATOM     31  C   UNL     1       8.490  -0.869  23.871  0.00  0.00    +0.003 A 
ATOM     32  C   UNL     1       8.328  -1.789  24.943  0.00  0.00    +0.057 A 
ENDBRANCH  19  22
ENDBRANCH  17  19
ENDBRANCH   4  17
TORSDOF 5
ENDMDL
MODEL 8
REMARK VINA RESULT:      -7.5      2.781      3.274
REMARK  Name = 
REMARK  6 active torsions:
REMARK  status: ('A' for Active; 'I' for Inactive)
REMARK    1  A    between atoms: C_2  and  C_3
REMARK    2  A    between atoms: C_2  and  N_4
REMARK    3  A    between atoms: C_2  and  C_25
REMARK    4  A    between atoms: C_7  and  N_9
REMARK    5  A    between atoms: N_9  and  S_10
REMARK    6  A    between atoms: S_10  and  C_13
REMARK                            x       y       z     vdW  Elec       q    Type
REMARK                         _______ _______ _______ _____ _____    ______ ____
ROOT
ATOM      1  N   UNL     1       8.606  -3.144  25.264  0.00  0.00    -0.289 N 
ATOM      2  C   UNL     1       8.493  -2.036  24.441  0.00  0.00    +0.235 C 
ATOM      3  O   UNL     1       8.633  -2.033  23.227  0.00  0.00    -0.274 OA
ATOM      4  C   UNL     1       8.116  -0.832  25.311  0.00  0.00    +0.164 C 
ATOM      5  C   UNL     1       7.693  -1.501  26.618  0.00  0.00    +0.049 C 
ATOM      6  C   UNL     1       8.475  -2.794  26.657  0.00  0.00    +0.110 C 
ENDROOT
BRANCH   1   7
ATOM      7  C   UNL     1       8.637  -4.526  24.769  0.00  0.00    +0.159 C 
ATOM      8  C   UNL     1       9.816  -5.282  25.373  0.00  0.00    +0.038 C 
BRANCH   7   9
ATOM      9  C   UNL     1       7.279  -5.257  25.019  0.00  0.00    +0.236 C 
ATOM     10  N   UNL     1       6.403  -5.395  23.952  0.00  0.00    -0.296 N 
ATOM     11  C   UNL     1       6.365  -4.535  22.765  0.00  0.00    +0.136 C 
ATOM     12  C   UNL     1       5.038  -3.766  22.710  0.00  0.00    +0.179 C 
ATOM     13  O   UNL     1       3.920  -4.668  22.759  0.00  0.00    -0.377 OA
ATOM     14  C   UNL     1       3.934  -5.429  23.978  0.00  0.00    +0.179 C 
ATOM     15  C   UNL     1       5.220  -6.253  24.088  0.00  0.00    +0.136 C 
ATOM     16  O   UNL     1       7.008  -5.733  26.125  0.00  0.00    -0.274 OA
ENDBRANCH   7   9
ENDBRANCH   1   7
BRANCH   4  17
ATOM     17  N   UNL     1       7.008  -0.115  24.651  0.00  0.00    -0.177 NA
ATOM     18  H   UNL     1       6.128  -0.636  24.653  0.00  0.00    +0.149 HD
BRANCH  17  19
ATOM     19  S   UNL     1       6.732   1.491  24.969  0.00  0.00    +0.074 S 
ATOM     20  O   UNL     1       6.838   1.733  26.388  0.00  0.00    -0.152 OA
ATOM     21  O   UNL     1       5.562   1.876  24.213  0.00  0.00    -0.152 OA
BRANCH  19  22
ATOM     22  C   UNL     1       8.033   2.447  24.261  0.00  0.00    +0.173 A 
ATOM     23  N   UNL     1       7.986   3.821  24.343  0.00  0.00    -0.339 N 
ATOM     24  H   UNL     1       7.204   4.325  24.744  0.00  0.00    +0.167 HD
ATOM     25  C   UNL     1       9.207   4.365  24.025  0.00  0.00    +0.048 A 
ATOM     26  C   UNL     1       9.660   5.685  24.132  0.00  0.00    +0.027 A 
ATOM     27  C   UNL     1      11.000   5.930  23.818  0.00  0.00    +0.022 A 
ATOM     28  C   UNL     1      11.831   4.898  23.385  0.00  0.00    +0.042 A 
ATOM     29  C   UNL     1      11.354   3.592  23.243  0.00  0.00    +0.030 A 
ATOM     30 CL   UNL     1      13.490   5.230  23.055  0.00  0.00    -0.084 Cl
ATOM     31  C   UNL     1      10.018   3.318  23.589  0.00  0.00    +0.003 A 
ATOM     32  C   UNL     1       9.244   2.128  23.671  0.00  0.00    +0.057 A 
ENDBRANCH  19  22
ENDBRANCH  17  19
ENDBRANCH   4  17
TORSDOF 5
ENDMDL
MODEL 9
REMARK VINA RESULT:      -7.4      3.408      8.087
REMARK  Name = 
REMARK  6 active torsions:
REMARK  status: ('A' for Active; 'I' for Inactive)
REMARK    1  A    between atoms: C_2  and  C_3
REMARK    2  A    between atoms: C_2  and  N_4
REMARK    3  A    between atoms: C_2  and  C_25
REMARK    4  A    between atoms: C_7  and  N_9
REMARK    5  A    between atoms: N_9  and  S_10
REMARK    6  A    between atoms: S_10  and  C_13
REMARK                            x       y       z     vdW  Elec       q    Type
REMARK                         _______ _______ _______ _____ _____    ______ ____
ROOT
ATOM      1  N   UNL     1       9.287   3.394  24.324  0.00  0.00    -0.289 N 
ATOM      2  C   UNL     1       9.072   2.042  24.534  0.00  0.00    +0.235 C 
ATOM      3  O   UNL     1       8.210   1.561  25.256  0.00  0.00    -0.274 OA
ATOM      4  C   UNL     1      10.067   1.260  23.670  0.00  0.00    +0.164 C 
ATOM      5  C   UNL     1      10.580   2.339  22.718  0.00  0.00    +0.049 C 
ATOM      6  C   UNL     1      10.439   3.630  23.490  0.00  0.00    +0.110 C 
ENDROOT
BRANCH   1   7
ATOM      7  C   UNL     1       8.336   4.441  24.720  0.00  0.00    +0.159 C 
ATOM      8  C   UNL     1       9.070   5.749  24.998  0.00  0.00    +0.038 C 
BRANCH   7   9
ATOM      9  C   UNL     1       7.201   4.616  23.660  0.00  0.00    +0.236 C 
ATOM     10  N   UNL     1       5.891   4.392  24.061  0.00  0.00    -0.296 N 
ATOM     11  C   UNL     1       5.478   3.552  25.190  0.00  0.00    +0.136 C 
ATOM     12  C   UNL     1       4.681   2.342  24.685  0.00  0.00    +0.179 C 
ATOM     13  O   UNL     1       3.562   2.760  23.888  0.00  0.00    -0.377 OA
ATOM     14  C   UNL     1       4.006   3.500  22.738  0.00  0.00    +0.179 C 
ATOM     15  C   UNL     1       4.786   4.747  23.164  0.00  0.00    +0.136 C 
ATOM     16  O   UNL     1       7.456   4.982  22.510  0.00  0.00    -0.274 OA
ENDBRANCH   7   9
ENDBRANCH   1   7
BRANCH   4  17
ATOM     17  N   UNL     1       9.330   0.187  22.975  0.00  0.00    -0.177 NA
ATOM     18  H   UNL     1       9.306   0.302  21.959  0.00  0.00    +0.149 HD
BRANCH  17  19
ATOM     19  S   UNL     1       9.583  -1.406  23.373  0.00  0.00    +0.074 S 
ATOM     20  O   UNL     1       9.730  -1.535  24.803  0.00  0.00    -0.152 OA
ATOM     21  O   UNL     1      10.573  -1.918  22.453  0.00  0.00    -0.152 OA
BRANCH  19  22
ATOM     22  C   UNL     1       8.129  -2.328  22.995  0.00  0.00    +0.173 A 
ATOM     23  N   UNL     1       8.248  -3.617  22.525  0.00  0.00    -0.339 N 
ATOM     24  H   UNL     1       9.140  -4.054  22.327  0.00  0.00    +0.167 HD
ATOM     25  C   UNL     1       7.038  -4.266  22.587  0.00  0.00    +0.048 A 
ATOM     26  C   UNL     1       6.728  -5.614  22.373  0.00  0.00    +0.027 A 
ATOM     27  C   UNL     1       5.407  -6.011  22.602  0.00  0.00    +0.022 A 
ATOM     28  C   UNL     1       4.441  -5.085  22.993  0.00  0.00    +0.042 A 
ATOM     29  C   UNL     1       4.757  -3.734  23.162  0.00  0.00    +0.030 A 
ATOM     30 CL   UNL     1       2.835  -5.622  23.313  0.00  0.00    -0.084 Cl
ATOM     31  C   UNL     1       6.089  -3.320  22.972  0.00  0.00    +0.003 A 
ATOM     32  C   UNL     1       6.775  -2.088  23.153  0.00  0.00    +0.057 A 
ENDBRANCH  19  22
ENDBRANCH  17  19
ENDBRANCH   4  17
TORSDOF 5
ENDMDL
