MODEL 1
REMARK VINA RESULT:      -6.1      0.000      0.000
REMARK  Name = 
REMARK  16 active torsions:
REMARK  status: ('A' for Active; 'I' for Inactive)
REMARK    1  A    between atoms: N_1  and  C_2
REMARK    2  A    between atoms: C_2  and  C_4
REMARK    3  A    between atoms: C_2  and  C_32
REMARK    4  A    between atoms: C_4  and  C_5
REMARK    5  A    between atoms: C_5  and  C_6
REMARK    6  A    between atoms: N_8  and  C_9
REMARK    7  A    between atoms: C_9  and  C_11
REMARK    8  A    between atoms: C_9  and  C_25
REMARK    9  A    between atoms: C_11  and  S_12
REMARK   10  A    between atoms: S_12  and  C_13
REMARK   11  A    between atoms: C_16  and  N_22
REMARK   12  A    between atoms: C_18  and  N_19
REMARK   13  A    between atoms: N_27  and  CA_28
REMARK   14  A    between atoms: CA_28  and  C_29
REMARK   15  A    between atoms: C_29  and  O_30
REMARK   16  A    between atoms: C_32  and  O_33
REMARK                            x       y       z     vdW  Elec       q    Type
REMARK                         _______ _______ _______ _____ _____    ______ ____
ROOT
ATOM      1  C   UNK A   1       7.495  -5.265  25.799  0.00  0.00    +0.169 C 
ENDROOT
BRANCH   1   2
ATOM      2  C   UNK A   1       8.033  -5.207  24.358  0.00  0.00    +0.235 C 
ATOM      3  N   GLY A   2       7.081  -5.288  23.366  0.00  0.00    -0.303 N 
ATOM      4  H   GLY A   2       6.157  -5.639  23.614  0.00  0.00    +0.149 HD
ATOM      5  O   UNK A   1       9.201  -4.905  24.127  0.00  0.00    -0.274 OA
BRANCH   3   6
ATOM      6  CA  GLY A   2       7.403  -5.142  21.952  0.00  0.00    +0.224 C 
BRANCH   6   7
ATOM      7  C   GLY A   2       6.153  -5.134  21.077  0.00  0.00    +0.322 C 
ATOM      8  OXT GLY A   2       5.752  -4.151  20.472  0.00  0.00    -0.249 OA
BRANCH   7   9
ATOM      9  O   GLY A   2       5.520  -6.332  21.006  0.00  0.00    -0.480 OA
ATOM     10  H   GLY A   2       5.839  -6.931  21.710  0.00  0.00    +0.295 HD
ENDBRANCH   7   9
ENDBRANCH   6   7
ENDBRANCH   3   6
ENDBRANCH   1   2
BRANCH   1  12
ATOM     11  C   UNK A   1       5.203  -6.027  26.573  0.00  0.00    +0.214 C 
ATOM     12  N   UNK A   1       6.025  -5.173  25.879  0.00  0.00    -0.303 N 
ATOM     13  H   UNK A   1       5.592  -4.478  25.283  0.00  0.00    +0.149 HD
ATOM     14  O   UNK A   1       5.644  -6.915  27.296  0.00  0.00    -0.276 OA
BRANCH  11  15
ATOM     15  C   UNK A   1       3.729  -5.702  26.410  0.00  0.00    +0.098 C 
BRANCH  15  16
ATOM     16  C   UNK A   1       2.963  -6.812  25.687  0.00  0.00    +0.039 C 
BRANCH  16  17
ATOM     17  C   UNK A   1       3.155  -6.834  24.165  0.00  0.00    +0.161 C 
BRANCH  17  18
ATOM     18  N   UNK A   1       4.538  -7.188  23.746  0.00  0.00    -0.318 NA
ATOM     19  H   UNK A   1       4.591  -7.212  22.723  0.00  0.00    +0.119 HD
ATOM     20  H   UNK A   1       5.158  -6.416  24.012  0.00  0.00    +0.119 HD
ENDBRANCH  17  18
BRANCH  17  21
ATOM     21  C   UNK A   1       2.769  -5.498  23.503  0.00  0.00    +0.322 C 
ATOM     22  O   UNK A   1       1.650  -5.010  23.490  0.00  0.00    -0.249 OA
BRANCH  21  23
ATOM     23  O   UNK A   1       3.849  -4.913  22.922  0.00  0.00    -0.480 OA
ATOM     24  H   UNK A   1       3.519  -4.490  22.090  0.00  0.00    +0.295 HD
ENDBRANCH  21  23
ENDBRANCH  17  21
ENDBRANCH  16  17
ENDBRANCH  15  16
ENDBRANCH  11  15
ENDBRANCH   1  12
BRANCH   1  25
ATOM     25  C   UNK A   1       8.285  -4.222  26.615  0.00  0.00    +0.106 C 
BRANCH  25  26
ATOM     26  S   UNK A   1       7.399  -2.633  26.689  0.00  0.00    -0.116 S 
BRANCH  26  27
ATOM     27  C   UNK A   1       7.930  -1.725  25.237  0.00  0.00    +0.086 A 
ATOM     28  C   UNK A   1       6.969  -1.298  24.302  0.00  0.00    +0.293 A 
ATOM     29  C   UNK A   1       7.267  -0.418  23.243  0.00  0.00    +0.169 A 
ATOM     30  C   UNK A   1       8.583   0.005  23.090  0.00  0.00    +0.280 A 
ATOM     31  C   UNK A   1       9.591  -0.488  23.932  0.00  0.00    +0.086 A 
ATOM     32  C   UNK A   1       9.262  -1.340  25.000  0.00  0.00    +0.028 A 
BRANCH  30  33
ATOM     33  N   UNK A   1       8.906   0.999  22.057  0.00  0.00    +0.080 N 
ATOM     34  O   UNK A   1      10.105   1.236  21.850  0.00  0.00    +0.041 OA
ATOM     35  O   UNK A   1       7.966   1.523  21.445  0.00  0.00    -0.576 OA
ENDBRANCH  30  33
BRANCH  28  36
ATOM     36  N   UNK A   1       5.600  -1.768  24.385  0.00  0.00    +0.081 N 
ATOM     37  O   UNK A   1       4.808  -1.068  25.027  0.00  0.00    +0.041 OA
ATOM     38  O   UNK A   1       5.315  -2.795  23.754  0.00  0.00    -0.576 OA
ENDBRANCH  28  36
ENDBRANCH  26  27
ENDBRANCH  25  26
ENDBRANCH   1  25
TORSDOF 16
ENDMDL
MODEL 2
REMARK VINA RESULT:      -6.0      3.066      8.659
REMARK  Name = 
REMARK  16 active torsions:
REMARK  status: ('A' for Active; 'I' for Inactive)
REMARK    1  A    between atoms: N_1  and  C_2
REMARK    2  A    between atoms: C_2  and  C_4
REMARK    3  A    between atoms: C_2  and  C_32
REMARK    4  A    between atoms: C_4  and  C_5
REMARK    5  A    between atoms: C_5  and  C_6
REMARK    6  A    between atoms: N_8  and  C_9
REMARK    7  A    between atoms: C_9  and  C_11
REMARK    8  A    between atoms: C_9  and  C_25
REMARK    9  A    between atoms: C_11  and  S_12
REMARK   10  A    between atoms: S_12  and  C_13
REMARK   11  A    between atoms: C_16  and  N_22
REMARK   12  A    between atoms: C_18  and  N_19
REMARK   13  A    between atoms: N_27  and  CA_28
REMARK   14  A    between atoms: CA_28  and  C_29
REMARK   15  A    between atoms: C_29  and  O_30
REMARK   16  A    between atoms: C_32  and  O_33
REMARK                            x       y       z     vdW  Elec       q    Type
REMARK                         _______ _______ _______ _____ _____    ______ ____
ROOT
ATOM      1  C   UNK A   1       8.635  -1.071  23.499  0.00  0.00    +0.169 C 
ENDROOT
BRANCH   1   2
ATOM      2  C   UNK A   1       9.306  -2.239  24.245  0.00  0.00    +0.235 C 
ATOM      3  N   GLY A   2       8.632  -2.700  25.354  0.00  0.00    -0.303 N 
ATOM      4  H   GLY A   2       7.912  -2.104  25.761  0.00  0.00    +0.149 HD
ATOM      5  O   UNK A   1      10.263  -2.838  23.759  0.00  0.00    -0.274 OA
BRANCH   3   6
ATOM      6  CA  GLY A   2       9.068  -3.865  26.113  0.00  0.00    +0.224 C 
BRANCH   6   7
ATOM      7  C   GLY A   2       8.455  -5.158  25.584  0.00  0.00    +0.322 C 
ATOM      8  OXT GLY A   2       7.632  -5.822  26.197  0.00  0.00    -0.249 OA
BRANCH   7   9
ATOM      9  O   GLY A   2       8.888  -5.510  24.347  0.00  0.00    -0.480 OA
ATOM     10  H   GLY A   2       9.425  -4.793  23.955  0.00  0.00    +0.295 HD
ENDBRANCH   7   9
ENDBRANCH   6   7
ENDBRANCH   3   6
ENDBRANCH   1   2
BRANCH   1  12
ATOM     11  C   UNK A   1       9.454   1.310  23.197  0.00  0.00    +0.214 C 
ATOM     12  N   UNK A   1       9.061   0.254  23.984  0.00  0.00    -0.303 N 
ATOM     13  H   UNK A   1       9.166   0.347  24.987  0.00  0.00    +0.149 HD
ATOM     14  O   UNK A   1       9.386   1.273  21.973  0.00  0.00    -0.276 OA
BRANCH  11  15
ATOM     15  C   UNK A   1       9.892   2.522  23.999  0.00  0.00    +0.098 C 
BRANCH  15  16
ATOM     16  C   UNK A   1      10.945   3.356  23.266  0.00  0.00    +0.039 C 
BRANCH  16  17
ATOM     17  C   UNK A   1      11.051   4.812  23.738  0.00  0.00    +0.161 C 
BRANCH  17  18
ATOM     18  N   UNK A   1      10.070   5.721  23.085  0.00  0.00    -0.318 NA
ATOM     19  H   UNK A   1       9.688   6.370  23.779  0.00  0.00    +0.119 HD
ATOM     20  H   UNK A   1      10.582   6.323  22.432  0.00  0.00    +0.119 HD
ENDBRANCH  17  18
BRANCH  17  21
ATOM     21  C   UNK A   1      12.464   5.393  23.544  0.00  0.00    +0.322 C 
ATOM     22  O   UNK A   1      13.186   5.196  22.579  0.00  0.00    -0.249 OA
BRANCH  21  23
ATOM     23  O   UNK A   1      12.819   6.172  24.599  0.00  0.00    -0.480 OA
ATOM     24  H   UNK A   1      13.689   5.823  24.920  0.00  0.00    +0.295 HD
ENDBRANCH  21  23
ENDBRANCH  17  21
ENDBRANCH  16  17
ENDBRANCH  15  16
ENDBRANCH  11  15
ENDBRANCH   1  12
BRANCH   1  25
ATOM     25  C   UNK A   1       7.118  -1.344  23.513  0.00  0.00    +0.106 C 
BRANCH  25  26
ATOM     26  S   UNK A   1       6.659  -2.577  22.254  0.00  0.00    -0.116 S 
BRANCH  26  27
ATOM     27  C   UNK A   1       5.736  -3.836  23.136  0.00  0.00    +0.086 A 
ATOM     28  C   UNK A   1       5.849  -5.181  22.736  0.00  0.00    +0.293 A 
ATOM     29  C   UNK A   1       5.321  -6.251  23.483  0.00  0.00    +0.169 A 
ATOM     30  C   UNK A   1       4.613  -5.956  24.644  0.00  0.00    +0.280 A 
ATOM     31  C   UNK A   1       4.379  -4.624  25.015  0.00  0.00    +0.086 A 
ATOM     32  C   UNK A   1       4.944  -3.575  24.269  0.00  0.00    +0.028 A 
BRANCH  30  33
ATOM     33  N   UNK A   1       4.136  -7.053  25.497  0.00  0.00    +0.080 N 
ATOM     34  O   UNK A   1       4.394  -6.988  26.707  0.00  0.00    +0.041 OA
ATOM     35  O   UNK A   1       3.488  -7.963  24.960  0.00  0.00    -0.576 OA
ENDBRANCH  30  33
BRANCH  28  36
ATOM     36  N   UNK A   1       6.522  -5.527  21.498  0.00  0.00    +0.081 N 
ATOM     37  O   UNK A   1       7.677  -5.960  21.593  0.00  0.00    +0.041 OA
ATOM     38  O   UNK A   1       5.868  -5.426  20.451  0.00  0.00    -0.576 OA
ENDBRANCH  28  36
ENDBRANCH  26  27
ENDBRANCH  25  26
ENDBRANCH   1  25
TORSDOF 16
ENDMDL
MODEL 3
REMARK VINA RESULT:      -6.0      1.868      5.661
REMARK  Name = 
REMARK  16 active torsions:
REMARK  status: ('A' for Active; 'I' for Inactive)
REMARK    1  A    between atoms: N_1  and  C_2
REMARK    2  A    between atoms: C_2  and  C_4
REMARK    3  A    between atoms: C_2  and  C_32
REMARK    4  A    between atoms: C_4  and  C_5
REMARK    5  A    between atoms: C_5  and  C_6
REMARK    6  A    between atoms: N_8  and  C_9
REMARK    7  A    between atoms: C_9  and  C_11
REMARK    8  A    between atoms: C_9  and  C_25
REMARK    9  A    between atoms: C_11  and  S_12
REMARK   10  A    between atoms: S_12  and  C_13
REMARK   11  A    between atoms: C_16  and  N_22
REMARK   12  A    between atoms: C_18  and  N_19
REMARK   13  A    between atoms: N_27  and  CA_28
REMARK   14  A    between atoms: CA_28  and  C_29
REMARK   15  A    between atoms: C_29  and  O_30
REMARK   16  A    between atoms: C_32  and  O_33
REMARK                            x       y       z     vdW  Elec       q    Type
REMARK                         _______ _______ _______ _____ _____    ______ ____
ROOT
ATOM      1  C   UNK A   1       8.114  -2.553  23.440  0.00  0.00    +0.169 C 
ENDROOT
BRANCH   1   2
ATOM      2  C   UNK A   1       8.969  -1.683  22.500  0.00  0.00    +0.235 C 
ATOM      3  N   GLY A   2       8.449  -0.442  22.204  0.00  0.00    -0.303 N 
ATOM      4  H   GLY A   2       7.458  -0.281  22.386  0.00  0.00    +0.149 HD
ATOM      5  O   UNK A   1      10.119  -2.002  22.208  0.00  0.00    -0.274 OA
BRANCH   3   6
ATOM      6  CA  GLY A   2       9.173   0.548  21.417  0.00  0.00    +0.224 C 
BRANCH   6   7
ATOM      7  C   GLY A   2       9.683   1.701  22.276  0.00  0.00    +0.322 C 
ATOM      8  OXT GLY A   2       9.335   1.895  23.432  0.00  0.00    -0.249 OA
BRANCH   7   9
ATOM      9  O   GLY A   2      10.585   2.500  21.651  0.00  0.00    -0.480 OA
ATOM     10  H   GLY A   2      10.972   2.042  20.879  0.00  0.00    +0.295 HD
ENDBRANCH   7   9
ENDBRANCH   6   7
ENDBRANCH   3   6
ENDBRANCH   1   2
BRANCH   1  12
ATOM     11  C   UNK A   1       7.842  -5.033  22.988  0.00  0.00    +0.214 C 
ATOM     12  N   UNK A   1       7.509  -3.718  22.771  0.00  0.00    -0.303 N 
ATOM     13  H   UNK A   1       6.867  -3.511  22.015  0.00  0.00    +0.149 HD
ATOM     14  O   UNK A   1       8.632  -5.371  23.864  0.00  0.00    -0.276 OA
BRANCH  11  15
ATOM     15  C   UNK A   1       7.079  -5.998  22.099  0.00  0.00    +0.098 C 
BRANCH  15  16
ATOM     16  C   UNK A   1       5.563  -5.833  22.227  0.00  0.00    +0.039 C 
BRANCH  16  17
ATOM     17  C   UNK A   1       5.021  -5.989  23.653  0.00  0.00    +0.161 C 
BRANCH  17  18
ATOM     18  N   UNK A   1       4.419  -7.325  23.917  0.00  0.00    -0.318 NA
ATOM     19  H   UNK A   1       3.403  -7.233  24.004  0.00  0.00    +0.119 HD
ATOM     20  H   UNK A   1       4.549  -7.903  23.081  0.00  0.00    +0.119 HD
ENDBRANCH  17  18
BRANCH  17  21
ATOM     21  C   UNK A   1       3.986  -4.907  24.012  0.00  0.00    +0.322 C 
ATOM     22  O   UNK A   1       2.903  -5.107  24.540  0.00  0.00    -0.249 OA
BRANCH  21  23
ATOM     23  O   UNK A   1       4.433  -3.671  23.664  0.00  0.00    -0.480 OA
ATOM     24  H   UNK A   1       5.412  -3.680  23.811  0.00  0.00    +0.295 HD
ENDBRANCH  21  23
ENDBRANCH  17  21
ENDBRANCH  16  17
ENDBRANCH  15  16
ENDBRANCH  11  15
ENDBRANCH   1  12
BRANCH   1  25
ATOM     25  C   UNK A   1       7.140  -1.604  24.165  0.00  0.00    +0.106 C 
BRANCH  25  26
ATOM     26  S   UNK A   1       7.512  -1.512  25.946  0.00  0.00    -0.116 S 
BRANCH  26  27
ATOM     27  C   UNK A   1       6.892  -3.044  26.641  0.00  0.00    +0.086 A 
ATOM     28  C   UNK A   1       5.528  -3.147  26.974  0.00  0.00    +0.293 A 
ATOM     29  C   UNK A   1       4.918  -4.363  27.339  0.00  0.00    +0.169 A 
ATOM     30  C   UNK A   1       5.714  -5.500  27.420  0.00  0.00    +0.280 A 
ATOM     31  C   UNK A   1       7.098  -5.416  27.207  0.00  0.00    +0.086 A 
ATOM     32  C   UNK A   1       7.677  -4.197  26.814  0.00  0.00    +0.028 A 
BRANCH  30  33
ATOM     33  N   UNK A   1       5.089  -6.800  27.700  0.00  0.00    +0.080 N 
ATOM     34  O   UNK A   1       5.580  -7.484  28.609  0.00  0.00    +0.041 OA
ATOM     35  O   UNK A   1       4.101  -7.123  27.028  0.00  0.00    -0.576 OA
ENDBRANCH  30  33
BRANCH  28  36
ATOM     36  N   UNK A   1       4.677  -1.973  26.967  0.00  0.00    +0.081 N 
ATOM     37  O   UNK A   1       4.714  -1.251  27.971  0.00  0.00    +0.041 OA
ATOM     38  O   UNK A   1       4.031  -1.748  25.934  0.00  0.00    -0.576 OA
ENDBRANCH  28  36
ENDBRANCH  26  27
ENDBRANCH  25  26
ENDBRANCH   1  25
TORSDOF 16
ENDMDL
MODEL 4
REMARK VINA RESULT:      -5.9      2.370      3.928
REMARK  Name = 
REMARK  16 active torsions:
REMARK  status: ('A' for Active; 'I' for Inactive)
REMARK    1  A    between atoms: N_1  and  C_2
REMARK    2  A    between atoms: C_2  and  C_4
REMARK    3  A    between atoms: C_2  and  C_32
REMARK    4  A    between atoms: C_4  and  C_5
REMARK    5  A    between atoms: C_5  and  C_6
REMARK    6  A    between atoms: N_8  and  C_9
REMARK    7  A    between atoms: C_9  and  C_11
REMARK    8  A    between atoms: C_9  and  C_25
REMARK    9  A    between atoms: C_11  and  S_12
REMARK   10  A    between atoms: S_12  and  C_13
REMARK   11  A    between atoms: C_16  and  N_22
REMARK   12  A    between atoms: C_18  and  N_19
REMARK   13  A    between atoms: N_27  and  CA_28
REMARK   14  A    between atoms: CA_28  and  C_29
REMARK   15  A    between atoms: C_29  and  O_30
REMARK   16  A    between atoms: C_32  and  O_33
REMARK                            x       y       z     vdW  Elec       q    Type
REMARK                         _______ _______ _______ _____ _____    ______ ____
ROOT
ATOM      1  C   UNK A   1       7.566  -3.912  22.955  0.00  0.00    +0.169 C 
ENDROOT
BRANCH   1   2
ATOM      2  C   UNK A   1       6.105  -4.166  22.542  0.00  0.00    +0.235 C 
ATOM      3  N   GLY A   2       5.274  -4.615  23.546  0.00  0.00    -0.303 N 
ATOM      4  H   GLY A   2       5.703  -4.998  24.388  0.00  0.00    +0.149 HD
ATOM      5  O   UNK A   1       5.678  -3.798  21.451  0.00  0.00    -0.274 OA
BRANCH   3   6
ATOM      6  CA  GLY A   2       3.842  -4.804  23.357  0.00  0.00    +0.224 C 
BRANCH   6   7
ATOM      7  C   GLY A   2       3.474  -6.277  23.197  0.00  0.00    +0.322 C 
ATOM      8  OXT GLY A   2       2.373  -6.668  22.837  0.00  0.00    -0.249 OA
BRANCH   7   9
ATOM      9  O   GLY A   2       4.489  -7.133  23.476  0.00  0.00    -0.480 OA
ATOM     10  H   GLY A   2       4.748  -7.065  24.416  0.00  0.00    +0.295 HD
ENDBRANCH   7   9
ENDBRANCH   6   7
ENDBRANCH   3   6
ENDBRANCH   1   2
BRANCH   1  12
ATOM     11  C   UNK A   1       8.624  -4.767  25.095  0.00  0.00    +0.214 C 
ATOM     12  N   UNK A   1       7.773  -3.931  24.414  0.00  0.00    -0.303 N 
ATOM     13  H   UNK A   1       7.154  -3.341  24.957  0.00  0.00    +0.149 HD
ATOM     14  O   UNK A   1       9.389  -5.532  24.517  0.00  0.00    -0.276 OA
BRANCH  11  15
ATOM     15  C   UNK A   1       8.569  -4.580  26.600  0.00  0.00    +0.098 C 
BRANCH  15  16
ATOM     16  C   UNK A   1       7.188  -4.125  27.081  0.00  0.00    +0.039 C 
BRANCH  16  17
ATOM     17  C   UNK A   1       6.356  -5.220  27.760  0.00  0.00    +0.161 C 
BRANCH  17  18
ATOM     18  N   UNK A   1       7.174  -6.338  28.303  0.00  0.00    -0.318 NA
ATOM     19  H   UNK A   1       8.087  -5.982  28.601  0.00  0.00    +0.119 HD
ATOM     20  H   UNK A   1       6.735  -6.661  29.170  0.00  0.00    +0.119 HD
ENDBRANCH  17  18
BRANCH  17  21
ATOM     21  C   UNK A   1       5.282  -5.808  26.825  0.00  0.00    +0.322 C 
ATOM     22  O   UNK A   1       5.446  -6.740  26.054  0.00  0.00    -0.249 OA
BRANCH  21  23
ATOM     23  O   UNK A   1       4.101  -5.151  26.966  0.00  0.00    -0.480 OA
ATOM     24  H   UNK A   1       3.391  -5.836  26.883  0.00  0.00    +0.295 HD
ENDBRANCH  21  23
ENDBRANCH  17  21
ENDBRANCH  16  17
ENDBRANCH  15  16
ENDBRANCH  11  15
ENDBRANCH   1  12
BRANCH   1  25
ATOM     25  C   UNK A   1       8.024  -2.637  22.219  0.00  0.00    +0.106 C 
BRANCH  25  26
ATOM     26  S   UNK A   1       9.614  -2.036  22.870  0.00  0.00    -0.116 S 
BRANCH  26  27
ATOM     27  C   UNK A   1       9.446  -0.254  22.965  0.00  0.00    +0.086 A 
ATOM     28  C   UNK A   1       9.043   0.337  24.177  0.00  0.00    +0.293 A 
ATOM     29  C   UNK A   1       9.073   1.727  24.401  0.00  0.00    +0.169 A 
ATOM     30  C   UNK A   1       9.472   2.553  23.355  0.00  0.00    +0.280 A 
ATOM     31  C   UNK A   1       9.772   2.012  22.096  0.00  0.00    +0.086 A 
ATOM     32  C   UNK A   1       9.764   0.619  21.909  0.00  0.00    +0.028 A 
BRANCH  30  33
ATOM     33  N   UNK A   1       9.609   3.997  23.588  0.00  0.00    +0.080 N 
ATOM     34  O   UNK A   1      10.751   4.439  23.774  0.00  0.00    +0.041 OA
ATOM     35  O   UNK A   1       8.580   4.686  23.563  0.00  0.00    -0.576 OA
ENDBRANCH  30  33
BRANCH  28  36
ATOM     36  N   UNK A   1       8.556  -0.483  25.271  0.00  0.00    +0.081 N 
ATOM     37  O   UNK A   1       9.327  -0.658  26.222  0.00  0.00    +0.041 OA
ATOM     38  O   UNK A   1       7.388  -0.887  25.198  0.00  0.00    -0.576 OA
ENDBRANCH  28  36
ENDBRANCH  26  27
ENDBRANCH  25  26
ENDBRANCH   1  25
TORSDOF 16
ENDMDL
MODEL 5
REMARK VINA RESULT:      -5.9      2.255      7.607
REMARK  Name = 
REMARK  16 active torsions:
REMARK  status: ('A' for Active; 'I' for Inactive)
REMARK    1  A    between atoms: N_1  and  C_2
REMARK    2  A    between atoms: C_2  and  C_4
REMARK    3  A    between atoms: C_2  and  C_32
REMARK    4  A    between atoms: C_4  and  C_5
REMARK    5  A    between atoms: C_5  and  C_6
REMARK    6  A    between atoms: N_8  and  C_9
REMARK    7  A    between atoms: C_9  and  C_11
REMARK    8  A    between atoms: C_9  and  C_25
REMARK    9  A    between atoms: C_11  and  S_12
REMARK   10  A    between atoms: S_12  and  C_13
REMARK   11  A    between atoms: C_16  and  N_22
REMARK   12  A    between atoms: C_18  and  N_19
REMARK   13  A    between atoms: N_27  and  CA_28
REMARK   14  A    between atoms: CA_28  and  C_29
REMARK   15  A    between atoms: C_29  and  O_30
REMARK   16  A    between atoms: C_32  and  O_33
REMARK                            x       y       z     vdW  Elec       q    Type
REMARK                         _______ _______ _______ _____ _____    ______ ____
ROOT
ATOM      1  C   UNK A   1       8.419  -2.129  23.916  0.00  0.00    +0.169 C 
ENDROOT
BRANCH   1   2
ATOM      2  C   UNK A   1       8.747  -3.462  24.613  0.00  0.00    +0.235 C 
ATOM      3  N   GLY A   2       7.729  -4.004  25.366  0.00  0.00    -0.303 N 
ATOM      4  H   GLY A   2       6.954  -3.398  25.633  0.00  0.00    +0.149 HD
ATOM      5  O   UNK A   1       9.771  -4.086  24.344  0.00  0.00    -0.274 OA
BRANCH   3   6
ATOM      6  CA  GLY A   2       7.831  -5.310  26.005  0.00  0.00    +0.224 C 
BRANCH   6   7
ATOM      7  C   GLY A   2       6.922  -5.424  27.226  0.00  0.00    +0.322 C 
ATOM      8  OXT GLY A   2       5.851  -4.845  27.333  0.00  0.00    -0.249 OA
BRANCH   7   9
ATOM      9  O   GLY A   2       7.398  -6.247  28.194  0.00  0.00    -0.480 OA
ATOM     10  H   GLY A   2       7.148  -5.916  29.079  0.00  0.00    +0.295 HD
ENDBRANCH   7   9
ENDBRANCH   6   7
ENDBRANCH   3   6
ENDBRANCH   1   2
BRANCH   1  12
ATOM     11  C   UNK A   1      10.251  -0.393  23.665  0.00  0.00    +0.214 C 
ATOM     12  N   UNK A   1       9.252  -1.005  24.382  0.00  0.00    -0.303 N 
ATOM     13  H   UNK A   1       9.135  -0.740  25.353  0.00  0.00    +0.149 HD
ATOM     14  O   UNK A   1      10.478  -0.672  22.492  0.00  0.00    -0.276 OA
BRANCH  11  15
ATOM     15  C   UNK A   1      10.964   0.697  24.445  0.00  0.00    +0.098 C 
BRANCH  15  16
ATOM     16  C   UNK A   1      10.835   2.069  23.779  0.00  0.00    +0.039 C 
BRANCH  16  17
ATOM     17  C   UNK A   1       9.442   2.701  23.883  0.00  0.00    +0.161 C 
BRANCH  17  18
ATOM     18  N   UNK A   1       8.667   2.240  25.067  0.00  0.00    -0.318 NA
ATOM     19  H   UNK A   1       9.307   2.045  25.842  0.00  0.00    +0.119 HD
ATOM     20  H   UNK A   1       8.100   3.026  25.402  0.00  0.00    +0.119 HD
ENDBRANCH  17  18
BRANCH  17  21
ATOM     21  C   UNK A   1       8.592   2.466  22.620  0.00  0.00    +0.322 C 
ATOM     22  O   UNK A   1       7.373   2.503  22.568  0.00  0.00    -0.249 OA
BRANCH  21  23
ATOM     23  O   UNK A   1       9.380   2.205  21.544  0.00  0.00    -0.480 OA
ATOM     24  H   UNK A   1      10.240   2.666  21.714  0.00  0.00    +0.295 HD
ENDBRANCH  21  23
ENDBRANCH  17  21
ENDBRANCH  16  17
ENDBRANCH  15  16
ENDBRANCH  11  15
ENDBRANCH   1  12
BRANCH   1  25
ATOM     25  C   UNK A   1       6.894  -1.934  24.019  0.00  0.00    +0.106 C 
BRANCH  25  26
ATOM     26  S   UNK A   1       6.037  -2.674  22.593  0.00  0.00    -0.116 S 
BRANCH  26  27
ATOM     27  C   UNK A   1       5.057  -4.014  23.271  0.00  0.00    +0.086 A 
ATOM     28  C   UNK A   1       5.390  -5.343  22.948  0.00  0.00    +0.293 A 
ATOM     29  C   UNK A   1       4.805  -6.456  23.582  0.00  0.00    +0.169 A 
ATOM     30  C   UNK A   1       3.818  -6.227  24.534  0.00  0.00    +0.280 A 
ATOM     31  C   UNK A   1       3.376  -4.922  24.801  0.00  0.00    +0.086 A 
ATOM     32  C   UNK A   1       3.998  -3.827  24.177  0.00  0.00    +0.028 A 
BRANCH  30  33
ATOM     33  N   UNK A   1       3.260  -7.361  25.284  0.00  0.00    +0.080 N 
ATOM     34  O   UNK A   1       3.019  -7.186  26.486  0.00  0.00    +0.041 OA
ATOM     35  O   UNK A   1       3.046  -8.412  24.665  0.00  0.00    -0.576 OA
ENDBRANCH  30  33
BRANCH  28  36
ATOM     36  N   UNK A   1       6.366  -5.628  21.913  0.00  0.00    +0.081 N 
ATOM     37  O   UNK A   1       5.976  -5.553  20.742  0.00  0.00    +0.041 OA
ATOM     38  O   UNK A   1       7.527  -5.857  22.279  0.00  0.00    -0.576 OA
ENDBRANCH  28  36
ENDBRANCH  26  27
ENDBRANCH  25  26
ENDBRANCH   1  25
TORSDOF 16
ENDMDL
MODEL 6
REMARK VINA RESULT:      -5.8      1.313      1.643
REMARK  Name = 
REMARK  16 active torsions:
REMARK  status: ('A' for Active; 'I' for Inactive)
REMARK    1  A    between atoms: N_1  and  C_2
REMARK    2  A    between atoms: C_2  and  C_4
REMARK    3  A    between atoms: C_2  and  C_32
REMARK    4  A    between atoms: C_4  and  C_5
REMARK    5  A    between atoms: C_5  and  C_6
REMARK    6  A    between atoms: N_8  and  C_9
REMARK    7  A    between atoms: C_9  and  C_11
REMARK    8  A    between atoms: C_9  and  C_25
REMARK    9  A    between atoms: C_11  and  S_12
REMARK   10  A    between atoms: S_12  and  C_13
REMARK   11  A    between atoms: C_16  and  N_22
REMARK   12  A    between atoms: C_18  and  N_19
REMARK   13  A    between atoms: N_27  and  CA_28
REMARK   14  A    between atoms: CA_28  and  C_29
REMARK   15  A    between atoms: C_29  and  O_30
REMARK   16  A    between atoms: C_32  and  O_33
REMARK                            x       y       z     vdW  Elec       q    Type
REMARK                         _______ _______ _______ _____ _____    ______ ____
ROOT
ATOM      1  C   UNK A   1       8.082  -4.686  25.844  0.00  0.00    +0.169 C 
ENDROOT
BRANCH   1   2
ATOM      2  C   UNK A   1       8.257  -4.487  24.328  0.00  0.00    +0.235 C 
ATOM      3  N   GLY A   2       7.131  -4.710  23.566  0.00  0.00    -0.303 N 
ATOM      4  H   GLY A   2       6.363  -5.232  23.986  0.00  0.00    +0.149 HD
ATOM      5  O   UNK A   1       9.272  -3.971  23.867  0.00  0.00    -0.274 OA
BRANCH   3   6
ATOM      6  CA  GLY A   2       7.091  -4.466  22.130  0.00  0.00    +0.224 C 
BRANCH   6   7
ATOM      7  C   GLY A   2       6.481  -5.637  21.365  0.00  0.00    +0.322 C 
ATOM      8  OXT GLY A   2       5.924  -5.528  20.283  0.00  0.00    -0.249 OA
BRANCH   7   9
ATOM      9  O   GLY A   2       6.623  -6.836  21.985  0.00  0.00    -0.480 OA
ATOM     10  H   GLY A   2       7.467  -7.257  21.728  0.00  0.00    +0.295 HD
ENDBRANCH   7   9
ENDBRANCH   6   7
ENDBRANCH   3   6
ENDBRANCH   1   2
BRANCH   1  12
ATOM     11  C   UNK A   1       6.282  -5.615  27.371  0.00  0.00    +0.214 C 
ATOM     12  N   UNK A   1       6.686  -4.943  26.243  0.00  0.00    -0.303 N 
ATOM     13  H   UNK A   1       5.977  -4.686  25.565  0.00  0.00    +0.149 HD
ATOM     14  O   UNK A   1       7.077  -5.987  28.229  0.00  0.00    -0.276 OA
BRANCH  11  15
ATOM     15  C   UNK A   1       4.776  -5.767  27.469  0.00  0.00    +0.098 C 
BRANCH  15  16
ATOM     16  C   UNK A   1       4.294  -7.134  26.975  0.00  0.00    +0.039 C 
BRANCH  16  17
ATOM     17  C   UNK A   1       3.393  -7.084  25.735  0.00  0.00    +0.161 C 
BRANCH  17  18
ATOM     18  N   UNK A   1       2.808  -8.403  25.372  0.00  0.00    -0.318 NA
ATOM     19  H   UNK A   1       2.182  -8.719  26.118  0.00  0.00    +0.119 HD
ATOM     20  H   UNK A   1       2.190  -8.266  24.566  0.00  0.00    +0.119 HD
ENDBRANCH  17  18
BRANCH  17  21
ATOM     21  C   UNK A   1       4.118  -6.513  24.502  0.00  0.00    +0.322 C 
ATOM     22  O   UNK A   1       4.245  -5.328  24.238  0.00  0.00    -0.249 OA
BRANCH  21  23
ATOM     23  O   UNK A   1       4.614  -7.511  23.723  0.00  0.00    -0.480 OA
ATOM     24  H   UNK A   1       3.843  -7.879  23.222  0.00  0.00    +0.295 HD
ENDBRANCH  21  23
ENDBRANCH  17  21
ENDBRANCH  16  17
ENDBRANCH  15  16
ENDBRANCH  11  15
ENDBRANCH   1  12
BRANCH   1  25
ATOM     25  C   UNK A   1       8.778  -3.496  26.535  0.00  0.00    +0.106 C 
BRANCH  25  26
ATOM     26  S   UNK A   1       7.674  -2.051  26.627  0.00  0.00    -0.116 S 
BRANCH  26  27
ATOM     27  C   UNK A   1       8.256  -0.927  25.357  0.00  0.00    +0.086 A 
ATOM     28  C   UNK A   1       7.327  -0.343  24.475  0.00  0.00    +0.293 A 
ATOM     29  C   UNK A   1       7.663   0.691  23.581  0.00  0.00    +0.169 A 
ATOM     30  C   UNK A   1       8.987   1.118  23.537  0.00  0.00    +0.280 A 
ATOM     31  C   UNK A   1       9.965   0.485  24.318  0.00  0.00    +0.086 A 
ATOM     32  C   UNK A   1       9.597  -0.525  25.224  0.00  0.00    +0.028 A 
BRANCH  30  33
ATOM     33  N   UNK A   1       9.348   2.262  22.688  0.00  0.00    +0.080 N 
ATOM     34  O   UNK A   1       8.536   2.605  21.819  0.00  0.00    +0.041 OA
ATOM     35  O   UNK A   1      10.430   2.824  22.907  0.00  0.00    -0.576 OA
ENDBRANCH  30  33
BRANCH  28  36
ATOM     36  N   UNK A   1       5.953  -0.805  24.441  0.00  0.00    +0.081 N 
ATOM     37  O   UNK A   1       5.739  -1.880  23.867  0.00  0.00    +0.041 OA
ATOM     38  O   UNK A   1       5.112  -0.125  25.045  0.00  0.00    -0.576 OA
ENDBRANCH  28  36
ENDBRANCH  26  27
ENDBRANCH  25  26
ENDBRANCH   1  25
TORSDOF 16
ENDMDL
MODEL 7
REMARK VINA RESULT:      -5.7      2.823      7.832
REMARK  Name = 
REMARK  16 active torsions:
REMARK  status: ('A' for Active; 'I' for Inactive)
REMARK    1  A    between atoms: N_1  and  C_2
REMARK    2  A    between atoms: C_2  and  C_4
REMARK    3  A    between atoms: C_2  and  C_32
REMARK    4  A    between atoms: C_4  and  C_5
REMARK    5  A    between atoms: C_5  and  C_6
REMARK    6  A    between atoms: N_8  and  C_9
REMARK    7  A    between atoms: C_9  and  C_11
REMARK    8  A    between atoms: C_9  and  C_25
REMARK    9  A    between atoms: C_11  and  S_12
REMARK   10  A    between atoms: S_12  and  C_13
REMARK   11  A    between atoms: C_16  and  N_22
REMARK   12  A    between atoms: C_18  and  N_19
REMARK   13  A    between atoms: N_27  and  CA_28
REMARK   14  A    between atoms: CA_28  and  C_29
REMARK   15  A    between atoms: C_29  and  O_30
REMARK   16  A    between atoms: C_32  and  O_33
REMARK                            x       y       z     vdW  Elec       q    Type
REMARK                         _______ _______ _______ _____ _____    ______ ____
ROOT
ATOM      1  C   UNK A   1       7.213  -1.555  23.591  0.00  0.00    +0.169 C 
ENDROOT
BRANCH   1   2
ATOM      2  C   UNK A   1       6.340  -1.104  24.776  0.00  0.00    +0.235 C 
ATOM      3  N   GLY A   2       6.468   0.219  25.138  0.00  0.00    -0.303 N 
ATOM      4  H   GLY A   2       7.285   0.730  24.806  0.00  0.00    +0.149 HD
ATOM      5  O   UNK A   1       5.451  -1.826  25.221  0.00  0.00    -0.274 OA
BRANCH   3   6
ATOM      6  CA  GLY A   2       5.641   0.838  26.166  0.00  0.00    +0.224 C 
BRANCH   6   7
ATOM      7  C   GLY A   2       4.385   1.479  25.582  0.00  0.00    +0.322 C 
ATOM      8  OXT GLY A   2       3.347   1.637  26.208  0.00  0.00    -0.249 OA
BRANCH   7   9
ATOM      9  O   GLY A   2       4.519   1.884  24.294  0.00  0.00    -0.480 OA
ATOM     10  H   GLY A   2       4.334   2.840  24.213  0.00  0.00    +0.295 HD
ENDBRANCH   7   9
ENDBRANCH   6   7
ENDBRANCH   3   6
ENDBRANCH   1   2
BRANCH   1  12
ATOM     11  C   UNK A   1       8.996  -0.440  22.174  0.00  0.00    +0.214 C 
ATOM     12  N   UNK A   1       7.788  -0.433  22.828  0.00  0.00    -0.303 N 
ATOM     13  H   UNK A   1       7.286   0.446  22.886  0.00  0.00    +0.149 HD
ATOM     14  O   UNK A   1       9.682  -1.453  22.080  0.00  0.00    -0.276 OA
BRANCH  11  15
ATOM     15  C   UNK A   1       9.335   0.891  21.528  0.00  0.00    +0.098 C 
BRANCH  15  16
ATOM     16  C   UNK A   1      10.235   1.756  22.414  0.00  0.00    +0.039 C 
BRANCH  16  17
ATOM     17  C   UNK A   1       9.493   2.550  23.497  0.00  0.00    +0.161 C 
BRANCH  17  18
ATOM     18  N   UNK A   1       9.305   1.793  24.765  0.00  0.00    -0.318 NA
ATOM     19  H   UNK A   1       9.004   0.837  24.553  0.00  0.00    +0.119 HD
ATOM     20  H   UNK A   1      10.223   1.677  25.205  0.00  0.00    +0.119 HD
ENDBRANCH  17  18
BRANCH  17  21
ATOM     21  C   UNK A   1       8.119   3.056  23.020  0.00  0.00    +0.322 C 
ATOM     22  O   UNK A   1       7.045   2.526  23.260  0.00  0.00    -0.249 OA
BRANCH  21  23
ATOM     23  O   UNK A   1       8.246   4.190  22.282  0.00  0.00    -0.480 OA
ATOM     24  H   UNK A   1       7.594   4.836  22.652  0.00  0.00    +0.295 HD
ENDBRANCH  21  23
ENDBRANCH  17  21
ENDBRANCH  16  17
ENDBRANCH  15  16
ENDBRANCH  11  15
ENDBRANCH   1  12
BRANCH   1  25
ATOM     25  C   UNK A   1       6.382  -2.571  22.782  0.00  0.00    +0.106 C 
BRANCH  25  26
ATOM     26  S   UNK A   1       7.211  -4.191  22.710  0.00  0.00    -0.116 S 
BRANCH  26  27
ATOM     27  C   UNK A   1       6.884  -4.964  24.294  0.00  0.00    +0.086 A 
ATOM     28  C   UNK A   1       7.841  -4.859  25.322  0.00  0.00    +0.293 A 
ATOM     29  C   UNK A   1       7.589  -5.261  26.648  0.00  0.00    +0.169 A 
ATOM     30  C   UNK A   1       6.355  -5.834  26.939  0.00  0.00    +0.280 A 
ATOM     31  C   UNK A   1       5.419  -6.061  25.919  0.00  0.00    +0.086 A 
ATOM     32  C   UNK A   1       5.682  -5.621  24.610  0.00  0.00    +0.028 A 
BRANCH  30  33
ATOM     33  N   UNK A   1       6.026  -6.173  28.330  0.00  0.00    +0.080 N 
ATOM     34  O   UNK A   1       6.090  -5.262  29.168  0.00  0.00    +0.041 OA
ATOM     35  O   UNK A   1       5.687  -7.338  28.576  0.00  0.00    -0.576 OA
ENDBRANCH  30  33
BRANCH  28  36
ATOM     36  N   UNK A   1       9.163  -4.329  25.047  0.00  0.00    +0.081 N 
ATOM     37  O   UNK A   1       9.328  -3.118  25.235  0.00  0.00    +0.041 OA
ATOM     38  O   UNK A   1      10.038  -5.138  24.711  0.00  0.00    -0.576 OA
ENDBRANCH  28  36
ENDBRANCH  26  27
ENDBRANCH  25  26
ENDBRANCH   1  25
TORSDOF 16
ENDMDL
MODEL 8
REMARK VINA RESULT:      -5.6      1.994      2.378
REMARK  Name = 
REMARK  16 active torsions:
REMARK  status: ('A' for Active; 'I' for Inactive)
REMARK    1  A    between atoms: N_1  and  C_2
REMARK    2  A    between atoms: C_2  and  C_4
REMARK    3  A    between atoms: C_2  and  C_32
REMARK    4  A    between atoms: C_4  and  C_5
REMARK    5  A    between atoms: C_5  and  C_6
REMARK    6  A    between atoms: N_8  and  C_9
REMARK    7  A    between atoms: C_9  and  C_11
REMARK    8  A    between atoms: C_9  and  C_25
REMARK    9  A    between atoms: C_11  and  S_12
REMARK   10  A    between atoms: S_12  and  C_13
REMARK   11  A    between atoms: C_16  and  N_22
REMARK   12  A    between atoms: C_18  and  N_19
REMARK   13  A    between atoms: N_27  and  CA_28
REMARK   14  A    between atoms: CA_28  and  C_29
REMARK   15  A    between atoms: C_29  and  O_30
REMARK   16  A    between atoms: C_32  and  O_33
REMARK                            x       y       z     vdW  Elec       q    Type
REMARK                         _______ _______ _______ _____ _____    ______ ____
ROOT
ATOM      1  C   UNK A   1       7.837  -4.807  26.159  0.00  0.00    +0.169 C 
ENDROOT
BRANCH   1   2
ATOM      2  C   UNK A   1       8.203  -5.277  24.740  0.00  0.00    +0.235 C 
ATOM      3  N   GLY A   2       7.174  -5.258  23.824  0.00  0.00    -0.303 N 
ATOM      4  H   GLY A   2       6.218  -5.202  24.177  0.00  0.00    +0.149 HD
ATOM      5  O   UNK A   1       9.373  -5.458  24.411  0.00  0.00    -0.274 OA
BRANCH   3   6
ATOM      6  CA  GLY A   2       7.368  -5.569  22.414  0.00  0.00    +0.224 C 
BRANCH   6   7
ATOM      7  C   GLY A   2       6.087  -5.388  21.605  0.00  0.00    +0.322 C 
ATOM      8  OXT GLY A   2       5.849  -4.406  20.917  0.00  0.00    -0.249 OA
BRANCH   7   9
ATOM      9  O   GLY A   2       5.224  -6.431  21.696  0.00  0.00    -0.480 OA
ATOM     10  H   GLY A   2       4.372  -6.140  22.078  0.00  0.00    +0.295 HD
ENDBRANCH   7   9
ENDBRANCH   6   7
ENDBRANCH   3   6
ENDBRANCH   1   2
BRANCH   1  12
ATOM     11  C   UNK A   1       6.094  -5.862  27.668  0.00  0.00    +0.214 C 
ATOM     12  N   UNK A   1       6.458  -5.150  26.552  0.00  0.00    -0.303 N 
ATOM     13  H   UNK A   1       5.736  -4.923  25.878  0.00  0.00    +0.149 HD
ATOM     14  O   UNK A   1       6.908  -6.201  28.522  0.00  0.00    -0.276 OA
BRANCH  11  15
ATOM     15  C   UNK A   1       4.598  -6.102  27.763  0.00  0.00    +0.098 C 
BRANCH  15  16
ATOM     16  C   UNK A   1       3.840  -5.542  26.557  0.00  0.00    +0.039 C 
BRANCH  16  17
ATOM     17  C   UNK A   1       3.036  -6.582  25.767  0.00  0.00    +0.161 C 
BRANCH  17  18
ATOM     18  N   UNK A   1       2.481  -7.672  26.616  0.00  0.00    -0.318 NA
ATOM     19  H   UNK A   1       2.868  -7.602  27.562  0.00  0.00    +0.119 HD
ATOM     20  H   UNK A   1       1.479  -7.499  26.740  0.00  0.00    +0.119 HD
ENDBRANCH  17  18
BRANCH  17  21
ATOM     21  C   UNK A   1       3.853  -7.217  24.627  0.00  0.00    +0.322 C 
ATOM     22  O   UNK A   1       5.068  -7.177  24.517  0.00  0.00    -0.249 OA
BRANCH  21  23
ATOM     23  O   UNK A   1       3.040  -7.843  23.736  0.00  0.00    -0.480 OA
ATOM     24  H   UNK A   1       3.481  -7.760  22.853  0.00  0.00    +0.295 HD
ENDBRANCH  21  23
ENDBRANCH  17  21
ENDBRANCH  16  17
ENDBRANCH  15  16
ENDBRANCH  11  15
ENDBRANCH   1  12
BRANCH   1  25
ATOM     25  C   UNK A   1       8.218  -3.315  26.248  0.00  0.00    +0.106 C 
BRANCH  25  26
ATOM     26  S   UNK A   1       7.127  -2.294  25.208  0.00  0.00    -0.116 S 
BRANCH  26  27
ATOM     27  C   UNK A   1       8.042  -0.783  24.899  0.00  0.00    +0.086 A 
ATOM     28  C   UNK A   1       8.935  -0.729  23.813  0.00  0.00    +0.293 A 
ATOM     29  C   UNK A   1       9.545   0.464  23.379  0.00  0.00    +0.169 A 
ATOM     30  C   UNK A   1       9.287   1.631  24.092  0.00  0.00    +0.280 A 
ATOM     31  C   UNK A   1       8.494   1.597  25.248  0.00  0.00    +0.086 A 
ATOM     32  C   UNK A   1       7.872   0.399  25.641  0.00  0.00    +0.028 A 
BRANCH  30  33
ATOM     33  N   UNK A   1       9.828   2.908  23.606  0.00  0.00    +0.080 N 
ATOM     34  O   UNK A   1      11.055   2.988  23.461  0.00  0.00    +0.041 OA
ATOM     35  O   UNK A   1       9.025   3.815  23.352  0.00  0.00    -0.576 OA
ENDBRANCH  30  33
BRANCH  28  36
ATOM     36  N   UNK A   1       9.283  -1.934  23.084  0.00  0.00    +0.081 N 
ATOM     37  O   UNK A   1      10.266  -2.567  23.489  0.00  0.00    +0.041 OA
ATOM     38  O   UNK A   1       8.534  -2.271  22.157  0.00  0.00    -0.576 OA
ENDBRANCH  28  36
ENDBRANCH  26  27
ENDBRANCH  25  26
ENDBRANCH   1  25
TORSDOF 16
ENDMDL
MODEL 9
REMARK VINA RESULT:      -5.5      2.237      7.046
REMARK  Name = 
REMARK  16 active torsions:
REMARK  status: ('A' for Active; 'I' for Inactive)
REMARK    1  A    between atoms: N_1  and  C_2
REMARK    2  A    between atoms: C_2  and  C_4
REMARK    3  A    between atoms: C_2  and  C_32
REMARK    4  A    between atoms: C_4  and  C_5
REMARK    5  A    between atoms: C_5  and  C_6
REMARK    6  A    between atoms: N_8  and  C_9
REMARK    7  A    between atoms: C_9  and  C_11
REMARK    8  A    between atoms: C_9  and  C_25
REMARK    9  A    between atoms: C_11  and  S_12
REMARK   10  A    between atoms: S_12  and  C_13
REMARK   11  A    between atoms: C_16  and  N_22
REMARK   12  A    between atoms: C_18  and  N_19
REMARK   13  A    between atoms: N_27  and  CA_28
REMARK   14  A    between atoms: CA_28  and  C_29
REMARK   15  A    between atoms: C_29  and  O_30
REMARK   16  A    between atoms: C_32  and  O_33
REMARK                            x       y       z     vdW  Elec       q    Type
REMARK                         _______ _______ _______ _____ _____    ______ ____
ROOT
ATOM      1  C   UNK A   1       8.668  -2.925  24.944  0.00  0.00    +0.169 C 
ENDROOT
BRANCH   1   2
ATOM      2  C   UNK A   1       7.461  -2.600  25.842  0.00  0.00    +0.235 C 
ATOM      3  N   GLY A   2       6.527  -1.748  25.295  0.00  0.00    -0.303 N 
ATOM      4  H   GLY A   2       6.800  -1.192  24.486  0.00  0.00    +0.149 HD
ATOM      5  O   UNK A   1       7.257  -3.221  26.882  0.00  0.00    -0.274 OA
BRANCH   3   6
ATOM      6  CA  GLY A   2       5.274  -1.420  25.963  0.00  0.00    +0.224 C 
BRANCH   6   7
ATOM      7  C   GLY A   2       5.123   0.081  26.193  0.00  0.00    +0.322 C 
ATOM      8  OXT GLY A   2       4.710   0.861  25.347  0.00  0.00    -0.249 OA
BRANCH   7   9
ATOM      9  O   GLY A   2       5.473   0.487  27.439  0.00  0.00    -0.480 OA
ATOM     10  H   GLY A   2       5.953   1.338  27.401  0.00  0.00    +0.295 HD
ENDBRANCH   7   9
ENDBRANCH   6   7
ENDBRANCH   3   6
ENDBRANCH   1   2
BRANCH   1  12
ATOM     11  C   UNK A   1       9.737  -1.971  22.851  0.00  0.00    +0.214 C 
ATOM     12  N   UNK A   1       8.650  -2.206  23.657  0.00  0.00    -0.303 N 
ATOM     13  H   UNK A   1       7.772  -1.765  23.408  0.00  0.00    +0.149 HD
ATOM     14  O   UNK A   1      10.844  -2.445  23.093  0.00  0.00    -0.276 OA
BRANCH  11  15
ATOM     15  C   UNK A   1       9.403  -1.151  21.619  0.00  0.00    +0.098 C 
BRANCH  15  16
ATOM     16  C   UNK A   1       9.671   0.342  21.822  0.00  0.00    +0.039 C 
BRANCH  16  17
ATOM     17  C   UNK A   1       8.417   1.225  21.800  0.00  0.00    +0.161 C 
BRANCH  17  18
ATOM     18  N   UNK A   1       8.717   2.679  21.687  0.00  0.00    -0.318 NA
ATOM     19  H   UNK A   1       7.857   3.191  21.470  0.00  0.00    +0.119 HD
ATOM     20  H   UNK A   1       8.986   3.021  22.615  0.00  0.00    +0.119 HD
ENDBRANCH  17  18
BRANCH  17  21
ATOM     21  C   UNK A   1       7.518   1.005  23.031  0.00  0.00    +0.322 C 
ATOM     22  O   UNK A   1       7.909   0.734  24.155  0.00  0.00    -0.249 OA
BRANCH  21  23
ATOM     23  O   UNK A   1       6.206   1.151  22.708  0.00  0.00    -0.480 OA
ATOM     24  H   UNK A   1       6.171   1.846  22.004  0.00  0.00    +0.295 HD
ENDBRANCH  21  23
ENDBRANCH  17  21
ENDBRANCH  16  17
ENDBRANCH  15  16
ENDBRANCH  11  15
ENDBRANCH   1  12
BRANCH   1  25
ATOM     25  C   UNK A   1       8.765  -4.462  24.863  0.00  0.00    +0.106 C 
BRANCH  25  26
ATOM     26  S   UNK A   1       7.820  -5.108  23.447  0.00  0.00    -0.116 S 
BRANCH  26  27
ATOM     27  C   UNK A   1       6.107  -5.104  23.977  0.00  0.00    +0.086 A 
ATOM     28  C   UNK A   1       5.154  -4.393  23.223  0.00  0.00    +0.293 A 
ATOM     29  C   UNK A   1       3.768  -4.492  23.449  0.00  0.00    +0.169 A 
ATOM     30  C   UNK A   1       3.328  -5.292  24.499  0.00  0.00    +0.280 A 
ATOM     31  C   UNK A   1       4.251  -5.926  25.345  0.00  0.00    +0.086 A 
ATOM     32  C   UNK A   1       5.628  -5.835  25.078  0.00  0.00    +0.028 A 
BRANCH  30  33
ATOM     33  N   UNK A   1       1.887  -5.494  24.698  0.00  0.00    +0.080 N 
ATOM     34  O   UNK A   1       1.411  -5.168  25.794  0.00  0.00    +0.041 OA
ATOM     35  O   UNK A   1       1.233  -5.957  23.753  0.00  0.00    -0.576 OA
ENDBRANCH  30  33
BRANCH  28  36
ATOM     36  N   UNK A   1       5.573  -3.496  22.163  0.00  0.00    +0.081 N 
ATOM     37  O   UNK A   1       5.879  -2.344  22.495  0.00  0.00    +0.041 OA
ATOM     38  O   UNK A   1       5.657  -3.969  21.021  0.00  0.00    -0.576 OA
ENDBRANCH  28  36
ENDBRANCH  26  27
ENDBRANCH  25  26
ENDBRANCH   1  25
TORSDOF 16
ENDMDL
