MODEL 1
REMARK VINA RESULT:      -7.3      0.000      0.000
REMARK  Name = 
REMARK  17 active torsions:
REMARK  status: ('A' for Active; 'I' for Inactive)
REMARK    1  A    between atoms: N_8  and  C_9
REMARK    2  A    between atoms: C_12  and  C_14
REMARK    3  A    between atoms: C_14  and  O_15
REMARK    4  A    between atoms: O_15  and  P_16
REMARK    5  A    between atoms: P_16  and  O_17
REMARK    6  A    between atoms: P_16  and  O_19
REMARK    7  A    between atoms: O_19  and  P_20
REMARK    8  A    between atoms: P_20  and  O_21
REMARK    9  A    between atoms: P_20  and  O_22
REMARK   10  A    between atoms: C_24  and  O_26
REMARK   11  A    between atoms: O_26  and  P_27
REMARK   12  A    between atoms: P_27  and  O_28
REMARK   13  A    between atoms: P_27  and  O_30
REMARK   14  A    between atoms: O_30  and  P_31
REMARK   15  A    between atoms: P_31  and  O_32
REMARK   16  A    between atoms: P_31  and  O_33
REMARK   17  A    between atoms: C_35  and  O_37
REMARK                            x       y       z     vdW  Elec       q    Type
REMARK                         _______ _______ _______ _____ _____    ______ ____
ROOT
ATOM      1  C   UNL     1       7.635  -3.534  26.076  0.00  0.00    +0.253 C 
ATOM      2  C   UNL     1       8.015  -4.644  25.095  0.00  0.00    +0.196 C 
ATOM      3  C   UNL     1       7.246  -4.334  23.804  0.00  0.00    +0.194 C 
ATOM      4  C   UNL     1       6.741  -2.884  24.011  0.00  0.00    +0.179 C 
ATOM      5  O   UNL     1       7.407  -2.399  25.214  0.00  0.00    -0.346 OA
ENDROOT
BRANCH   1  17
ATOM      6  N   UNL     1       7.163  -7.713  29.368  0.00  0.00    -0.329 N 
ATOM      7  H   UNL     1       6.929  -8.159  30.246  0.00  0.00    +0.145 HD
ATOM      8  H   UNL     1       8.160  -7.693  29.158  0.00  0.00    +0.145 HD
ATOM      9  C   UNL     1       6.486  -6.603  28.980  0.00  0.00    +0.195 A 
ATOM     10  N   UNL     1       5.197  -6.482  29.476  0.00  0.00    -0.293 N 
ATOM     11  H   UNL     1       4.813  -7.196  30.064  0.00  0.00    +0.172 HD
ATOM     12  C   UNL     1       4.324  -5.470  29.136  0.00  0.00    +0.280 A 
ATOM     13  O   UNL     1       3.175  -5.440  29.568  0.00  0.00    -0.265 OA
ATOM     14  C   UNL     1       4.913  -4.513  28.228  0.00  0.00    +0.172 A 
ATOM     15  N   UNL     1       4.374  -3.390  27.666  0.00  0.00    -0.229 NA
ATOM     16  C   UNL     1       5.332  -2.930  26.891  0.00  0.00    +0.203 A 
ATOM     17  N   UNL     1       6.447  -3.740  26.891  0.00  0.00    -0.285 N 
ATOM     18  C   UNL     1       6.209  -4.727  27.809  0.00  0.00    +0.171 A 
ATOM     19  N   UNL     1       7.037  -5.743  28.163  0.00  0.00    -0.196 NA
ENDBRANCH   1  17
BRANCH   2  20
ATOM     20  O   UNL     1       9.422  -4.676  24.796  0.00  0.00    -0.385 OA
ATOM     21  H   UNL     1       9.532  -4.789  23.833  0.00  0.00    +0.210 HD
ENDBRANCH   2  20
BRANCH   4  22
ATOM     22  C   UNL     1       7.019  -1.790  22.947  0.00  0.00    +0.206 C 
BRANCH  22  23
ATOM     23  O   UNL     1       8.049  -0.874  23.271  0.00  0.00    -0.284 OA
BRANCH  23  24
ATOM     24  P   UNL     1       9.578  -1.137  22.803  0.00  0.00    +0.483 P 
ATOM     25  O   UNL     1      10.373  -2.019  23.703  0.00  0.00    -0.227 OA
BRANCH  24  26
ATOM     26  O   UNL     1       9.426  -1.816  21.354  0.00  0.00    -0.302 OA
ATOM     27  H   UNL     1       8.526  -2.173  21.220  0.00  0.00    +0.222 HD
ENDBRANCH  24  26
BRANCH  24  28
ATOM     28  O   UNL     1      10.303   0.250  22.474  0.00  0.00    -0.186 OA
BRANCH  28  29
ATOM     29  P   UNL     1       9.189   1.559  22.287  0.00  0.00    +0.481 P 
ATOM     30  O   UNL     1       8.192   2.732  22.119  0.00  0.00    -0.227 OA
BRANCH  29  31
ATOM     31  O   UNL     1      10.482   2.415  21.750  0.00  0.00    -0.302 OA
ATOM     32  H   UNL     1      10.203   3.238  21.315  0.00  0.00    +0.222 HD
ENDBRANCH  29  31
BRANCH  29  33
ATOM     33  O   UNL     1       8.817   0.878  20.842  0.00  0.00    -0.302 OA
ATOM     34  H   UNL     1       8.597  -0.067  20.928  0.00  0.00    +0.222 HD
ENDBRANCH  29  33
ENDBRANCH  28  29
ENDBRANCH  24  28
ENDBRANCH  23  24
ENDBRANCH  22  23
ENDBRANCH   4  22
BRANCH   3  35
ATOM     35  O   UNL     1       6.181  -5.296  23.690  0.00  0.00    -0.278 OA
BRANCH  35  36
ATOM     36  P   UNL     1       5.728  -5.717  22.139  0.00  0.00    +0.484 P 
ATOM     37  O   UNL     1       5.891  -4.470  21.271  0.00  0.00    -0.227 OA
BRANCH  36  38
ATOM     38  O   UNL     1       7.384  -6.088  21.809  0.00  0.00    -0.302 OA
ATOM     39  H   UNL     1       7.330  -6.577  20.960  0.00  0.00    +0.222 HD
ENDBRANCH  36  38
BRANCH  36  40
ATOM     40  O   UNL     1       4.070  -5.347  22.469  0.00  0.00    -0.186 OA
BRANCH  40  41
ATOM     41  P   UNL     1       3.479  -6.222  23.663  0.00  0.00    +0.481 P 
ATOM     42  O   UNL     1       2.081  -6.693  23.456  0.00  0.00    -0.227 OA
BRANCH  41  43
ATOM     43  O   UNL     1       4.518  -7.426  23.831  0.00  0.00    -0.302 OA
ATOM     44  H   UNL     1       5.404  -7.095  24.079  0.00  0.00    +0.222 HD
ENDBRANCH  41  43
BRANCH  41  45
ATOM     45  O   UNL     1       3.756  -5.326  24.948  0.00  0.00    -0.302 OA
ATOM     46  H   UNL     1       3.367  -4.437  24.834  0.00  0.00    +0.222 HD
ENDBRANCH  41  45
ENDBRANCH  40  41
ENDBRANCH  36  40
ENDBRANCH  35  36
ENDBRANCH   3  35
TORSDOF 17
ENDMDL
MODEL 2
REMARK VINA RESULT:      -7.3      3.953      7.663
REMARK  Name = 
REMARK  17 active torsions:
REMARK  status: ('A' for Active; 'I' for Inactive)
REMARK    1  A    between atoms: N_8  and  C_9
REMARK    2  A    between atoms: C_12  and  C_14
REMARK    3  A    between atoms: C_14  and  O_15
REMARK    4  A    between atoms: O_15  and  P_16
REMARK    5  A    between atoms: P_16  and  O_17
REMARK    6  A    between atoms: P_16  and  O_19
REMARK    7  A    between atoms: O_19  and  P_20
REMARK    8  A    between atoms: P_20  and  O_21
REMARK    9  A    between atoms: P_20  and  O_22
REMARK   10  A    between atoms: C_24  and  O_26
REMARK   11  A    between atoms: O_26  and  P_27
REMARK   12  A    between atoms: P_27  and  O_28
REMARK   13  A    between atoms: P_27  and  O_30
REMARK   14  A    between atoms: O_30  and  P_31
REMARK   15  A    between atoms: P_31  and  O_32
REMARK   16  A    between atoms: P_31  and  O_33
REMARK   17  A    between atoms: C_35  and  O_37
REMARK                            x       y       z     vdW  Elec       q    Type
REMARK                         _______ _______ _______ _____ _____    ______ ____
ROOT
ATOM      1  C   UNL     1       7.245  -3.271  22.318  0.00  0.00    +0.253 C 
ATOM      2  C   UNL     1       7.511  -4.756  22.576  0.00  0.00    +0.196 C 
ATOM      3  C   UNL     1       6.734  -5.095  23.855  0.00  0.00    +0.194 C 
ATOM      4  C   UNL     1       5.800  -3.876  24.058  0.00  0.00    +0.179 C 
ATOM      5  O   UNL     1       5.915  -3.080  22.842  0.00  0.00    -0.346 OA
ENDROOT
BRANCH   1  17
ATOM      6  N   UNL     1       5.900   1.864  22.913  0.00  0.00    -0.329 N 
ATOM      7  H   UNL     1       5.816   2.728  23.432  0.00  0.00    +0.145 HD
ATOM      8  H   UNL     1       5.012   1.413  22.699  0.00  0.00    +0.145 HD
ATOM      9  C   UNL     1       6.908   1.003  23.205  0.00  0.00    +0.195 A 
ATOM     10  N   UNL     1       8.047   1.577  23.751  0.00  0.00    -0.293 N 
ATOM     11  H   UNL     1       8.097   2.567  23.889  0.00  0.00    +0.172 HD
ATOM     12  C   UNL     1       9.204   0.884  24.041  0.00  0.00    +0.280 A 
ATOM     13  O   UNL     1      10.201   1.453  24.477  0.00  0.00    -0.265 OA
ATOM     14  C   UNL     1       9.092  -0.526  23.751  0.00  0.00    +0.172 A 
ATOM     15  N   UNL     1      10.012  -1.528  23.895  0.00  0.00    -0.229 NA
ATOM     16  C   UNL     1       9.395  -2.595  23.438  0.00  0.00    +0.203 A 
ATOM     17  N   UNL     1       8.135  -2.312  22.955  0.00  0.00    -0.285 N 
ATOM     18  C   UNL     1       7.907  -0.989  23.221  0.00  0.00    +0.171 A 
ATOM     19  N   UNL     1       6.788  -0.272  22.943  0.00  0.00    -0.196 NA
ENDBRANCH   1  17
BRANCH   2  20
ATOM     20  O   UNL     1       7.045  -5.606  21.514  0.00  0.00    -0.385 OA
ATOM     21  H   UNL     1       7.086  -6.532  21.818  0.00  0.00    +0.210 HD
ENDBRANCH   2  20
BRANCH   4  22
ATOM     22  C   UNL     1       4.273  -4.072  24.251  0.00  0.00    +0.206 C 
BRANCH  22  23
ATOM     23  O   UNL     1       3.598  -4.684  23.168  0.00  0.00    -0.284 OA
BRANCH  23  24
ATOM     24  P   UNL     1       2.302  -5.625  23.416  0.00  0.00    +0.483 P 
ATOM     25  O   UNL     1       0.996  -5.016  23.039  0.00  0.00    -0.227 OA
BRANCH  24  26
ATOM     26  O   UNL     1       2.590  -6.923  22.513  0.00  0.00    -0.302 OA
ATOM     27  H   UNL     1       3.127  -7.582  22.996  0.00  0.00    +0.222 HD
ENDBRANCH  24  26
BRANCH  24  28
ATOM     28  O   UNL     1       2.320  -6.212  24.903  0.00  0.00    -0.186 OA
BRANCH  28  29
ATOM     29  P   UNL     1       2.284  -7.941  24.941  0.00  0.00    +0.481 P 
ATOM     30  O   UNL     1       2.253  -9.489  24.974  0.00  0.00    -0.227 OA
BRANCH  29  31
ATOM     31  O   UNL     1       3.922  -7.847  24.982  0.00  0.00    -0.302 OA
ATOM     32  H   UNL     1       4.325  -8.435  24.321  0.00  0.00    +0.222 HD
ENDBRANCH  29  31
BRANCH  29  33
ATOM     33  O   UNL     1       2.058  -7.782  26.557  0.00  0.00    -0.302 OA
ATOM     34  H   UNL     1       2.793  -8.162  27.069  0.00  0.00    +0.222 HD
ENDBRANCH  29  33
ENDBRANCH  28  29
ENDBRANCH  24  28
ENDBRANCH  23  24
ENDBRANCH  22  23
ENDBRANCH   4  22
BRANCH   3  35
ATOM     35  O   UNL     1       7.693  -5.261  24.917  0.00  0.00    -0.278 OA
BRANCH  35  36
ATOM     36  P   UNL     1       7.181  -4.837  26.448  0.00  0.00    +0.484 P 
ATOM     37  O   UNL     1       8.121  -5.521  27.439  0.00  0.00    -0.227 OA
BRANCH  36  38
ATOM     38  O   UNL     1       8.293  -3.514  26.400  0.00  0.00    -0.302 OA
ATOM     39  H   UNL     1       8.794  -3.683  25.573  0.00  0.00    +0.222 HD
ENDBRANCH  36  38
BRANCH  36  40
ATOM     40  O   UNL     1       6.067  -6.160  26.496  0.00  0.00    -0.186 OA
BRANCH  40  41
ATOM     41  P   UNL     1       5.303  -6.260  27.892  0.00  0.00    +0.481 P 
ATOM     42  O   UNL     1       5.515  -7.537  28.627  0.00  0.00    -0.227 OA
BRANCH  41  43
ATOM     43  O   UNL     1       5.802  -4.982  28.715  0.00  0.00    -0.302 OA
ATOM     44  H   UNL     1       5.198  -4.224  28.589  0.00  0.00    +0.222 HD
ENDBRANCH  41  43
BRANCH  41  45
ATOM     45  O   UNL     1       3.803  -5.883  27.519  0.00  0.00    -0.302 OA
ATOM     46  H   UNL     1       3.264  -6.691  27.417  0.00  0.00    +0.222 HD
ENDBRANCH  41  45
ENDBRANCH  40  41
ENDBRANCH  36  40
ENDBRANCH  35  36
ENDBRANCH   3  35
TORSDOF 17
ENDMDL
MODEL 3
REMARK VINA RESULT:      -7.2      1.554      1.960
REMARK  Name = 
REMARK  17 active torsions:
REMARK  status: ('A' for Active; 'I' for Inactive)
REMARK    1  A    between atoms: N_8  and  C_9
REMARK    2  A    between atoms: C_12  and  C_14
REMARK    3  A    between atoms: C_14  and  O_15
REMARK    4  A    between atoms: O_15  and  P_16
REMARK    5  A    between atoms: P_16  and  O_17
REMARK    6  A    between atoms: P_16  and  O_19
REMARK    7  A    between atoms: O_19  and  P_20
REMARK    8  A    between atoms: P_20  and  O_21
REMARK    9  A    between atoms: P_20  and  O_22
REMARK   10  A    between atoms: C_24  and  O_26
REMARK   11  A    between atoms: O_26  and  P_27
REMARK   12  A    between atoms: P_27  and  O_28
REMARK   13  A    between atoms: P_27  and  O_30
REMARK   14  A    between atoms: O_30  and  P_31
REMARK   15  A    between atoms: P_31  and  O_32
REMARK   16  A    between atoms: P_31  and  O_33
REMARK   17  A    between atoms: C_35  and  O_37
REMARK                            x       y       z     vdW  Elec       q    Type
REMARK                         _______ _______ _______ _____ _____    ______ ____
ROOT
ATOM      1  C   UNL     1       8.497  -4.037  25.949  0.00  0.00    +0.253 C 
ATOM      2  C   UNL     1       8.420  -4.895  24.684  0.00  0.00    +0.196 C 
ATOM      3  C   UNL     1       8.314  -3.901  23.519  0.00  0.00    +0.194 C 
ATOM      4  C   UNL     1       8.681  -2.538  24.158  0.00  0.00    +0.179 C 
ATOM      5  O   UNL     1       9.174  -2.846  25.496  0.00  0.00    -0.346 OA
ENDROOT
BRANCH   1  17
ATOM      6  N   UNL     1       5.314  -7.587  28.355  0.00  0.00    -0.329 N 
ATOM      7  H   UNL     1       4.719  -7.915  29.105  0.00  0.00    +0.145 HD
ATOM      8  H   UNL     1       6.198  -8.087  28.270  0.00  0.00    +0.145 HD
ATOM      9  C   UNL     1       5.395  -6.257  28.098  0.00  0.00    +0.195 A 
ATOM     10  N   UNL     1       4.284  -5.509  28.454  0.00  0.00    -0.293 N 
ATOM     11  H   UNL     1       3.482  -5.954  28.855  0.00  0.00    +0.172 HD
ATOM     12  C   UNL     1       4.141  -4.160  28.203  0.00  0.00    +0.280 A 
ATOM     13  O   UNL     1       3.113  -3.557  28.496  0.00  0.00    -0.265 OA
ATOM     14  C   UNL     1       5.301  -3.592  27.557  0.00  0.00    +0.172 A 
ATOM     15  N   UNL     1       5.538  -2.309  27.148  0.00  0.00    -0.229 NA
ATOM     16  C   UNL     1       6.725  -2.368  26.586  0.00  0.00    +0.203 A 
ATOM     17  N   UNL     1       7.240  -3.646  26.569  0.00  0.00    -0.285 N 
ATOM     18  C   UNL     1       6.356  -4.429  27.260  0.00  0.00    +0.171 A 
ATOM     19  N   UNL     1       6.456  -5.758  27.519  0.00  0.00    -0.196 NA
ENDBRANCH   1  17
BRANCH   2  20
ATOM     20  O   UNL     1       9.584  -5.715  24.486  0.00  0.00    -0.385 OA
ATOM     21  H   UNL     1       9.445  -6.567  24.941  0.00  0.00    +0.210 HD
ENDBRANCH   2  20
BRANCH   4  22
ATOM     22  C   UNL     1       9.784  -1.643  23.535  0.00  0.00    +0.206 C 
BRANCH  22  23
ATOM     23  O   UNL     1       9.409  -0.301  23.287  0.00  0.00    -0.284 OA
BRANCH  23  24
ATOM     24  P   UNL     1       9.385   0.794  24.482  0.00  0.00    +0.483 P 
ATOM     25  O   UNL     1       8.211   0.707  25.395  0.00  0.00    -0.227 OA
BRANCH  24  26
ATOM     26  O   UNL     1      10.742   0.508  25.295  0.00  0.00    -0.302 OA
ATOM     27  H   UNL     1      10.960   1.248  25.895  0.00  0.00    +0.222 HD
ENDBRANCH  24  26
BRANCH  24  28
ATOM     28  O   UNL     1       9.621   2.262  23.894  0.00  0.00    -0.186 OA
BRANCH  28  29
ATOM     29  P   UNL     1       8.381   2.748  22.791  0.00  0.00    +0.481 P 
ATOM     30  O   UNL     1       7.271   3.185  21.804  0.00  0.00    -0.227 OA
BRANCH  29  31
ATOM     31  O   UNL     1       9.020   4.253  22.934  0.00  0.00    -0.302 OA
ATOM     32  H   UNL     1       8.340   4.937  22.813  0.00  0.00    +0.222 HD
ENDBRANCH  29  31
BRANCH  29  33
ATOM     33  O   UNL     1       9.398   2.237  21.610  0.00  0.00    -0.302 OA
ATOM     34  H   UNL     1       9.378   1.270  21.502  0.00  0.00    +0.222 HD
ENDBRANCH  29  33
ENDBRANCH  28  29
ENDBRANCH  24  28
ENDBRANCH  23  24
ENDBRANCH  22  23
ENDBRANCH   4  22
BRANCH   3  35
ATOM     35  O   UNL     1       6.963  -3.952  23.024  0.00  0.00    -0.278 OA
BRANCH  35  36
ATOM     36  P   UNL     1       6.242  -5.457  22.998  0.00  0.00    +0.484 P 
ATOM     37  O   UNL     1       5.316  -5.489  21.782  0.00  0.00    -0.227 OA
BRANCH  36  38
ATOM     38  O   UNL     1       7.518  -5.997  21.963  0.00  0.00    -0.302 OA
ATOM     39  H   UNL     1       8.170  -6.365  22.598  0.00  0.00    +0.222 HD
ENDBRANCH  36  38
BRANCH  36  40
ATOM     40  O   UNL     1       4.965  -4.919  24.034  0.00  0.00    -0.186 OA
BRANCH  40  41
ATOM     41  P   UNL     1       3.808  -6.005  24.187  0.00  0.00    +0.481 P 
ATOM     42  O   UNL     1       3.085  -5.965  25.488  0.00  0.00    -0.227 OA
BRANCH  41  43
ATOM     43  O   UNL     1       2.845  -5.745  22.936  0.00  0.00    -0.302 OA
ATOM     44  H   UNL     1       3.187  -6.182  22.131  0.00  0.00    +0.222 HD
ENDBRANCH  41  43
BRANCH  41  45
ATOM     45  O   UNL     1       4.532  -7.370  23.805  0.00  0.00    -0.302 OA
ATOM     46  H   UNL     1       5.148  -7.232  23.060  0.00  0.00    +0.222 HD
ENDBRANCH  41  45
ENDBRANCH  40  41
ENDBRANCH  36  40
ENDBRANCH  35  36
ENDBRANCH   3  35
TORSDOF 17
ENDMDL
MODEL 4
REMARK VINA RESULT:      -7.1      4.033      7.632
REMARK  Name = 
REMARK  17 active torsions:
REMARK  status: ('A' for Active; 'I' for Inactive)
REMARK    1  A    between atoms: N_8  and  C_9
REMARK    2  A    between atoms: C_12  and  C_14
REMARK    3  A    between atoms: C_14  and  O_15
REMARK    4  A    between atoms: O_15  and  P_16
REMARK    5  A    between atoms: P_16  and  O_17
REMARK    6  A    between atoms: P_16  and  O_19
REMARK    7  A    between atoms: O_19  and  P_20
REMARK    8  A    between atoms: P_20  and  O_21
REMARK    9  A    between atoms: P_20  and  O_22
REMARK   10  A    between atoms: C_24  and  O_26
REMARK   11  A    between atoms: O_26  and  P_27
REMARK   12  A    between atoms: P_27  and  O_28
REMARK   13  A    between atoms: P_27  and  O_30
REMARK   14  A    between atoms: O_30  and  P_31
REMARK   15  A    between atoms: P_31  and  O_32
REMARK   16  A    between atoms: P_31  and  O_33
REMARK   17  A    between atoms: C_35  and  O_37
REMARK                            x       y       z     vdW  Elec       q    Type
REMARK                         _______ _______ _______ _____ _____    ______ ____
ROOT
ATOM      1  C   UNL     1       7.671  -1.800  22.612  0.00  0.00    +0.253 C 
ATOM      2  C   UNL     1       7.941  -3.247  23.030  0.00  0.00    +0.196 C 
ATOM      3  C   UNL     1       7.335  -3.390  24.432  0.00  0.00    +0.194 C 
ATOM      4  C   UNL     1       6.459  -2.122  24.590  0.00  0.00    +0.179 C 
ATOM      5  O   UNL     1       6.426  -1.495  23.274  0.00  0.00    -0.346 OA
ENDROOT
BRANCH   1  17
ATOM      6  N   UNL     1       6.876   3.413  21.756  0.00  0.00    -0.329 N 
ATOM      7  H   UNL     1       6.882   4.389  22.019  0.00  0.00    +0.145 HD
ATOM      8  H   UNL     1       5.946   3.012  21.642  0.00  0.00    +0.145 HD
ATOM      9  C   UNL     1       7.786   2.566  22.302  0.00  0.00    +0.195 A 
ATOM     10  N   UNL     1       8.977   3.148  22.710  0.00  0.00    -0.293 N 
ATOM     11  H   UNL     1       9.132   4.129  22.577  0.00  0.00    +0.172 HD
ATOM     12  C   UNL     1      10.053   2.447  23.214  0.00  0.00    +0.280 A 
ATOM     13  O   UNL     1      11.102   3.009  23.513  0.00  0.00    -0.265 OA
ATOM     14  C   UNL     1       9.793   1.030  23.312  0.00  0.00    +0.172 A 
ATOM     15  N   UNL     1      10.600   0.018  23.751  0.00  0.00    -0.229 NA
ATOM     16  C   UNL     1       9.875  -1.065  23.578  0.00  0.00    +0.203 A 
ATOM     17  N   UNL     1       8.655  -0.798  22.996  0.00  0.00    -0.285 N 
ATOM     18  C   UNL     1       8.567   0.563  22.888  0.00  0.00    +0.171 A 
ATOM     19  N   UNL     1       7.532   1.286  22.390  0.00  0.00    -0.196 NA
ENDBRANCH   1  17
BRANCH   2  20
ATOM     20  O   UNL     1       7.323  -4.210  22.160  0.00  0.00    -0.385 OA
ATOM     21  H   UNL     1       6.654  -3.753  21.616  0.00  0.00    +0.210 HD
ENDBRANCH   2  20
BRANCH   4  22
ATOM     22  C   UNL     1       4.967  -2.237  25.003  0.00  0.00    +0.206 C 
BRANCH  22  23
ATOM     23  O   UNL     1       4.269  -3.340  24.457  0.00  0.00    -0.284 OA
BRANCH  23  24
ATOM     24  P   UNL     1       3.249  -4.214  25.363  0.00  0.00    +0.483 P 
ATOM     25  O   UNL     1       3.284  -3.915  26.822  0.00  0.00    -0.227 OA
BRANCH  24  26
ATOM     26  O   UNL     1       1.801  -3.865  24.760  0.00  0.00    -0.302 OA
ATOM     27  H   UNL     1       1.445  -3.039  25.144  0.00  0.00    +0.222 HD
ENDBRANCH  24  26
BRANCH  24  28
ATOM     28  O   UNL     1       3.408  -5.771  25.033  0.00  0.00    -0.186 OA
BRANCH  28  29
ATOM     29  P   UNL     1       4.576  -6.076  23.795  0.00  0.00    +0.481 P 
ATOM     30  O   UNL     1       5.622  -6.349  22.686  0.00  0.00    -0.227 OA
BRANCH  29  31
ATOM     31  O   UNL     1       4.062  -7.632  23.869  0.00  0.00    -0.302 OA
ATOM     32  H   UNL     1       4.739  -8.243  23.532  0.00  0.00    +0.222 HD
ENDBRANCH  29  31
BRANCH  29  33
ATOM     33  O   UNL     1       3.424  -5.559  22.748  0.00  0.00    -0.302 OA
ATOM     34  H   UNL     1       2.802  -6.269  22.508  0.00  0.00    +0.222 HD
ENDBRANCH  29  33
ENDBRANCH  28  29
ENDBRANCH  24  28
ENDBRANCH  23  24
ENDBRANCH  22  23
ENDBRANCH   4  22
BRANCH   3  35
ATOM     35  O   UNL     1       8.422  -3.451  25.374  0.00  0.00    -0.278 OA
BRANCH  35  36
ATOM     36  P   UNL     1       8.445  -4.773  26.393  0.00  0.00    +0.484 P 
ATOM     37  O   UNL     1       7.848  -5.946  25.618  0.00  0.00    -0.227 OA
BRANCH  36  38
ATOM     38  O   UNL     1       9.984  -5.197  25.730  0.00  0.00    -0.302 OA
ATOM     39  H   UNL     1      10.366  -5.776  26.424  0.00  0.00    +0.222 HD
ENDBRANCH  36  38
BRANCH  36  40
ATOM     40  O   UNL     1       6.905  -4.348  27.059  0.00  0.00    -0.186 OA
BRANCH  40  41
ATOM     41  P   UNL     1       6.353  -5.454  28.066  0.00  0.00    +0.481 P 
ATOM     42  O   UNL     1       5.718  -4.911  29.298  0.00  0.00    -0.227 OA
BRANCH  41  43
ATOM     43  O   UNL     1       5.346  -6.332  27.186  0.00  0.00    -0.302 OA
ATOM     44  H   UNL     1       4.847  -6.961  27.744  0.00  0.00    +0.222 HD
ENDBRANCH  41  43
BRANCH  41  45
ATOM     45  O   UNL     1       7.598  -6.426  28.263  0.00  0.00    -0.302 OA
ATOM     46  H   UNL     1       8.102  -6.507  27.431  0.00  0.00    +0.222 HD
ENDBRANCH  41  45
ENDBRANCH  40  41
ENDBRANCH  36  40
ENDBRANCH  35  36
ENDBRANCH   3  35
TORSDOF 17
ENDMDL
MODEL 5
REMARK VINA RESULT:      -7.0      3.416      7.220
REMARK  Name = 
REMARK  17 active torsions:
REMARK  status: ('A' for Active; 'I' for Inactive)
REMARK    1  A    between atoms: N_8  and  C_9
REMARK    2  A    between atoms: C_12  and  C_14
REMARK    3  A    between atoms: C_14  and  O_15
REMARK    4  A    between atoms: O_15  and  P_16
REMARK    5  A    between atoms: P_16  and  O_17
REMARK    6  A    between atoms: P_16  and  O_19
REMARK    7  A    between atoms: O_19  and  P_20
REMARK    8  A    between atoms: P_20  and  O_21
REMARK    9  A    between atoms: P_20  and  O_22
REMARK   10  A    between atoms: C_24  and  O_26
REMARK   11  A    between atoms: O_26  and  P_27
REMARK   12  A    between atoms: P_27  and  O_28
REMARK   13  A    between atoms: P_27  and  O_30
REMARK   14  A    between atoms: O_30  and  P_31
REMARK   15  A    between atoms: P_31  and  O_32
REMARK   16  A    between atoms: P_31  and  O_33
REMARK   17  A    between atoms: C_35  and  O_37
REMARK                            x       y       z     vdW  Elec       q    Type
REMARK                         _______ _______ _______ _____ _____    ______ ____
ROOT
ATOM      1  C   UNL     1       7.145  -1.993  25.635  0.00  0.00    +0.253 C 
ATOM      2  C   UNL     1       5.945  -2.676  24.974  0.00  0.00    +0.196 C 
ATOM      3  C   UNL     1       6.445  -4.061  24.544  0.00  0.00    +0.194 C 
ATOM      4  C   UNL     1       7.796  -4.216  25.286  0.00  0.00    +0.179 C 
ATOM      5  O   UNL     1       7.868  -3.096  26.218  0.00  0.00    -0.346 OA
ENDROOT
BRANCH   1  17
ATOM      6  N   UNL     1       5.494   2.169  22.721  0.00  0.00    -0.329 N 
ATOM      7  H   UNL     1       5.569   3.106  22.350  0.00  0.00    +0.145 HD
ATOM      8  H   UNL     1       4.740   2.041  23.395  0.00  0.00    +0.145 HD
ATOM      9  C   UNL     1       6.621   1.467  23.004  0.00  0.00    +0.195 A 
ATOM     10  N   UNL     1       7.743   1.813  22.265  0.00  0.00    -0.293 N 
ATOM     11  H   UNL     1       7.685   2.524  21.562  0.00  0.00    +0.172 HD
ATOM     12  C   UNL     1       8.958   1.166  22.348  0.00  0.00    +0.280 A 
ATOM     13  O   UNL     1       9.904   1.483  21.633  0.00  0.00    -0.265 OA
ATOM     14  C   UNL     1       8.954   0.104  23.326  0.00  0.00    +0.172 A 
ATOM     15  N   UNL     1       9.951  -0.757  23.692  0.00  0.00    -0.229 NA
ATOM     16  C   UNL     1       9.386  -1.539  24.584  0.00  0.00    +0.203 A 
ATOM     17  N   UNL     1       8.051  -1.252  24.770  0.00  0.00    -0.285 N 
ATOM     18  C   UNL     1       7.784  -0.144  24.013  0.00  0.00    +0.171 A 
ATOM     19  N   UNL     1       6.602   0.513  23.898  0.00  0.00    -0.196 NA
ENDBRANCH   1  17
BRANCH   2  20
ATOM     20  O   UNL     1       4.830  -2.845  25.867  0.00  0.00    -0.385 OA
ATOM     21  H   UNL     1       5.174  -3.057  26.756  0.00  0.00    +0.210 HD
ENDBRANCH   2  20
BRANCH   4  22
ATOM     22  C   UNL     1       8.081  -5.466  26.160  0.00  0.00    +0.206 C 
BRANCH  22  23
ATOM     23  O   UNL     1       7.856  -5.302  27.547  0.00  0.00    -0.284 OA
BRANCH  23  24
ATOM     24  P   UNL     1       6.421  -5.660  28.209  0.00  0.00    +0.483 P 
ATOM     25  O   UNL     1       6.476  -6.134  29.620  0.00  0.00    -0.227 OA
BRANCH  24  26
ATOM     26  O   UNL     1       5.600  -4.281  28.118  0.00  0.00    -0.302 OA
ATOM     27  H   UNL     1       6.058  -3.561  28.596  0.00  0.00    +0.222 HD
ENDBRANCH  24  26
BRANCH  24  28
ATOM     28  O   UNL     1       5.594  -6.633  27.247  0.00  0.00    -0.186 OA
BRANCH  28  29
ATOM     29  P   UNL     1       3.884  -6.487  27.457  0.00  0.00    +0.481 P 
ATOM     30  O   UNL     1       2.352  -6.356  27.645  0.00  0.00    -0.227 OA
BRANCH  29  31
ATOM     31  O   UNL     1       3.771  -7.669  26.326  0.00  0.00    -0.302 OA
ATOM     32  H   UNL     1       3.945  -8.544  26.712  0.00  0.00    +0.222 HD
ENDBRANCH  29  31
BRANCH  29  33
ATOM     33  O   UNL     1       4.077  -7.489  28.741  0.00  0.00    -0.302 OA
ATOM     34  H   UNL     1       4.944  -7.931  28.734  0.00  0.00    +0.222 HD
ENDBRANCH  29  33
ENDBRANCH  28  29
ENDBRANCH  24  28
ENDBRANCH  23  24
ENDBRANCH  22  23
ENDBRANCH   4  22
BRANCH   3  35
ATOM     35  O   UNL     1       6.581  -4.050  23.111  0.00  0.00    -0.278 OA
BRANCH  35  36
ATOM     36  P   UNL     1       5.852  -5.306  22.289  0.00  0.00    +0.484 P 
ATOM     37  O   UNL     1       5.824  -4.918  20.811  0.00  0.00    -0.227 OA
BRANCH  36  38
ATOM     38  O   UNL     1       7.423  -5.977  22.020  0.00  0.00    -0.302 OA
ATOM     39  H   UNL     1       7.442  -6.099  21.046  0.00  0.00    +0.222 HD
ENDBRANCH  36  38
BRANCH  36  40
ATOM     40  O   UNL     1       4.280  -4.637  22.558  0.00  0.00    -0.186 OA
BRANCH  40  41
ATOM     41  P   UNL     1       3.299  -5.662  23.286  0.00  0.00    +0.481 P 
ATOM     42  O   UNL     1       2.059  -5.981  22.527  0.00  0.00    -0.227 OA
BRANCH  41  43
ATOM     43  O   UNL     1       4.203  -6.953  23.563  0.00  0.00    -0.302 OA
ATOM     44  H   UNL     1       5.058  -6.704  23.965  0.00  0.00    +0.222 HD
ENDBRANCH  41  43
BRANCH  41  45
ATOM     45  O   UNL     1       3.118  -5.033  24.736  0.00  0.00    -0.302 OA
ATOM     46  H   UNL     1       2.636  -4.186  24.681  0.00  0.00    +0.222 HD
ENDBRANCH  41  45
ENDBRANCH  40  41
ENDBRANCH  36  40
ENDBRANCH  35  36
ENDBRANCH   3  35
TORSDOF 17
ENDMDL
MODEL 6
REMARK VINA RESULT:      -7.0      3.609      7.428
REMARK  Name = 
REMARK  17 active torsions:
REMARK  status: ('A' for Active; 'I' for Inactive)
REMARK    1  A    between atoms: N_8  and  C_9
REMARK    2  A    between atoms: C_12  and  C_14
REMARK    3  A    between atoms: C_14  and  O_15
REMARK    4  A    between atoms: O_15  and  P_16
REMARK    5  A    between atoms: P_16  and  O_17
REMARK    6  A    between atoms: P_16  and  O_19
REMARK    7  A    between atoms: O_19  and  P_20
REMARK    8  A    between atoms: P_20  and  O_21
REMARK    9  A    between atoms: P_20  and  O_22
REMARK   10  A    between atoms: C_24  and  O_26
REMARK   11  A    between atoms: O_26  and  P_27
REMARK   12  A    between atoms: P_27  and  O_28
REMARK   13  A    between atoms: P_27  and  O_30
REMARK   14  A    between atoms: O_30  and  P_31
REMARK   15  A    between atoms: P_31  and  O_32
REMARK   16  A    between atoms: P_31  and  O_33
REMARK   17  A    between atoms: C_35  and  O_37
REMARK                            x       y       z     vdW  Elec       q    Type
REMARK                         _______ _______ _______ _____ _____    ______ ____
ROOT
ATOM      1  C   UNL     1       8.560  -4.310  24.136  0.00  0.00    +0.253 C 
ATOM      2  C   UNL     1       8.022  -4.658  25.525  0.00  0.00    +0.196 C 
ATOM      3  C   UNL     1       6.516  -4.886  25.337  0.00  0.00    +0.194 C 
ATOM      4  C   UNL     1       6.344  -4.989  23.801  0.00  0.00    +0.179 C 
ATOM      5  O   UNL     1       7.694  -5.052  23.253  0.00  0.00    -0.346 OA
ENDROOT
BRANCH   1  17
ATOM      6  N   UNL     1       9.022  -0.359  27.702  0.00  0.00    -0.329 N 
ATOM      7  H   UNL     1       9.387   0.519  28.045  0.00  0.00    +0.145 HD
ATOM      8  H   UNL     1       9.341  -1.178  28.218  0.00  0.00    +0.145 HD
ATOM      9  C   UNL     1       8.892  -0.555  26.365  0.00  0.00    +0.195 A 
ATOM     10  N   UNL     1       8.716   0.591  25.605  0.00  0.00    -0.293 N 
ATOM     11  H   UNL     1       8.671   1.488  26.048  0.00  0.00    +0.172 HD
ATOM     12  C   UNL     1       8.487   0.595  24.245  0.00  0.00    +0.280 A 
ATOM     13  O   UNL     1       8.288   1.639  23.631  0.00  0.00    -0.265 OA
ATOM     14  C   UNL     1       8.491  -0.733  23.680  0.00  0.00    +0.172 A 
ATOM     15  N   UNL     1       8.299  -1.138  22.388  0.00  0.00    -0.229 NA
ATOM     16  C   UNL     1       8.361  -2.450  22.452  0.00  0.00    +0.203 A 
ATOM     17  N   UNL     1       8.532  -2.909  23.741  0.00  0.00    -0.285 N 
ATOM     18  C   UNL     1       8.689  -1.802  24.529  0.00  0.00    +0.171 A 
ATOM     19  N   UNL     1       8.905  -1.765  25.868  0.00  0.00    -0.196 NA
ENDBRANCH   1  17
BRANCH   2  20
ATOM     20  O   UNL     1       8.604  -5.854  26.072  0.00  0.00    -0.385 OA
ATOM     21  H   UNL     1       9.482  -5.985  25.666  0.00  0.00    +0.210 HD
ENDBRANCH   2  20
BRANCH   4  22
ATOM     22  C   UNL     1       5.611  -6.200  23.166  0.00  0.00    +0.206 C 
BRANCH  22  23
ATOM     23  O   UNL     1       4.591  -6.778  23.959  0.00  0.00    -0.284 OA
BRANCH  23  24
ATOM     24  P   UNL     1       3.042  -6.341  23.776  0.00  0.00    +0.483 P 
ATOM     25  O   UNL     1       2.831  -4.968  23.237  0.00  0.00    -0.227 OA
BRANCH  24  26
ATOM     26  O   UNL     1       2.452  -7.433  22.755  0.00  0.00    -0.302 OA
ATOM     27  H   UNL     1       2.769  -8.332  22.973  0.00  0.00    +0.222 HD
ENDBRANCH  24  26
BRANCH  24  28
ATOM     28  O   UNL     1       2.222  -6.625  25.119  0.00  0.00    -0.186 OA
BRANCH  28  29
ATOM     29  P   UNL     1       1.494  -8.194  25.138  0.00  0.00    +0.481 P 
ATOM     30  O   UNL     1       0.843  -9.599  25.156  0.00  0.00    -0.227 OA
BRANCH  29  31
ATOM     31  O   UNL     1       3.028  -8.768  25.032  0.00  0.00    -0.302 OA
ATOM     32  H   UNL     1       3.301  -9.196  25.860  0.00  0.00    +0.222 HD
ENDBRANCH  29  31
BRANCH  29  33
ATOM     33  O   UNL     1       1.479  -8.035  26.771  0.00  0.00    -0.302 OA
ATOM     34  H   UNL     1       1.038  -7.215  27.055  0.00  0.00    +0.222 HD
ENDBRANCH  29  33
ENDBRANCH  28  29
ENDBRANCH  24  28
ENDBRANCH  23  24
ENDBRANCH  22  23
ENDBRANCH   4  22
BRANCH   3  35
ATOM     35  O   UNL     1       5.829  -3.759  25.912  0.00  0.00    -0.278 OA
BRANCH  35  36
ATOM     36  P   UNL     1       4.410  -4.093  26.725  0.00  0.00    +0.484 P 
ATOM     37  O   UNL     1       4.235  -3.007  27.785  0.00  0.00    -0.227 OA
BRANCH  36  38
ATOM     38  O   UNL     1       3.586  -3.055  25.613  0.00  0.00    -0.302 OA
ATOM     39  H   UNL     1       3.076  -3.689  25.064  0.00  0.00    +0.222 HD
ENDBRANCH  36  38
BRANCH  36  40
ATOM     40  O   UNL     1       5.233  -5.133  27.837  0.00  0.00    -0.186 OA
BRANCH  40  41
ATOM     41  P   UNL     1       4.355  -6.398  28.248  0.00  0.00    +0.481 P 
ATOM     42  O   UNL     1       4.666  -6.961  29.591  0.00  0.00    -0.227 OA
BRANCH  41  43
ATOM     43  O   UNL     1       2.842  -5.894  28.125  0.00  0.00    -0.302 OA
ATOM     44  H   UNL     1       2.250  -6.411  28.706  0.00  0.00    +0.222 HD
ENDBRANCH  41  43
BRANCH  41  45
ATOM     45  O   UNL     1       4.511  -7.375  27.002  0.00  0.00    -0.302 OA
ATOM     46  H   UNL     1       4.396  -6.883  26.167  0.00  0.00    +0.222 HD
ENDBRANCH  41  45
ENDBRANCH  40  41
ENDBRANCH  36  40
ENDBRANCH  35  36
ENDBRANCH   3  35
TORSDOF 17
ENDMDL
MODEL 7
REMARK VINA RESULT:      -6.9      3.227      6.272
REMARK  Name = 
REMARK  17 active torsions:
REMARK  status: ('A' for Active; 'I' for Inactive)
REMARK    1  A    between atoms: N_8  and  C_9
REMARK    2  A    between atoms: C_12  and  C_14
REMARK    3  A    between atoms: C_14  and  O_15
REMARK    4  A    between atoms: O_15  and  P_16
REMARK    5  A    between atoms: P_16  and  O_17
REMARK    6  A    between atoms: P_16  and  O_19
REMARK    7  A    between atoms: O_19  and  P_20
REMARK    8  A    between atoms: P_20  and  O_21
REMARK    9  A    between atoms: P_20  and  O_22
REMARK   10  A    between atoms: C_24  and  O_26
REMARK   11  A    between atoms: O_26  and  P_27
REMARK   12  A    between atoms: P_27  and  O_28
REMARK   13  A    between atoms: P_27  and  O_30
REMARK   14  A    between atoms: O_30  and  P_31
REMARK   15  A    between atoms: P_31  and  O_32
REMARK   16  A    between atoms: P_31  and  O_33
REMARK   17  A    between atoms: C_35  and  O_37
REMARK                            x       y       z     vdW  Elec       q    Type
REMARK                         _______ _______ _______ _____ _____    ______ ____
ROOT
ATOM      1  C   UNL     1       8.720  -2.834  23.101  0.00  0.00    +0.253 C 
ATOM      2  C   UNL     1       9.284  -1.685  22.262  0.00  0.00    +0.196 C 
ATOM      3  C   UNL     1       8.971  -0.407  23.052  0.00  0.00    +0.194 C 
ATOM      4  C   UNL     1       8.553  -0.927  24.450  0.00  0.00    +0.179 C 
ATOM      5  O   UNL     1       8.862  -2.352  24.453  0.00  0.00    -0.346 OA
ENDROOT
BRANCH   1  17
ATOM      6  N   UNL     1       6.135  -6.174  26.371  0.00  0.00    -0.329 N 
ATOM      7  H   UNL     1       5.347  -6.472  26.931  0.00  0.00    +0.145 HD
ATOM      8  H   UNL     1       6.959  -5.910  26.910  0.00  0.00    +0.145 HD
ATOM      9  C   UNL     1       5.924  -5.417  25.265  0.00  0.00    +0.195 A 
ATOM     10  N   UNL     1       4.687  -5.573  24.659  0.00  0.00    -0.293 N 
ATOM     11  H   UNL     1       4.023  -6.226  25.026  0.00  0.00    +0.172 HD
ATOM     12  C   UNL     1       4.312  -4.954  23.484  0.00  0.00    +0.280 A 
ATOM     13  O   UNL     1       3.221  -5.169  22.965  0.00  0.00    -0.265 OA
ATOM     14  C   UNL     1       5.340  -4.083  22.966  0.00  0.00    +0.172 A 
ATOM     15  N   UNL     1       5.350  -3.310  21.838  0.00  0.00    -0.229 NA
ATOM     16  C   UNL     1       6.548  -2.767  21.834  0.00  0.00    +0.203 A 
ATOM     17  N   UNL     1       7.328  -3.199  22.884  0.00  0.00    -0.285 N 
ATOM     18  C   UNL     1       6.529  -3.995  23.659  0.00  0.00    +0.171 A 
ATOM     19  N   UNL     1       6.863  -4.627  24.813  0.00  0.00    -0.196 NA
ENDBRANCH   1  17
BRANCH   2  20
ATOM     20  O   UNL     1      10.707  -1.772  22.071  0.00  0.00    -0.385 OA
ATOM     21  H   UNL     1      11.071  -2.394  22.729  0.00  0.00    +0.210 HD
ENDBRANCH   2  20
BRANCH   4  22
ATOM     22  C   UNL     1       9.233  -0.380  25.733  0.00  0.00    +0.206 C 
BRANCH  22  23
ATOM     23  O   UNL     1       8.515  -0.586  26.935  0.00  0.00    -0.284 OA
BRANCH  23  24
ATOM     24  P   UNL     1       7.244   0.345  27.319  0.00  0.00    +0.483 P 
ATOM     25  O   UNL     1       7.270   0.914  28.696  0.00  0.00    -0.227 OA
BRANCH  24  26
ATOM     26  O   UNL     1       7.289   1.526  26.230  0.00  0.00    -0.302 OA
ATOM     27  H   UNL     1       7.751   1.244  25.416  0.00  0.00    +0.222 HD
ENDBRANCH  24  26
BRANCH  24  28
ATOM     28  O   UNL     1       5.878  -0.411  26.972  0.00  0.00    -0.186 OA
BRANCH  28  29
ATOM     29  P   UNL     1       4.660   0.655  26.364  0.00  0.00    +0.481 P 
ATOM     30  O   UNL     1       3.570   1.610  25.819  0.00  0.00    -0.227 OA
BRANCH  29  31
ATOM     31  O   UNL     1       5.113   0.121  24.880  0.00  0.00    -0.302 OA
ATOM     32  H   UNL     1       6.077   0.016  24.823  0.00  0.00    +0.222 HD
ENDBRANCH  29  31
BRANCH  29  33
ATOM     33  O   UNL     1       3.608  -0.564  26.676  0.00  0.00    -0.302 OA
ATOM     34  H   UNL     1       2.724  -0.388  26.308  0.00  0.00    +0.222 HD
ENDBRANCH  29  33
ENDBRANCH  28  29
ENDBRANCH  24  28
ENDBRANCH  23  24
ENDBRANCH  22  23
ENDBRANCH   4  22
BRANCH   3  35
ATOM     35  O   UNL     1       7.913   0.283  22.362  0.00  0.00    -0.278 OA
BRANCH  35  36
ATOM     36  P   UNL     1       7.952   1.951  22.428  0.00  0.00    +0.484 P 
ATOM     37  O   UNL     1       8.927   2.331  23.541  0.00  0.00    -0.227 OA
BRANCH  36  38
ATOM     38  O   UNL     1       9.299   1.914  21.345  0.00  0.00    -0.302 OA
ATOM     39  H   UNL     1      10.055   1.742  21.946  0.00  0.00    +0.222 HD
ENDBRANCH  36  38
BRANCH  36  40
ATOM     40  O   UNL     1       6.603   1.989  23.511  0.00  0.00    -0.186 OA
BRANCH  40  41
ATOM     41  P   UNL     1       5.632   3.221  23.229  0.00  0.00    +0.481 P 
ATOM     42  O   UNL     1       5.753   4.344  24.199  0.00  0.00    -0.227 OA
BRANCH  41  43
ATOM     43  O   UNL     1       5.968   3.661  21.728  0.00  0.00    -0.302 OA
ATOM     44  H   UNL     1       5.195   3.540  21.143  0.00  0.00    +0.222 HD
ENDBRANCH  41  43
BRANCH  41  45
ATOM     45  O   UNL     1       4.201   2.538  23.090  0.00  0.00    -0.302 OA
ATOM     46  H   UNL     1       4.288   1.637  22.725  0.00  0.00    +0.222 HD
ENDBRANCH  41  45
ENDBRANCH  40  41
ENDBRANCH  36  40
ENDBRANCH  35  36
ENDBRANCH   3  35
TORSDOF 17
ENDMDL
MODEL 8
REMARK VINA RESULT:      -6.9      3.117      5.532
REMARK  Name = 
REMARK  17 active torsions:
REMARK  status: ('A' for Active; 'I' for Inactive)
REMARK    1  A    between atoms: N_8  and  C_9
REMARK    2  A    between atoms: C_12  and  C_14
REMARK    3  A    between atoms: C_14  and  O_15
REMARK    4  A    between atoms: O_15  and  P_16
REMARK    5  A    between atoms: P_16  and  O_17
REMARK    6  A    between atoms: P_16  and  O_19
REMARK    7  A    between atoms: O_19  and  P_20
REMARK    8  A    between atoms: P_20  and  O_21
REMARK    9  A    between atoms: P_20  and  O_22
REMARK   10  A    between atoms: C_24  and  O_26
REMARK   11  A    between atoms: O_26  and  P_27
REMARK   12  A    between atoms: P_27  and  O_28
REMARK   13  A    between atoms: P_27  and  O_30
REMARK   14  A    between atoms: O_30  and  P_31
REMARK   15  A    between atoms: P_31  and  O_32
REMARK   16  A    between atoms: P_31  and  O_33
REMARK   17  A    between atoms: C_35  and  O_37
REMARK                            x       y       z     vdW  Elec       q    Type
REMARK                         _______ _______ _______ _____ _____    ______ ____
ROOT
ATOM      1  C   UNL     1       7.588  -4.738  24.898  0.00  0.00    +0.253 C 
ATOM      2  C   UNL     1       8.847  -4.317  24.138  0.00  0.00    +0.196 C 
ATOM      3  C   UNL     1       8.900  -2.787  24.246  0.00  0.00    +0.194 C 
ATOM      4  C   UNL     1       7.861  -2.455  25.347  0.00  0.00    +0.179 C 
ATOM      5  O   UNL     1       7.478  -3.736  25.930  0.00  0.00    -0.346 OA
ENDROOT
BRANCH   1  17
ATOM      6  N   UNL     1       2.869  -5.333  27.330  0.00  0.00    -0.329 N 
ATOM      7  H   UNL     1       1.897  -5.111  27.496  0.00  0.00    +0.145 HD
ATOM      8  H   UNL     1       3.495  -5.080  28.093  0.00  0.00    +0.145 HD
ATOM      9  C   UNL     1       3.396  -5.154  26.092  0.00  0.00    +0.195 A 
ATOM     10  N   UNL     1       2.496  -5.237  25.040  0.00  0.00    -0.293 N 
ATOM     11  H   UNL     1       1.531  -5.437  25.216  0.00  0.00    +0.172 HD
ATOM     12  C   UNL     1       2.847  -5.163  23.708  0.00  0.00    +0.280 A 
ATOM     13  O   UNL     1       2.013  -5.293  22.816  0.00  0.00    -0.265 OA
ATOM     14  C   UNL     1       4.262  -4.947  23.520  0.00  0.00    +0.172 A 
ATOM     15  N   UNL     1       4.986  -4.824  22.367  0.00  0.00    -0.229 NA
ATOM     16  C   UNL     1       6.226  -4.690  22.782  0.00  0.00    +0.203 A 
ATOM     17  N   UNL     1       6.338  -4.773  24.154  0.00  0.00    -0.285 N 
ATOM     18  C   UNL     1       5.062  -4.867  24.641  0.00  0.00    +0.171 A 
ATOM     19  N   UNL     1       4.679  -4.952  25.940  0.00  0.00    -0.196 NA
ENDBRANCH   1  17
BRANCH   2  20
ATOM     20  O   UNL     1      10.053  -4.861  24.699  0.00  0.00    -0.385 OA
ATOM     21  H   UNL     1       9.842  -5.257  25.565  0.00  0.00    +0.210 HD
ENDBRANCH   2  20
BRANCH   4  22
ATOM     22  C   UNL     1       8.250  -1.576  26.564  0.00  0.00    +0.206 C 
BRANCH  22  23
ATOM     23  O   UNL     1       7.230  -0.721  27.047  0.00  0.00    -0.284 OA
BRANCH  23  24
ATOM     24  P   UNL     1       7.108   0.809  26.529  0.00  0.00    +0.483 P 
ATOM     25  O   UNL     1       6.864   1.820  27.596  0.00  0.00    -0.227 OA
BRANCH  24  26
ATOM     26  O   UNL     1       8.520   1.088  25.814  0.00  0.00    -0.302 OA
ATOM     27  H   UNL     1       9.003   1.818  26.250  0.00  0.00    +0.222 HD
ENDBRANCH  24  26
BRANCH  24  28
ATOM     28  O   UNL     1       6.068   0.905  25.319  0.00  0.00    -0.186 OA
BRANCH  28  29
ATOM     29  P   UNL     1       5.108   2.342  25.373  0.00  0.00    +0.481 P 
ATOM     30  O   UNL     1       4.249   3.630  25.423  0.00  0.00    -0.227 OA
BRANCH  29  31
ATOM     31  O   UNL     1       6.489   3.129  24.967  0.00  0.00    -0.302 OA
ATOM     32  H   UNL     1       6.660   3.874  25.566  0.00  0.00    +0.222 HD
ENDBRANCH  29  31
BRANCH  29  33
ATOM     33  O   UNL     1       4.665   1.961  23.841  0.00  0.00    -0.302 OA
ATOM     34  H   UNL     1       4.244   1.085  23.789  0.00  0.00    +0.222 HD
ENDBRANCH  29  33
ENDBRANCH  28  29
ENDBRANCH  24  28
ENDBRANCH  23  24
ENDBRANCH  22  23
ENDBRANCH   4  22
BRANCH   3  35
ATOM     35  O   UNL     1       8.556  -2.246  22.957  0.00  0.00    -0.278 OA
BRANCH  35  36
ATOM     36  P   UNL     1       9.374  -0.867  22.492  0.00  0.00    +0.484 P 
ATOM     37  O   UNL     1      10.144  -0.370  23.714  0.00  0.00    -0.227 OA
BRANCH  36  38
ATOM     38  O   UNL     1      10.737  -1.863  22.115  0.00  0.00    -0.302 OA
ATOM     39  H   UNL     1      10.861  -2.380  22.939  0.00  0.00    +0.222 HD
ENDBRANCH  36  38
BRANCH  36  40
ATOM     40  O   UNL     1       8.011   0.129  22.867  0.00  0.00    -0.186 OA
BRANCH  40  41
ATOM     41  P   UNL     1       8.162   1.608  22.291  0.00  0.00    +0.481 P 
ATOM     42  O   UNL     1       6.878   2.272  21.935  0.00  0.00    -0.227 OA
BRANCH  41  43
ATOM     43  O   UNL     1       8.974   2.398  23.420  0.00  0.00    -0.302 OA
ATOM     44  H   UNL     1       8.830   3.362  23.348  0.00  0.00    +0.222 HD
ENDBRANCH  41  43
BRANCH  41  45
ATOM     45  O   UNL     1       9.235   1.441  21.128  0.00  0.00    -0.302 OA
ATOM     46  H   UNL     1       9.887   2.167  21.159  0.00  0.00    +0.222 HD
ENDBRANCH  41  45
ENDBRANCH  40  41
ENDBRANCH  36  40
ENDBRANCH  35  36
ENDBRANCH   3  35
TORSDOF 17
ENDMDL
MODEL 9
REMARK VINA RESULT:      -6.9      4.246      8.003
REMARK  Name = 
REMARK  17 active torsions:
REMARK  status: ('A' for Active; 'I' for Inactive)
REMARK    1  A    between atoms: N_8  and  C_9
REMARK    2  A    between atoms: C_12  and  C_14
REMARK    3  A    between atoms: C_14  and  O_15
REMARK    4  A    between atoms: O_15  and  P_16
REMARK    5  A    between atoms: P_16  and  O_17
REMARK    6  A    between atoms: P_16  and  O_19
REMARK    7  A    between atoms: O_19  and  P_20
REMARK    8  A    between atoms: P_20  and  O_21
REMARK    9  A    between atoms: P_20  and  O_22
REMARK   10  A    between atoms: C_24  and  O_26
REMARK   11  A    between atoms: O_26  and  P_27
REMARK   12  A    between atoms: P_27  and  O_28
REMARK   13  A    between atoms: P_27  and  O_30
REMARK   14  A    between atoms: O_30  and  P_31
REMARK   15  A    between atoms: P_31  and  O_32
REMARK   16  A    between atoms: P_31  and  O_33
REMARK   17  A    between atoms: C_35  and  O_37
REMARK                            x       y       z     vdW  Elec       q    Type
REMARK                         _______ _______ _______ _____ _____    ______ ____
ROOT
ATOM      1  C   UNL     1       5.762   0.691  24.452  0.00  0.00    +0.253 C 
ATOM      2  C   UNL     1       6.536  -0.490  23.861  0.00  0.00    +0.196 C 
ATOM      3  C   UNL     1       7.137  -1.230  25.063  0.00  0.00    +0.194 C 
ATOM      4  C   UNL     1       6.391  -0.630  26.281  0.00  0.00    +0.179 C 
ATOM      5  O   UNL     1       5.316   0.185  25.727  0.00  0.00    -0.346 OA
ENDROOT
BRANCH   1  17
ATOM      6  N   UNL     1      10.135   1.925  21.642  0.00  0.00    -0.329 N 
ATOM      7  H   UNL     1      10.728   2.546  21.109  0.00  0.00    +0.145 HD
ATOM      8  H   UNL     1       9.709   1.177  21.096  0.00  0.00    +0.145 HD
ATOM      9  C   UNL     1       9.335   2.432  22.615  0.00  0.00    +0.195 A 
ATOM     10  N   UNL     1       9.775   3.611  23.198  0.00  0.00    -0.293 N 
ATOM     11  H   UNL     1      10.641   4.023  22.911  0.00  0.00    +0.172 HD
ATOM     12  C   UNL     1       9.146   4.238  24.253  0.00  0.00    +0.280 A 
ATOM     13  O   UNL     1       9.609   5.255  24.763  0.00  0.00    -0.265 OA
ATOM     14  C   UNL     1       7.944   3.554  24.667  0.00  0.00    +0.172 A 
ATOM     15  N   UNL     1       7.060   3.858  25.665  0.00  0.00    -0.229 NA
ATOM     16  C   UNL     1       6.185   2.877  25.625  0.00  0.00    +0.203 A 
ATOM     17  N   UNL     1       6.498   1.926  24.677  0.00  0.00    -0.285 N 
ATOM     18  C   UNL     1       7.595   2.396  24.006  0.00  0.00    +0.171 A 
ATOM     19  N   UNL     1       8.245   1.804  22.972  0.00  0.00    -0.196 NA
ENDBRANCH   1  17
BRANCH   2  20
ATOM     20  O   UNL     1       5.699  -1.402  23.129  0.00  0.00    -0.385 OA
ATOM     21  H   UNL     1       5.794  -2.291  23.519  0.00  0.00    +0.210 HD
ENDBRANCH   2  20
BRANCH   4  22
ATOM     22  C   UNL     1       5.688  -1.551  27.312  0.00  0.00    +0.206 C 
BRANCH  22  23
ATOM     23  O   UNL     1       4.639  -2.349  26.797  0.00  0.00    -0.284 OA
BRANCH  23  24
ATOM     24  P   UNL     1       4.855  -3.930  26.513  0.00  0.00    +0.483 P 
ATOM     25  O   UNL     1       3.645  -4.779  26.706  0.00  0.00    -0.227 OA
BRANCH  24  26
ATOM     26  O   UNL     1       5.332  -3.985  24.979  0.00  0.00    -0.302 OA
ATOM     27  H   UNL     1       4.587  -4.192  24.381  0.00  0.00    +0.222 HD
ENDBRANCH  24  26
BRANCH  24  28
ATOM     28  O   UNL     1       6.136  -4.466  27.306  0.00  0.00    -0.186 OA
BRANCH  28  29
ATOM     29  P   UNL     1       5.893  -6.038  27.984  0.00  0.00    +0.481 P 
ATOM     30  O   UNL     1       5.674  -7.446  28.591  0.00  0.00    -0.227 OA
BRANCH  29  31
ATOM     31  O   UNL     1       5.687  -6.537  26.435  0.00  0.00    -0.302 OA
ATOM     32  H   UNL     1       6.537  -6.767  26.023  0.00  0.00    +0.222 HD
ENDBRANCH  29  31
BRANCH  29  33
ATOM     33  O   UNL     1       7.529  -6.157  27.992  0.00  0.00    -0.302 OA
ATOM     34  H   UNL     1       7.830  -7.043  28.258  0.00  0.00    +0.222 HD
ENDBRANCH  29  33
ENDBRANCH  28  29
ENDBRANCH  24  28
ENDBRANCH  23  24
ENDBRANCH  22  23
ENDBRANCH   4  22
BRANCH   3  35
ATOM     35  O   UNL     1       8.552  -0.966  25.075  0.00  0.00    -0.278 OA
BRANCH  35  36
ATOM     36  P   UNL     1       9.478  -1.852  24.006  0.00  0.00    +0.484 P 
ATOM     37  O   UNL     1       8.965  -1.537  22.601  0.00  0.00    -0.227 OA
BRANCH  36  38
ATOM     38  O   UNL     1      10.529  -0.486  23.862  0.00  0.00    -0.302 OA
ATOM     39  H   UNL     1      11.030  -0.509  24.705  0.00  0.00    +0.222 HD
ENDBRANCH  36  38
BRANCH  36  40
ATOM     40  O   UNL     1       8.428  -3.219  24.150  0.00  0.00    -0.186 OA
BRANCH  40  41
ATOM     41  P   UNL     1       9.029  -4.349  25.101  0.00  0.00    +0.481 P 
ATOM     42  O   UNL     1      10.432  -4.739  24.793  0.00  0.00    -0.227 OA
BRANCH  41  43
ATOM     43  O   UNL     1       8.861  -3.760  26.579  0.00  0.00    -0.302 OA
ATOM     44  H   UNL     1       8.618  -2.814  26.556  0.00  0.00    +0.222 HD
ENDBRANCH  41  43
BRANCH  41  45
ATOM     45  O   UNL     1       7.931  -5.499  25.046  0.00  0.00    -0.302 OA
ATOM     46  H   UNL     1       7.253  -5.356  25.733  0.00  0.00    +0.222 HD
ENDBRANCH  41  45
ENDBRANCH  40  41
ENDBRANCH  36  40
ENDBRANCH  35  36
ENDBRANCH   3  35
TORSDOF 17
ENDMDL
