MODEL 1
REMARK VINA RESULT:      -6.6      0.000      0.000
REMARK  Name = 
REMARK  7 active torsions:
REMARK  status: ('A' for Active; 'I' for Inactive)
REMARK    1  A    between atoms: C_1  and  N_2
REMARK    2  A    between atoms: N_2  and  C_3
REMARK    3  A    between atoms: N_2  and  C_4
REMARK    4  A    between atoms: C_4  and  C_5
REMARK    5  A    between atoms: C_6  and  C_7
REMARK    6  A    between atoms: N_9  and  C_10
REMARK    7  A    between atoms: N_18  and  C_19
REMARK                            x       y       z     vdW  Elec       q    Type
REMARK                         _______ _______ _______ _____ _____    ______ ____
ROOT
ATOM      1  C   UNL     1       8.227  -2.824  24.772  0.00  0.00    +0.034 A 
ATOM      2  C   UNL     1       7.076  -3.514  24.378  0.00  0.00    +0.036 A 
ATOM      3  C   UNL     1       6.549  -4.576  25.176  0.00  0.00    +0.042 A 
ATOM      4  C   UNL     1       7.222  -4.958  26.346  0.00  0.00    +0.076 A 
ATOM      5  N   UNL     1       6.791  -5.908  27.175  0.00  0.00    -0.235 NA
ATOM      6  C   UNL     1       5.635  -6.493  26.859  0.00  0.00    +0.223 A 
ATOM      7  N   UNL     1       4.893  -6.232  25.781  0.00  0.00    -0.220 NA
ATOM      8  C   UNL     1       8.396  -4.315  26.680  0.00  0.00    +0.030 A 
ATOM      9  C   UNL     1       5.346  -5.278  24.942  0.00  0.00    +0.134 A 
ATOM     10  N   UNL     1       4.589  -5.000  23.774  0.00  0.00    -0.299 N 
ATOM     11  H   UNL     1       5.133  -5.271  22.961  0.00  0.00    +0.154 HD
ATOM     12  C   UNL     1       8.900  -3.268  25.909  0.00  0.00    +0.025 A 
ENDROOT
BRANCH  10  13
ATOM     13  C   UNL     1       3.204  -5.239  23.608  0.00  0.00    +0.033 A 
ATOM     14  C   UNL     1       2.268  -4.420  24.256  0.00  0.00    +0.023 A 
ATOM     15  C   UNL     1       0.898  -4.690  24.178  0.00  0.00    +0.003 A 
ATOM     16  C   UNL     1       0.443  -5.800  23.469  0.00  0.00    +0.015 A 
ATOM     17  C   UNL     1       1.364  -6.631  22.838  0.00  0.00    +0.020 A 
ATOM     18 BR   UNL     1       0.760  -8.158  21.899  0.00  0.00    -0.050 Br
ATOM     19  C   UNL     1       2.731  -6.358  22.907  0.00  0.00    +0.038 A 
ENDBRANCH  10  13
BRANCH   1  21
ATOM     20  C   UNL     1       9.758  -1.670  23.210  0.00  0.00    +0.241 C 
ATOM     21  N   UNL     1       8.650  -1.688  24.038  0.00  0.00    -0.282 N 
ATOM     22  H   UNL     1       8.200  -0.806  24.247  0.00  0.00    +0.155 HD
ATOM     23  O   UNL     1      10.525  -2.607  23.010  0.00  0.00    -0.271 OA
BRANCH  20  25
ATOM     24  C   UNL     1      10.008   0.726  23.372  0.00  0.00    -0.007 C 
ATOM     25  C   UNL     1      10.023  -0.354  22.571  0.00  0.00    +0.064 C 
BRANCH  24  26
ATOM     26  C   UNL     1      10.214   2.146  22.956  0.00  0.00    +0.111 C 
BRANCH  26  28
ATOM     27  C   UNL     1       8.665   2.499  24.810  0.00  0.00    +0.104 C 
ATOM     28  N   UNL     1       9.235   3.048  23.575  0.00  0.00    -0.305 NA
ATOM     29  C   UNL     1       9.867   4.337  23.862  0.00  0.00    +0.104 C 
ENDBRANCH  26  28
ENDBRANCH  24  26
ENDBRANCH  20  25
ENDBRANCH   1  21
TORSDOF 5
ENDMDL
MODEL 2
REMARK VINA RESULT:      -6.5      2.326      3.355
REMARK  Name = 
REMARK  7 active torsions:
REMARK  status: ('A' for Active; 'I' for Inactive)
REMARK    1  A    between atoms: C_1  and  N_2
REMARK    2  A    between atoms: N_2  and  C_3
REMARK    3  A    between atoms: N_2  and  C_4
REMARK    4  A    between atoms: C_4  and  C_5
REMARK    5  A    between atoms: C_6  and  C_7
REMARK    6  A    between atoms: N_9  and  C_10
REMARK    7  A    between atoms: N_18  and  C_19
REMARK                            x       y       z     vdW  Elec       q    Type
REMARK                         _______ _______ _______ _____ _____    ______ ____
ROOT
ATOM      1  C   UNL     1       8.694  -0.487  22.591  0.00  0.00    +0.034 A 
ATOM      2  C   UNL     1       7.632  -1.386  22.733  0.00  0.00    +0.036 A 
ATOM      3  C   UNL     1       7.823  -2.651  23.372  0.00  0.00    +0.042 A 
ATOM      4  C   UNL     1       9.103  -3.010  23.821  0.00  0.00    +0.076 A 
ATOM      5  N   UNL     1       9.374  -4.147  24.460  0.00  0.00    -0.235 NA
ATOM      6  C   UNL     1       8.342  -4.958  24.694  0.00  0.00    +0.223 A 
ATOM      7  N   UNL     1       7.078  -4.745  24.323  0.00  0.00    -0.220 NA
ATOM      8  C   UNL     1      10.153  -2.141  23.606  0.00  0.00    +0.030 A 
ATOM      9  C   UNL     1       6.817  -3.598  23.665  0.00  0.00    +0.134 A 
ATOM     10  N   UNL     1       5.486  -3.360  23.235  0.00  0.00    -0.299 N 
ATOM     11  H   UNL     1       5.464  -3.364  22.221  0.00  0.00    +0.154 HD
ATOM     12  C   UNL     1       9.962  -0.901  22.997  0.00  0.00    +0.025 A 
ENDROOT
BRANCH  10  13
ATOM     13  C   UNL     1       4.318  -3.922  23.807  0.00  0.00    +0.033 A 
ATOM     14  C   UNL     1       3.847  -3.453  25.042  0.00  0.00    +0.023 A 
ATOM     15  C   UNL     1       2.748  -4.050  25.668  0.00  0.00    +0.003 A 
ATOM     16  C   UNL     1       2.117  -5.144  25.078  0.00  0.00    +0.015 A 
ATOM     17  C   UNL     1       2.589  -5.630  23.862  0.00  0.00    +0.020 A 
ATOM     18 BR   UNL     1       1.759  -7.134  23.068  0.00  0.00    -0.050 Br
ATOM     19  C   UNL     1       3.679  -5.029  23.232  0.00  0.00    +0.038 A 
ENDBRANCH  10  13
BRANCH   1  21
ATOM     20  C   UNL     1       7.965   1.863  22.838  0.00  0.00    +0.241 C 
ATOM     21  N   UNL     1       8.450   0.811  22.080  0.00  0.00    -0.282 N 
ATOM     22  H   UNL     1       8.494   0.931  21.076  0.00  0.00    +0.155 HD
ATOM     23  O   UNL     1       7.668   1.818  24.027  0.00  0.00    -0.271 OA
BRANCH  20  25
ATOM     24  C   UNL     1       7.646   4.256  22.788  0.00  0.00    -0.007 C 
ATOM     25  C   UNL     1       7.756   3.122  22.075  0.00  0.00    +0.064 C 
BRANCH  24  26
ATOM     26  C   UNL     1       7.404   5.628  22.249  0.00  0.00    +0.111 C 
BRANCH  26  28
ATOM     27  C   UNL     1       7.255   6.868  24.346  0.00  0.00    +0.104 C 
ATOM     28  N   UNL     1       8.000   6.666  23.098  0.00  0.00    -0.305 NA
ATOM     29  C   UNL     1       9.386   6.312  23.410  0.00  0.00    +0.104 C 
ENDBRANCH  26  28
ENDBRANCH  24  26
ENDBRANCH  20  25
ENDBRANCH   1  21
TORSDOF 5
ENDMDL
MODEL 3
REMARK VINA RESULT:      -6.5      2.636      3.676
REMARK  Name = 
REMARK  7 active torsions:
REMARK  status: ('A' for Active; 'I' for Inactive)
REMARK    1  A    between atoms: C_1  and  N_2
REMARK    2  A    between atoms: N_2  and  C_3
REMARK    3  A    between atoms: N_2  and  C_4
REMARK    4  A    between atoms: C_4  and  C_5
REMARK    5  A    between atoms: C_6  and  C_7
REMARK    6  A    between atoms: N_9  and  C_10
REMARK    7  A    between atoms: N_18  and  C_19
REMARK                            x       y       z     vdW  Elec       q    Type
REMARK                         _______ _______ _______ _____ _____    ______ ____
ROOT
ATOM      1  C   UNL     1       8.644  -0.503  22.582  0.00  0.00    +0.034 A 
ATOM      2  C   UNL     1       7.635  -1.466  22.686  0.00  0.00    +0.036 A 
ATOM      3  C   UNL     1       7.880  -2.718  23.329  0.00  0.00    +0.042 A 
ATOM      4  C   UNL     1       9.163  -3.001  23.823  0.00  0.00    +0.076 A 
ATOM      5  N   UNL     1       9.480  -4.121  24.469  0.00  0.00    -0.235 NA
ATOM      6  C   UNL     1       8.493  -4.995  24.666  0.00  0.00    +0.223 A 
ATOM      7  N   UNL     1       7.231  -4.858  24.252  0.00  0.00    -0.220 NA
ATOM      8  C   UNL     1      10.164  -2.068  23.646  0.00  0.00    +0.030 A 
ATOM      9  C   UNL     1       6.924  -3.726  23.586  0.00  0.00    +0.134 A 
ATOM     10  N   UNL     1       5.596  -3.569  23.111  0.00  0.00    -0.299 N 
ATOM     11  H   UNL     1       5.611  -3.570  22.096  0.00  0.00    +0.154 HD
ATOM     12  C   UNL     1       9.919  -0.840  23.032  0.00  0.00    +0.025 A 
ENDROOT
BRANCH  10  13
ATOM     13  C   UNL     1       4.446  -4.202  23.641  0.00  0.00    +0.033 A 
ATOM     14  C   UNL     1       3.958  -5.377  23.050  0.00  0.00    +0.023 A 
ATOM     15  C   UNL     1       2.775  -5.972  23.501  0.00  0.00    +0.003 A 
ATOM     16  C   UNL     1       2.047  -5.385  24.535  0.00  0.00    +0.015 A 
ATOM     17  C   UNL     1       2.512  -4.209  25.115  0.00  0.00    +0.020 A 
ATOM     18 BR   UNL     1       1.516  -3.389  26.498  0.00  0.00    -0.050 Br
ATOM     19  C   UNL     1       3.698  -3.619  24.673  0.00  0.00    +0.038 A 
ENDBRANCH  10  13
BRANCH   1  21
ATOM     20  C   UNL     1       8.025   1.876  22.849  0.00  0.00    +0.241 C 
ATOM     21  N   UNL     1       8.339   0.780  22.065  0.00  0.00    -0.282 N 
ATOM     22  H   UNL     1       8.200   0.857  21.066  0.00  0.00    +0.155 HD
ATOM     23  O   UNL     1       7.952   1.891  24.074  0.00  0.00    -0.271 OA
BRANCH  20  25
ATOM     24  C   UNL     1       7.652   4.260  22.769  0.00  0.00    -0.007 C 
ATOM     25  C   UNL     1       7.708   3.108  22.079  0.00  0.00    +0.064 C 
BRANCH  24  26
ATOM     26  C   UNL     1       7.322   5.611  22.222  0.00  0.00    +0.111 C 
BRANCH  26  28
ATOM     27  C   UNL     1       7.132   6.991  24.227  0.00  0.00    +0.104 C 
ATOM     28  N   UNL     1       7.915   6.689  23.024  0.00  0.00    -0.305 NA
ATOM     29  C   UNL     1       9.279   6.322  23.410  0.00  0.00    +0.104 C 
ENDBRANCH  26  28
ENDBRANCH  24  26
ENDBRANCH  20  25
ENDBRANCH   1  21
TORSDOF 5
ENDMDL
MODEL 4
REMARK VINA RESULT:      -6.2      3.863      9.190
REMARK  Name = 
REMARK  7 active torsions:
REMARK  status: ('A' for Active; 'I' for Inactive)
REMARK    1  A    between atoms: C_1  and  N_2
REMARK    2  A    between atoms: N_2  and  C_3
REMARK    3  A    between atoms: N_2  and  C_4
REMARK    4  A    between atoms: C_4  and  C_5
REMARK    5  A    between atoms: C_6  and  C_7
REMARK    6  A    between atoms: N_9  and  C_10
REMARK    7  A    between atoms: N_18  and  C_19
REMARK                            x       y       z     vdW  Elec       q    Type
REMARK                         _______ _______ _______ _____ _____    ______ ____
ROOT
ATOM      1  C   UNL     1       5.870  -4.100  24.409  0.00  0.00    +0.034 A 
ATOM      2  C   UNL     1       6.211  -2.744  24.421  0.00  0.00    +0.036 A 
ATOM      3  C   UNL     1       7.559  -2.326  24.190  0.00  0.00    +0.042 A 
ATOM      4  C   UNL     1       8.557  -3.293  23.995  0.00  0.00    +0.076 A 
ATOM      5  N   UNL     1       9.831  -3.003  23.736  0.00  0.00    -0.235 NA
ATOM      6  C   UNL     1      10.139  -1.710  23.637  0.00  0.00    +0.223 A 
ATOM      7  N   UNL     1       9.295  -0.688  23.800  0.00  0.00    -0.220 NA
ATOM      8  C   UNL     1       8.213  -4.627  24.060  0.00  0.00    +0.030 A 
ATOM      9  C   UNL     1       8.011  -0.993  24.076  0.00  0.00    +0.134 A 
ATOM     10  N   UNL     1       7.100   0.076  24.281  0.00  0.00    -0.299 N 
ATOM     11  H   UNL     1       6.790   0.059  25.247  0.00  0.00    +0.154 HD
ATOM     12  C   UNL     1       6.895  -5.033  24.269  0.00  0.00    +0.025 A 
ENDROOT
BRANCH  10  13
ATOM     13  C   UNL     1       7.238   1.391  23.776  0.00  0.00    +0.033 A 
ATOM     14  C   UNL     1       6.978   1.653  22.423  0.00  0.00    +0.023 A 
ATOM     15  C   UNL     1       7.192   2.925  21.881  0.00  0.00    +0.003 A 
ATOM     16  C   UNL     1       7.693   3.950  22.681  0.00  0.00    +0.015 A 
ATOM     17  C   UNL     1       7.972   3.696  24.021  0.00  0.00    +0.020 A 
ATOM     18 BR   UNL     1       8.682   5.073  25.108  0.00  0.00    -0.050 Br
ATOM     19  C   UNL     1       7.751   2.430  24.565  0.00  0.00    +0.038 A 
ENDBRANCH  10  13
BRANCH   1  21
ATOM     20  C   UNL     1       3.780  -5.016  23.455  0.00  0.00    +0.241 C 
ATOM     21  N   UNL     1       4.508  -4.480  24.503  0.00  0.00    -0.282 N 
ATOM     22  H   UNL     1       4.006  -4.208  25.338  0.00  0.00    +0.155 HD
ATOM     23  O   UNL     1       4.194  -5.218  22.318  0.00  0.00    -0.271 OA
BRANCH  20  25
ATOM     24  C   UNL     1       2.057  -6.571  24.120  0.00  0.00    -0.007 C 
ATOM     25  C   UNL     1       2.359  -5.305  23.783  0.00  0.00    +0.064 C 
BRANCH  24  26
ATOM     26  C   UNL     1       0.703  -7.105  24.457  0.00  0.00    +0.111 C 
BRANCH  26  28
ATOM     27  C   UNL     1       1.059  -8.496  22.482  0.00  0.00    +0.104 C 
ATOM     28  N   UNL     1       0.443  -8.397  23.810  0.00  0.00    -0.305 NA
ATOM     29  C   UNL     1       0.942  -9.481  24.659  0.00  0.00    +0.104 C 
ENDBRANCH  26  28
ENDBRANCH  24  26
ENDBRANCH  20  25
ENDBRANCH   1  21
TORSDOF 5
ENDMDL
MODEL 5
REMARK VINA RESULT:      -6.2      3.613      8.683
REMARK  Name = 
REMARK  7 active torsions:
REMARK  status: ('A' for Active; 'I' for Inactive)
REMARK    1  A    between atoms: C_1  and  N_2
REMARK    2  A    between atoms: N_2  and  C_3
REMARK    3  A    between atoms: N_2  and  C_4
REMARK    4  A    between atoms: C_4  and  C_5
REMARK    5  A    between atoms: C_6  and  C_7
REMARK    6  A    between atoms: N_9  and  C_10
REMARK    7  A    between atoms: N_18  and  C_19
REMARK                            x       y       z     vdW  Elec       q    Type
REMARK                         _______ _______ _______ _____ _____    ______ ____
ROOT
ATOM      1  C   UNL     1       8.479  -1.481  23.029  0.00  0.00    +0.034 A 
ATOM      2  C   UNL     1       8.208  -0.550  24.037  0.00  0.00    +0.036 A 
ATOM      3  C   UNL     1       8.757   0.769  23.983  0.00  0.00    +0.042 A 
ATOM      4  C   UNL     1       9.615   1.116  22.928  0.00  0.00    +0.076 A 
ATOM      5  N   UNL     1      10.145   2.328  22.770  0.00  0.00    -0.235 NA
ATOM      6  C   UNL     1       9.801   3.250  23.669  0.00  0.00    +0.223 A 
ATOM      7  N   UNL     1       9.000   3.059  24.720  0.00  0.00    -0.220 NA
ATOM      8  C   UNL     1       9.928   0.161  21.983  0.00  0.00    +0.030 A 
ATOM      9  C   UNL     1       8.480   1.825  24.878  0.00  0.00    +0.134 A 
ATOM     10  N   UNL     1       7.648   1.589  26.003  0.00  0.00    -0.299 N 
ATOM     11  H   UNL     1       8.112   0.931  26.620  0.00  0.00    +0.154 HD
ATOM     12  C   UNL     1       9.379  -1.120  22.028  0.00  0.00    +0.025 A 
ENDROOT
BRANCH  10  13
ATOM     13  C   UNL     1       6.912   2.571  26.710  0.00  0.00    +0.033 A 
ATOM     14  C   UNL     1       7.085   2.716  28.094  0.00  0.00    +0.023 A 
ATOM     15  C   UNL     1       6.306   3.618  28.827  0.00  0.00    +0.003 A 
ATOM     16  C   UNL     1       5.323   4.373  28.188  0.00  0.00    +0.015 A 
ATOM     17  C   UNL     1       5.130   4.222  26.818  0.00  0.00    +0.020 A 
ATOM     18 BR   UNL     1       3.778   5.219  25.948  0.00  0.00    -0.050 Br
ATOM     19  C   UNL     1       5.912   3.330  26.084  0.00  0.00    +0.038 A 
ENDBRANCH  10  13
BRANCH   1  21
ATOM     20  C   UNL     1       8.300  -3.865  23.663  0.00  0.00    +0.241 C 
ATOM     21  N   UNL     1       7.814  -2.732  23.034  0.00  0.00    -0.282 N 
ATOM     22  H   UNL     1       7.016  -2.836  22.420  0.00  0.00    +0.155 HD
ATOM     23  O   UNL     1       9.357  -3.951  24.279  0.00  0.00    -0.271 OA
BRANCH  20  25
ATOM     24  C   UNL     1       6.148  -4.861  23.208  0.00  0.00    -0.007 C 
ATOM     25  C   UNL     1       7.443  -5.069  23.501  0.00  0.00    +0.064 C 
BRANCH  24  26
ATOM     26  C   UNL     1       5.095  -5.906  23.031  0.00  0.00    +0.111 C 
BRANCH  26  28
ATOM     27  C   UNL     1       2.693  -6.338  22.996  0.00  0.00    +0.104 C 
ATOM     28  N   UNL     1       3.751  -5.323  22.937  0.00  0.00    -0.305 NA
ATOM     29  C   UNL     1       3.558  -4.355  24.018  0.00  0.00    +0.104 C 
ENDBRANCH  26  28
ENDBRANCH  24  26
ENDBRANCH  20  25
ENDBRANCH   1  21
TORSDOF 5
ENDMDL
MODEL 6
REMARK VINA RESULT:      -6.1      4.065      8.411
REMARK  Name = 
REMARK  7 active torsions:
REMARK  status: ('A' for Active; 'I' for Inactive)
REMARK    1  A    between atoms: C_1  and  N_2
REMARK    2  A    between atoms: N_2  and  C_3
REMARK    3  A    between atoms: N_2  and  C_4
REMARK    4  A    between atoms: C_4  and  C_5
REMARK    5  A    between atoms: C_6  and  C_7
REMARK    6  A    between atoms: N_9  and  C_10
REMARK    7  A    between atoms: N_18  and  C_19
REMARK                            x       y       z     vdW  Elec       q    Type
REMARK                         _______ _______ _______ _____ _____    ______ ____
ROOT
ATOM      1  C   UNL     1       7.149  -2.266  23.245  0.00  0.00    +0.034 A 
ATOM      2  C   UNL     1       6.643  -0.983  23.477  0.00  0.00    +0.036 A 
ATOM      3  C   UNL     1       7.292   0.169  22.933  0.00  0.00    +0.042 A 
ATOM      4  C   UNL     1       8.476   0.011  22.198  0.00  0.00    +0.076 A 
ATOM      5  N   UNL     1       9.132   1.017  21.621  0.00  0.00    -0.235 NA
ATOM      6  C   UNL     1       8.593   2.229  21.747  0.00  0.00    +0.223 A 
ATOM      7  N   UNL     1       7.477   2.525  22.418  0.00  0.00    -0.220 NA
ATOM      8  C   UNL     1       9.000  -1.256  22.043  0.00  0.00    +0.030 A 
ATOM      9  C   UNL     1       6.828   1.501  23.009  0.00  0.00    +0.134 A 
ATOM     10  N   UNL     1       5.654   1.793  23.751  0.00  0.00    -0.299 N 
ATOM     11  H   UNL     1       5.829   1.594  24.730  0.00  0.00    +0.154 HD
ATOM     12  C   UNL     1       8.356  -2.381  22.559  0.00  0.00    +0.025 A 
ENDROOT
BRANCH  10  13
ATOM     13  C   UNL     1       4.815   2.918  23.566  0.00  0.00    +0.033 A 
ATOM     14  C   UNL     1       4.701   3.882  24.577  0.00  0.00    +0.023 A 
ATOM     15  C   UNL     1       3.812   4.955  24.453  0.00  0.00    +0.003 A 
ATOM     16  C   UNL     1       3.004   5.067  23.323  0.00  0.00    +0.015 A 
ATOM     17  C   UNL     1       3.095   4.104  22.322  0.00  0.00    +0.020 A 
ATOM     18 BR   UNL     1       1.981   4.230  20.798  0.00  0.00    -0.050 Br
ATOM     19  C   UNL     1       3.988   3.038  22.439  0.00  0.00    +0.038 A 
ENDBRANCH  10  13
BRANCH   1  21
ATOM     20  C   UNL     1       5.496  -4.071  22.889  0.00  0.00    +0.241 C 
ATOM     21  N   UNL     1       6.413  -3.398  23.676  0.00  0.00    -0.282 N 
ATOM     22  H   UNL     1       6.456  -3.632  24.660  0.00  0.00    +0.155 HD
ATOM     23  O   UNL     1       5.183  -3.782  21.738  0.00  0.00    -0.271 OA
BRANCH  20  25
ATOM     24  C   UNL     1       5.282  -5.547  24.787  0.00  0.00    -0.007 C 
ATOM     25  C   UNL     1       4.823  -5.208  23.570  0.00  0.00    +0.064 C 
BRANCH  24  26
ATOM     26  C   UNL     1       4.789  -6.666  25.646  0.00  0.00    +0.111 C 
BRANCH  26  28
ATOM     27  C   UNL     1       6.399  -5.589  27.132  0.00  0.00    +0.104 C 
ATOM     28  N   UNL     1       5.501  -6.731  26.928  0.00  0.00    -0.305 NA
ATOM     29  C   UNL     1       4.533  -6.792  28.025  0.00  0.00    +0.104 C 
ENDBRANCH  26  28
ENDBRANCH  24  26
ENDBRANCH  20  25
ENDBRANCH   1  21
TORSDOF 5
ENDMDL
MODEL 7
REMARK VINA RESULT:      -6.1      3.541      8.713
REMARK  Name = 
REMARK  7 active torsions:
REMARK  status: ('A' for Active; 'I' for Inactive)
REMARK    1  A    between atoms: C_1  and  N_2
REMARK    2  A    between atoms: N_2  and  C_3
REMARK    3  A    between atoms: N_2  and  C_4
REMARK    4  A    between atoms: C_4  and  C_5
REMARK    5  A    between atoms: C_6  and  C_7
REMARK    6  A    between atoms: N_9  and  C_10
REMARK    7  A    between atoms: N_18  and  C_19
REMARK                            x       y       z     vdW  Elec       q    Type
REMARK                         _______ _______ _______ _____ _____    ______ ____
ROOT
ATOM      1  C   UNL     1       8.375  -2.756  24.922  0.00  0.00    +0.034 A 
ATOM      2  C   UNL     1       8.142  -1.452  25.370  0.00  0.00    +0.036 A 
ATOM      3  C   UNL     1       8.886  -0.351  24.841  0.00  0.00    +0.042 A 
ATOM      4  C   UNL     1       9.893  -0.592  23.894  0.00  0.00    +0.076 A 
ATOM      5  N   UNL     1      10.614   0.368  23.317  0.00  0.00    -0.235 NA
ATOM      6  C   UNL     1      10.319   1.622  23.660  0.00  0.00    +0.223 A 
ATOM      7  N   UNL     1       9.391   1.995  24.544  0.00  0.00    -0.220 NA
ATOM      8  C   UNL     1      10.159  -1.892  23.520  0.00  0.00    +0.030 A 
ATOM      9  C   UNL     1       8.677   1.014  25.134  0.00  0.00    +0.134 A 
ATOM     10  N   UNL     1       7.704   1.383  26.098  0.00  0.00    -0.299 N 
ATOM     11  H   UNL     1       7.995   1.033  27.005  0.00  0.00    +0.154 HD
ATOM     12  C   UNL     1       9.421  -2.963  24.024  0.00  0.00    +0.025 A 
ENDROOT
BRANCH  10  13
ATOM     13  C   UNL     1       7.053   2.637  26.181  0.00  0.00    +0.033 A 
ATOM     14  C   UNL     1       7.125   3.389  27.363  0.00  0.00    +0.023 A 
ATOM     15  C   UNL     1       6.418   4.588  27.499  0.00  0.00    +0.003 A 
ATOM     16  C   UNL     1       5.608   5.044  26.461  0.00  0.00    +0.015 A 
ATOM     17  C   UNL     1       5.513   4.296  25.290  0.00  0.00    +0.020 A 
ATOM     18 BR   UNL     1       4.392   4.890  23.887  0.00  0.00    -0.050 Br
ATOM     19  C   UNL     1       6.225   3.104  25.149  0.00  0.00    +0.038 A 
ENDBRANCH  10  13
BRANCH   1  21
ATOM     20  C   UNL     1       7.841  -4.664  26.402  0.00  0.00    +0.241 C 
ATOM     21  N   UNL     1       7.533  -3.808  25.359  0.00  0.00    -0.282 N 
ATOM     22  H   UNL     1       6.734  -4.034  24.780  0.00  0.00    +0.155 HD
ATOM     23  O   UNL     1       8.869  -4.646  27.071  0.00  0.00    -0.271 OA
BRANCH  20  25
ATOM     24  C   UNL     1       5.703  -5.670  25.904  0.00  0.00    -0.007 C 
ATOM     25  C   UNL     1       6.817  -5.712  26.655  0.00  0.00    +0.064 C 
BRANCH  24  26
ATOM     26  C   UNL     1       4.530  -6.591  25.996  0.00  0.00    +0.111 C 
BRANCH  26  28
ATOM     27  C   UNL     1       2.894  -7.648  24.524  0.00  0.00    +0.104 C 
ATOM     28  N   UNL     1       4.309  -7.328  24.746  0.00  0.00    -0.305 NA
ATOM     29  C   UNL     1       4.813  -6.543  23.617  0.00  0.00    +0.104 C 
ENDBRANCH  26  28
ENDBRANCH  24  26
ENDBRANCH  20  25
ENDBRANCH   1  21
TORSDOF 5
ENDMDL
MODEL 8
REMARK VINA RESULT:      -6.1      4.156      9.179
REMARK  Name = 
REMARK  7 active torsions:
REMARK  status: ('A' for Active; 'I' for Inactive)
REMARK    1  A    between atoms: C_1  and  N_2
REMARK    2  A    between atoms: N_2  and  C_3
REMARK    3  A    between atoms: N_2  and  C_4
REMARK    4  A    between atoms: C_4  and  C_5
REMARK    5  A    between atoms: C_6  and  C_7
REMARK    6  A    between atoms: N_9  and  C_10
REMARK    7  A    between atoms: N_18  and  C_19
REMARK                            x       y       z     vdW  Elec       q    Type
REMARK                         _______ _______ _______ _____ _____    ______ ____
ROOT
ATOM      1  C   UNL     1       7.456  -2.288  23.571  0.00  0.00    +0.034 A 
ATOM      2  C   UNL     1       7.464  -0.976  24.054  0.00  0.00    +0.036 A 
ATOM      3  C   UNL     1       8.236   0.039  23.407  0.00  0.00    +0.042 A 
ATOM      4  C   UNL     1       9.030  -0.299  22.302  0.00  0.00    +0.076 A 
ATOM      5  N   UNL     1       9.754   0.580  21.610  0.00  0.00    -0.235 NA
ATOM      6  C   UNL     1       9.677   1.852  22.001  0.00  0.00    +0.223 A 
ATOM      7  N   UNL     1       8.966   2.314  23.033  0.00  0.00    -0.220 NA
ATOM      8  C   UNL     1       9.067  -1.614  21.885  0.00  0.00    +0.030 A 
ATOM      9  C   UNL     1       8.248   1.413  23.734  0.00  0.00    +0.134 A 
ATOM     10  N   UNL     1       7.506   1.874  24.852  0.00  0.00    -0.299 N 
ATOM     11  H   UNL     1       7.902   1.471  25.695  0.00  0.00    +0.154 HD
ATOM     12  C   UNL     1       8.300  -2.599  22.507  0.00  0.00    +0.025 A 
ENDROOT
BRANCH  10  13
ATOM     13  C   UNL     1       7.036   3.195  25.047  0.00  0.00    +0.033 A 
ATOM     14  C   UNL     1       5.857   3.620  24.419  0.00  0.00    +0.023 A 
ATOM     15  C   UNL     1       5.421   4.945  24.526  0.00  0.00    +0.003 A 
ATOM     16  C   UNL     1       6.173   5.873  25.245  0.00  0.00    +0.015 A 
ATOM     17  C   UNL     1       7.355   5.466  25.856  0.00  0.00    +0.020 A 
ATOM     18 BR   UNL     1       8.398   6.725  26.808  0.00  0.00    -0.050 Br
ATOM     19  C   UNL     1       7.787   4.143  25.758  0.00  0.00    +0.038 A 
ENDBRANCH  10  13
BRANCH   1  21
ATOM     20  C   UNL     1       5.472  -3.762  23.496  0.00  0.00    +0.241 C 
ATOM     21  N   UNL     1       6.578  -3.241  24.144  0.00  0.00    -0.282 N 
ATOM     22  H   UNL     1       6.686  -3.438  25.131  0.00  0.00    +0.155 HD
ATOM     23  O   UNL     1       5.092  -3.468  22.368  0.00  0.00    -0.271 OA
BRANCH  20  25
ATOM     24  C   UNL     1       5.369  -5.531  25.136  0.00  0.00    -0.007 C 
ATOM     25  C   UNL     1       4.681  -4.722  24.312  0.00  0.00    +0.064 C 
BRANCH  24  26
ATOM     26  C   UNL     1       4.800  -6.589  26.024  0.00  0.00    +0.111 C 
BRANCH  26  28
ATOM     27  C   UNL     1       6.466  -5.602  27.511  0.00  0.00    +0.104 C 
ATOM     28  N   UNL     1       5.567  -6.736  27.267  0.00  0.00    -0.305 NA
ATOM     29  C   UNL     1       4.648  -6.879  28.398  0.00  0.00    +0.104 C 
ENDBRANCH  26  28
ENDBRANCH  24  26
ENDBRANCH  20  25
ENDBRANCH   1  21
TORSDOF 5
ENDMDL
MODEL 9
REMARK VINA RESULT:      -6.1      4.034      8.846
REMARK  Name = 
REMARK  7 active torsions:
REMARK  status: ('A' for Active; 'I' for Inactive)
REMARK    1  A    between atoms: C_1  and  N_2
REMARK    2  A    between atoms: N_2  and  C_3
REMARK    3  A    between atoms: N_2  and  C_4
REMARK    4  A    between atoms: C_4  and  C_5
REMARK    5  A    between atoms: C_6  and  C_7
REMARK    6  A    between atoms: N_9  and  C_10
REMARK    7  A    between atoms: N_18  and  C_19
REMARK                            x       y       z     vdW  Elec       q    Type
REMARK                         _______ _______ _______ _____ _____    ______ ____
ROOT
ATOM      1  C   UNL     1       8.013  -2.432  24.511  0.00  0.00    +0.034 A 
ATOM      2  C   UNL     1       7.670  -1.077  24.528  0.00  0.00    +0.036 A 
ATOM      3  C   UNL     1       8.389  -0.129  23.736  0.00  0.00    +0.042 A 
ATOM      4  C   UNL     1       9.481  -0.560  22.968  0.00  0.00    +0.076 A 
ATOM      5  N   UNL     1      10.189   0.238  22.170  0.00  0.00    -0.235 NA
ATOM      6  C   UNL     1       9.796   1.510  22.100  0.00  0.00    +0.223 A 
ATOM      7  N   UNL     1       8.780   2.055  22.774  0.00  0.00    -0.220 NA
ATOM      8  C   UNL     1       9.850  -1.888  23.021  0.00  0.00    +0.030 A 
ATOM      9  C   UNL     1       8.079   1.241  23.589  0.00  0.00    +0.134 A 
ATOM     10  N   UNL     1       7.012   1.802  24.338  0.00  0.00    -0.299 N 
ATOM     11  H   UNL     1       7.249   1.763  25.323  0.00  0.00    +0.154 HD
ATOM     12  C   UNL     1       9.137  -2.815  23.782  0.00  0.00    +0.025 A 
ENDROOT
BRANCH  10  13
ATOM     13  C   UNL     1       6.285   2.969  23.998  0.00  0.00    +0.033 A 
ATOM     14  C   UNL     1       5.308   2.919  22.993  0.00  0.00    +0.023 A 
ATOM     15  C   UNL     1       4.640   4.076  22.580  0.00  0.00    +0.003 A 
ATOM     16  C   UNL     1       4.956   5.307  23.150  0.00  0.00    +0.015 A 
ATOM     17  C   UNL     1       5.938   5.372  24.134  0.00  0.00    +0.020 A 
ATOM     18 BR   UNL     1       6.397   7.043  24.892  0.00  0.00    -0.050 Br
ATOM     19  C   UNL     1       6.600   4.217  24.554  0.00  0.00    +0.038 A 
ENDBRANCH  10  13
BRANCH   1  21
ATOM     20  C   UNL     1       7.592  -4.046  26.338  0.00  0.00    +0.241 C 
ATOM     21  N   UNL     1       7.201  -3.370  25.196  0.00  0.00    -0.282 N 
ATOM     22  H   UNL     1       6.348  -3.666  24.738  0.00  0.00    +0.155 HD
ATOM     23  O   UNL     1       8.679  -3.946  26.899  0.00  0.00    -0.271 OA
BRANCH  20  25
ATOM     24  C   UNL     1       5.966  -5.789  25.955  0.00  0.00    -0.007 C 
ATOM     25  C   UNL     1       6.582  -5.005  26.857  0.00  0.00    +0.064 C 
BRANCH  24  26
ATOM     26  C   UNL     1       4.901  -6.799  26.233  0.00  0.00    +0.111 C 
BRANCH  26  28
ATOM     27  C   UNL     1       2.894  -7.562  25.071  0.00  0.00    +0.104 C 
ATOM     28  N   UNL     1       4.347  -7.369  24.999  0.00  0.00    -0.305 NA
ATOM     29  C   UNL     1       4.666  -6.496  23.867  0.00  0.00    +0.104 C 
ENDBRANCH  26  28
ENDBRANCH  24  26
ENDBRANCH  20  25
ENDBRANCH   1  21
TORSDOF 5
ENDMDL
