MODEL 1
REMARK VINA RESULT:      -7.3      0.000      0.000
REMARK  Name = 
REMARK  11 active torsions:
REMARK  status: ('A' for Active; 'I' for Inactive)
REMARK    1  A    between atoms: C_1  and  N_2
REMARK    2  A    between atoms: N_2  and  C_3
REMARK    3  A    between atoms: N_2  and  C_4
REMARK    4  A    between atoms: C_13  and  S_14
REMARK    5  A    between atoms: S_14  and  N_17
REMARK    6  A    between atoms: N_17  and  C_18
REMARK    7  A    between atoms: C_18  and  C_19
REMARK    8  A    between atoms: C_19  and  C_20
REMARK    9  A    between atoms: C_20  and  C_21
REMARK   10  A    between atoms: C_21  and  N_22
REMARK   11  A    between atoms: C_23  and  C_25
REMARK                            x       y       z     vdW  Elec       q    Type
REMARK                         _______ _______ _______ _____ _____    ______ ____
ROOT
ATOM      1  N   UNL     1       5.673  -4.652  28.929  0.00  0.00    -0.190 NA
ATOM      2  H   UNL     1       6.259  -4.076  28.325  0.00  0.00    +0.148 HD
ENDROOT
BRANCH   1   3
ATOM      3  S   UNL     1       5.804  -6.298  28.522  0.00  0.00    +0.059 S 
ATOM      4  O   UNL     1       7.193  -6.669  28.620  0.00  0.00    -0.153 OA
ATOM      5  O   UNL     1       4.785  -7.001  29.265  0.00  0.00    -0.153 OA
BRANCH   3  11
ATOM      6  C   UNL     1       6.476  -5.072  23.389  0.00  0.00    +0.037 A 
ATOM      7  C   UNL     1       5.691  -5.672  24.437  0.00  0.00    +0.005 A 
ATOM      8  C   UNL     1       4.439  -6.281  24.177  0.00  0.00    +0.010 A 
ATOM      9  C   UNL     1       3.647  -6.851  25.173  0.00  0.00    +0.003 A 
ATOM     10  C   UNL     1       4.092  -6.849  26.483  0.00  0.00    +0.029 A 
ATOM     11  C   UNL     1       5.338  -6.291  26.790  0.00  0.00    +0.113 A 
ATOM     12  C   UNL     1       6.176  -5.718  25.782  0.00  0.00    +0.010 A 
ATOM     13  C   UNL     1       7.473  -5.211  26.027  0.00  0.00    +0.010 A 
ATOM     14  C   UNL     1       8.248  -4.652  25.020  0.00  0.00    +0.002 A 
ATOM     15  C   UNL     1       7.749  -4.574  23.727  0.00  0.00    +0.024 A 
BRANCH   6  17
ATOM     16  C   UNL     1       6.514  -6.016  21.109  0.00  0.00    +0.129 C 
ATOM     17  N   UNL     1       6.012  -5.009  22.050  0.00  0.00    -0.336 N 
ATOM     18  C   UNL     1       5.856  -3.664  21.485  0.00  0.00    +0.129 C 
ENDBRANCH   6  17
ENDBRANCH   3  11
ENDBRANCH   1   3
BRANCH   1  19
ATOM     19  C   UNL     1       4.310  -4.146  29.142  0.00  0.00    +0.106 C 
BRANCH  19  20
ATOM     20  C   UNL     1       3.907  -3.245  27.977  0.00  0.00    +0.018 C 
BRANCH  20  21
ATOM     21  C   UNL     1       5.149  -2.599  27.361  0.00  0.00    +0.020 C 
BRANCH  21  22
ATOM     22  C   UNL     1       4.886  -2.083  25.949  0.00  0.00    +0.104 C 
BRANCH  22  23
ATOM     23  N   UNL     1       6.127  -1.774  25.262  0.00  0.00    -0.315 N 
ATOM     24  H   UNL     1       6.877  -2.452  25.290  0.00  0.00    +0.149 HD
ATOM     25  C   UNL     1       6.342  -0.538  24.693  0.00  0.00    +0.219 C 
ATOM     26  O   UNL     1       5.490   0.348  24.737  0.00  0.00    -0.275 OA
BRANCH  25  27
ATOM     27  C   UNL     1       7.711  -0.333  24.020  0.00  0.00    +0.048 C 
ATOM     28  C   UNL     1       8.804  -1.010  24.889  0.00  0.00    +0.019 C 
ATOM     29  C   UNL     1      10.193  -0.839  24.261  0.00  0.00    -0.009 C 
ATOM     30  C   UNL     1      10.192  -1.482  22.864  0.00  0.00    +0.007 C 
ATOM     31  C   UNL     1       9.138  -0.803  21.974  0.00  0.00    -0.009 C 
ATOM     32  C   UNL     1       9.469   0.695  21.860  0.00  0.00    +0.007 C 
ATOM     33  C   UNL     1       9.454   1.347  23.255  0.00  0.00    -0.009 C 
ATOM     34  C   UNL     1      10.507   0.659  24.139  0.00  0.00    +0.007 C 
ATOM     35  C   UNL     1       7.744  -0.970  22.610  0.00  0.00    +0.019 C 
ATOM     36  C   UNL     1       8.060   1.170  23.885  0.00  0.00    +0.019 C 
ENDBRANCH  25  27
ENDBRANCH  22  23
ENDBRANCH  21  22
ENDBRANCH  20  21
ENDBRANCH  19  20
ENDBRANCH   1  19
TORSDOF 9
ENDMDL
MODEL 2
REMARK VINA RESULT:      -7.2      0.880      2.071
REMARK  Name = 
REMARK  11 active torsions:
REMARK  status: ('A' for Active; 'I' for Inactive)
REMARK    1  A    between atoms: C_1  and  N_2
REMARK    2  A    between atoms: N_2  and  C_3
REMARK    3  A    between atoms: N_2  and  C_4
REMARK    4  A    between atoms: C_13  and  S_14
REMARK    5  A    between atoms: S_14  and  N_17
REMARK    6  A    between atoms: N_17  and  C_18
REMARK    7  A    between atoms: C_18  and  C_19
REMARK    8  A    between atoms: C_19  and  C_20
REMARK    9  A    between atoms: C_20  and  C_21
REMARK   10  A    between atoms: C_21  and  N_22
REMARK   11  A    between atoms: C_23  and  C_25
REMARK                            x       y       z     vdW  Elec       q    Type
REMARK                         _______ _______ _______ _____ _____    ______ ____
ROOT
ATOM      1  N   UNL     1       4.185  -5.245  28.538  0.00  0.00    -0.190 NA
ATOM      2  H   UNL     1       3.475  -5.713  29.102  0.00  0.00    +0.148 HD
ENDROOT
BRANCH   1   3
ATOM      3  S   UNL     1       5.642  -6.122  28.534  0.00  0.00    +0.059 S 
ATOM      4  O   UNL     1       6.444  -5.653  29.636  0.00  0.00    -0.153 OA
ATOM      5  O   UNL     1       5.297  -7.517  28.396  0.00  0.00    -0.153 OA
BRANCH   3  11
ATOM      6  C   UNL     1       5.819  -5.405  23.265  0.00  0.00    +0.037 A 
ATOM      7  C   UNL     1       6.435  -5.292  24.562  0.00  0.00    +0.005 A 
ATOM      8  C   UNL     1       7.738  -4.763  24.726  0.00  0.00    +0.010 A 
ATOM      9  C   UNL     1       8.370  -4.660  25.965  0.00  0.00    +0.003 A 
ATOM     10  C   UNL     1       7.705  -5.073  27.105  0.00  0.00    +0.029 A 
ATOM     11  C   UNL     1       6.401  -5.573  27.004  0.00  0.00    +0.113 A 
ATOM     12  C   UNL     1       5.727  -5.668  25.746  0.00  0.00    +0.010 A 
ATOM     13  C   UNL     1       4.386  -6.093  25.598  0.00  0.00    +0.010 A 
ATOM     14  C   UNL     1       3.775  -6.183  24.356  0.00  0.00    +0.002 A 
ATOM     15  C   UNL     1       4.486  -5.856  23.210  0.00  0.00    +0.024 A 
BRANCH   6  17
ATOM     16  C   UNL     1       6.450  -3.638  21.660  0.00  0.00    +0.129 C 
ATOM     17  N   UNL     1       6.505  -5.044  22.077  0.00  0.00    -0.336 N 
ATOM     18  C   UNL     1       6.442  -6.014  20.978  0.00  0.00    +0.129 C 
ENDBRANCH   6  17
ENDBRANCH   3  11
ENDBRANCH   1   3
BRANCH   1  19
ATOM     19  C   UNL     1       4.302  -3.797  28.758  0.00  0.00    +0.106 C 
BRANCH  19  20
ATOM     20  C   UNL     1       3.816  -3.047  27.520  0.00  0.00    +0.018 C 
BRANCH  20  21
ATOM     21  C   UNL     1       4.958  -2.222  26.925  0.00  0.00    +0.020 C 
BRANCH  21  22
ATOM     22  C   UNL     1       4.871  -2.136  25.404  0.00  0.00    +0.104 C 
BRANCH  22  23
ATOM     23  N   UNL     1       6.105  -1.626  24.834  0.00  0.00    -0.315 N 
ATOM     24  H   UNL     1       6.889  -2.257  24.735  0.00  0.00    +0.149 HD
ATOM     25  C   UNL     1       6.263  -0.287  24.553  0.00  0.00    +0.219 C 
ATOM     26  O   UNL     1       5.366   0.527  24.765  0.00  0.00    -0.275 OA
BRANCH  25  27
ATOM     27  C   UNL     1       7.630   0.126  23.979  0.00  0.00    +0.048 C 
ATOM     28  C   UNL     1       8.515  -1.140  23.828  0.00  0.00    +0.019 C 
ATOM     29  C   UNL     1       9.893  -0.787  23.253  0.00  0.00    -0.009 C 
ATOM     30  C   UNL     1       9.707  -0.138  21.873  0.00  0.00    +0.007 C 
ATOM     31  C   UNL     1       8.860   1.139  22.003  0.00  0.00    -0.009 C 
ATOM     32  C   UNL     1       9.574   2.119  22.949  0.00  0.00    +0.007 C 
ATOM     33  C   UNL     1       9.748   1.480  24.338  0.00  0.00    -0.009 C 
ATOM     34  C   UNL     1      10.590   0.202  24.199  0.00  0.00    +0.007 C 
ATOM     35  C   UNL     1       7.479   0.783  22.586  0.00  0.00    +0.019 C 
ATOM     36  C   UNL     1       8.363   1.121  24.911  0.00  0.00    +0.019 C 
ENDBRANCH  25  27
ENDBRANCH  22  23
ENDBRANCH  21  22
ENDBRANCH  20  21
ENDBRANCH  19  20
ENDBRANCH   1  19
TORSDOF 9
ENDMDL
MODEL 3
REMARK VINA RESULT:      -6.7      2.879      5.445
REMARK  Name = 
REMARK  11 active torsions:
REMARK  status: ('A' for Active; 'I' for Inactive)
REMARK    1  A    between atoms: C_1  and  N_2
REMARK    2  A    between atoms: N_2  and  C_3
REMARK    3  A    between atoms: N_2  and  C_4
REMARK    4  A    between atoms: C_13  and  S_14
REMARK    5  A    between atoms: S_14  and  N_17
REMARK    6  A    between atoms: N_17  and  C_18
REMARK    7  A    between atoms: C_18  and  C_19
REMARK    8  A    between atoms: C_19  and  C_20
REMARK    9  A    between atoms: C_20  and  C_21
REMARK   10  A    between atoms: C_21  and  N_22
REMARK   11  A    between atoms: C_23  and  C_25
REMARK                            x       y       z     vdW  Elec       q    Type
REMARK                         _______ _______ _______ _____ _____    ______ ____
ROOT
ATOM      1  N   UNL     1       9.910  -2.295  22.552  0.00  0.00    -0.190 NA
ATOM      2  H   UNL     1       9.246  -2.525  21.813  0.00  0.00    +0.148 HD
ENDROOT
BRANCH   1   3
ATOM      3  S   UNL     1       9.378  -2.874  24.059  0.00  0.00    +0.059 S 
ATOM      4  O   UNL     1      10.116  -4.075  24.358  0.00  0.00    -0.153 OA
ATOM      5  O   UNL     1       9.371  -1.751  24.967  0.00  0.00    -0.153 OA
BRANCH   3  11
ATOM      6  C   UNL     1       4.789  -5.387  25.025  0.00  0.00    +0.037 A 
ATOM      7  C   UNL     1       5.592  -4.532  24.191  0.00  0.00    +0.005 A 
ATOM      8  C   UNL     1       5.101  -4.001  22.973  0.00  0.00    +0.010 A 
ATOM      9  C   UNL     1       5.861  -3.188  22.134  0.00  0.00    +0.003 A 
ATOM     10  C   UNL     1       7.154  -2.855  22.494  0.00  0.00    +0.029 A 
ATOM     11  C   UNL     1       7.678  -3.324  23.704  0.00  0.00    +0.113 A 
ATOM     12  C   UNL     1       6.910  -4.144  24.590  0.00  0.00    +0.010 A 
ATOM     13  C   UNL     1       7.364  -4.580  25.856  0.00  0.00    +0.010 A 
ATOM     14  C   UNL     1       6.589  -5.385  26.679  0.00  0.00    +0.002 A 
ATOM     15  C   UNL     1       5.329  -5.790  26.262  0.00  0.00    +0.024 A 
BRANCH   6  17
ATOM     16  C   UNL     1       2.354  -5.222  25.391  0.00  0.00    +0.129 C 
ATOM     17  N   UNL     1       3.483  -5.789  24.647  0.00  0.00    -0.336 N 
ATOM     18  C   UNL     1       3.327  -7.200  24.274  0.00  0.00    +0.129 C 
ENDBRANCH   6  17
ENDBRANCH   3  11
ENDBRANCH   1   3
BRANCH   1  19
ATOM     19  C   UNL     1      10.412  -0.913  22.531  0.00  0.00    +0.106 C 
BRANCH  19  20
ATOM     20  C   UNL     1       9.554  -0.069  21.591  0.00  0.00    +0.018 C 
BRANCH  20  21
ATOM     21  C   UNL     1       9.837   1.417  21.817  0.00  0.00    +0.020 C 
BRANCH  21  22
ATOM     22  C   UNL     1       8.596   2.174  22.280  0.00  0.00    +0.104 C 
BRANCH  22  23
ATOM     23  N   UNL     1       8.062   1.609  23.506  0.00  0.00    -0.315 N 
ATOM     24  H   UNL     1       8.687   1.099  24.116  0.00  0.00    +0.149 HD
ATOM     25  C   UNL     1       6.712   1.644  23.782  0.00  0.00    +0.219 C 
ATOM     26  O   UNL     1       5.909   2.161  23.008  0.00  0.00    -0.275 OA
BRANCH  25  27
ATOM     27  C   UNL     1       6.275   0.984  25.102  0.00  0.00    +0.048 C 
ATOM     28  C   UNL     1       5.759  -0.448  24.801  0.00  0.00    +0.019 C 
ATOM     29  C   UNL     1       5.313  -1.157  26.086  0.00  0.00    -0.009 C 
ATOM     30  C   UNL     1       6.509  -1.246  27.048  0.00  0.00    +0.007 C 
ATOM     31  C   UNL     1       7.016   0.165  27.388  0.00  0.00    -0.009 C 
ATOM     32  C   UNL     1       5.876   0.963  28.043  0.00  0.00    +0.007 C 
ATOM     33  C   UNL     1       4.683   1.070  27.078  0.00  0.00    -0.009 C 
ATOM     34  C   UNL     1       4.185  -0.344  26.740  0.00  0.00    +0.007 C 
ATOM     35  C   UNL     1       7.458   0.877  26.094  0.00  0.00    +0.019 C 
ATOM     36  C   UNL     1       5.135   1.777  25.785  0.00  0.00    +0.019 C 
ENDBRANCH  25  27
ENDBRANCH  22  23
ENDBRANCH  21  22
ENDBRANCH  20  21
ENDBRANCH  19  20
ENDBRANCH   1  19
TORSDOF 9
ENDMDL
MODEL 4
REMARK VINA RESULT:      -6.6      2.422      6.611
REMARK  Name = 
REMARK  11 active torsions:
REMARK  status: ('A' for Active; 'I' for Inactive)
REMARK    1  A    between atoms: C_1  and  N_2
REMARK    2  A    between atoms: N_2  and  C_3
REMARK    3  A    between atoms: N_2  and  C_4
REMARK    4  A    between atoms: C_13  and  S_14
REMARK    5  A    between atoms: S_14  and  N_17
REMARK    6  A    between atoms: N_17  and  C_18
REMARK    7  A    between atoms: C_18  and  C_19
REMARK    8  A    between atoms: C_19  and  C_20
REMARK    9  A    between atoms: C_20  and  C_21
REMARK   10  A    between atoms: C_21  and  N_22
REMARK   11  A    between atoms: C_23  and  C_25
REMARK                            x       y       z     vdW  Elec       q    Type
REMARK                         _______ _______ _______ _____ _____    ______ ____
ROOT
ATOM      1  N   UNL     1       7.618  -4.769  24.625  0.00  0.00    -0.190 NA
ATOM      2  H   UNL     1       6.958  -4.023  24.404  0.00  0.00    +0.148 HD
ENDROOT
BRANCH   1   3
ATOM      3  S   UNL     1       8.881  -4.199  25.610  0.00  0.00    +0.059 S 
ATOM      4  O   UNL     1       8.616  -4.623  26.961  0.00  0.00    -0.153 OA
ATOM      5  O   UNL     1      10.119  -4.533  24.947  0.00  0.00    -0.153 OA
BRANCH   3  11
ATOM      6  C   UNL     1       9.379   0.580  23.326  0.00  0.00    +0.037 A 
ATOM      7  C   UNL     1       8.935  -0.238  24.424  0.00  0.00    +0.005 A 
ATOM      8  C   UNL     1       8.303   0.319  25.562  0.00  0.00    +0.010 A 
ATOM      9  C   UNL     1       7.881  -0.445  26.650  0.00  0.00    +0.003 A 
ATOM     10  C   UNL     1       8.062  -1.816  26.633  0.00  0.00    +0.029 A 
ATOM     11  C   UNL     1       8.651  -2.422  25.517  0.00  0.00    +0.113 A 
ATOM     12  C   UNL     1       9.073  -1.662  24.382  0.00  0.00    +0.010 A 
ATOM     13  C   UNL     1       9.602  -2.232  23.201  0.00  0.00    +0.010 A 
ATOM     14  C   UNL     1      10.011  -1.454  22.127  0.00  0.00    +0.002 A 
ATOM     15  C   UNL     1       9.912  -0.071  22.197  0.00  0.00    +0.024 A 
BRANCH   6  17
ATOM     16  C   UNL     1       8.297   2.608  22.426  0.00  0.00    +0.129 C 
ATOM     17  N   UNL     1       9.258   1.993  23.348  0.00  0.00    -0.336 N 
ATOM     18  C   UNL     1      10.506   2.744  23.526  0.00  0.00    +0.129 C 
ENDBRANCH   6  17
ENDBRANCH   3  11
ENDBRANCH   1   3
BRANCH   1  19
ATOM     19  C   UNL     1       8.014  -5.609  23.486  0.00  0.00    +0.106 C 
BRANCH  19  20
ATOM     20  C   UNL     1       6.917  -5.588  22.425  0.00  0.00    +0.018 C 
BRANCH  20  21
ATOM     21  C   UNL     1       6.968  -4.275  21.643  0.00  0.00    +0.020 C 
BRANCH  21  22
ATOM     22  C   UNL     1       5.656  -3.501  21.735  0.00  0.00    +0.104 C 
BRANCH  22  23
ATOM     23  N   UNL     1       5.252  -3.311  23.116  0.00  0.00    -0.315 N 
ATOM     24  H   UNL     1       5.839  -2.750  23.719  0.00  0.00    +0.149 HD
ATOM     25  C   UNL     1       4.170  -3.980  23.644  0.00  0.00    +0.219 C 
ATOM     26  O   UNL     1       3.499  -4.757  22.967  0.00  0.00    -0.275 OA
BRANCH  25  27
ATOM     27  C   UNL     1       3.867  -3.711  25.129  0.00  0.00    +0.048 C 
ATOM     28  C   UNL     1       4.616  -2.424  25.569  0.00  0.00    +0.019 C 
ATOM     29  C   UNL     1       4.345  -2.104  27.044  0.00  0.00    -0.009 C 
ATOM     30  C   UNL     1       2.835  -1.898  27.242  0.00  0.00    +0.007 C 
ATOM     31  C   UNL     1       2.074  -3.174  26.844  0.00  0.00    -0.009 C 
ATOM     32  C   UNL     1       2.562  -4.341  27.719  0.00  0.00    +0.007 C 
ATOM     33  C   UNL     1       4.071  -4.562  27.512  0.00  0.00    -0.009 C 
ATOM     34  C   UNL     1       4.823  -3.281  27.907  0.00  0.00    +0.007 C 
ATOM     35  C   UNL     1       2.353  -3.497  25.363  0.00  0.00    +0.019 C 
ATOM     36  C   UNL     1       4.341  -4.878  26.029  0.00  0.00    +0.019 C 
ENDBRANCH  25  27
ENDBRANCH  22  23
ENDBRANCH  21  22
ENDBRANCH  20  21
ENDBRANCH  19  20
ENDBRANCH   1  19
TORSDOF 9
ENDMDL
MODEL 5
REMARK VINA RESULT:      -6.6      2.252      5.686
REMARK  Name = 
REMARK  11 active torsions:
REMARK  status: ('A' for Active; 'I' for Inactive)
REMARK    1  A    between atoms: C_1  and  N_2
REMARK    2  A    between atoms: N_2  and  C_3
REMARK    3  A    between atoms: N_2  and  C_4
REMARK    4  A    between atoms: C_13  and  S_14
REMARK    5  A    between atoms: S_14  and  N_17
REMARK    6  A    between atoms: N_17  and  C_18
REMARK    7  A    between atoms: C_18  and  C_19
REMARK    8  A    between atoms: C_19  and  C_20
REMARK    9  A    between atoms: C_20  and  C_21
REMARK   10  A    between atoms: C_21  and  N_22
REMARK   11  A    between atoms: C_23  and  C_25
REMARK                            x       y       z     vdW  Elec       q    Type
REMARK                         _______ _______ _______ _____ _____    ______ ____
ROOT
ATOM      1  N   UNL     1       4.989  -2.539  27.942  0.00  0.00    -0.190 NA
ATOM      2  H   UNL     1       5.800  -2.476  28.558  0.00  0.00    +0.148 HD
ENDROOT
BRANCH   1   3
ATOM      3  S   UNL     1       4.816  -1.128  27.009  0.00  0.00    +0.059 S 
ATOM      4  O   UNL     1       3.783  -1.366  26.033  0.00  0.00    -0.153 OA
ATOM      5  O   UNL     1       4.739  -0.018  27.929  0.00  0.00    -0.153 OA
BRANCH   3  11
ATOM      6  C   UNL     1       8.173   0.689  23.303  0.00  0.00    +0.037 A 
ATOM      7  C   UNL     1       7.890  -0.189  24.408  0.00  0.00    +0.005 A 
ATOM      8  C   UNL     1       8.849  -1.110  24.894  0.00  0.00    +0.010 A 
ATOM      9  C   UNL     1       8.599  -1.988  25.949  0.00  0.00    +0.003 A 
ATOM     10  C   UNL     1       7.367  -1.964  26.578  0.00  0.00    +0.029 A 
ATOM     11  C   UNL     1       6.394  -1.049  26.160  0.00  0.00    +0.113 A 
ATOM     12  C   UNL     1       6.636  -0.126  25.094  0.00  0.00    +0.010 A 
ATOM     13  C   UNL     1       5.716   0.867  24.684  0.00  0.00    +0.010 A 
ATOM     14  C   UNL     1       5.988   1.734  23.635  0.00  0.00    +0.002 A 
ATOM     15  C   UNL     1       7.191   1.635  22.950  0.00  0.00    +0.024 A 
BRANCH   6  17
ATOM     16  C   UNL     1      10.146   1.897  22.443  0.00  0.00    +0.129 C 
ATOM     17  N   UNL     1       9.406   0.641  22.605  0.00  0.00    -0.336 N 
ATOM     18  C   UNL     1       9.454  -0.255  21.444  0.00  0.00    +0.129 C 
ENDBRANCH   6  17
ENDBRANCH   3  11
ENDBRANCH   1   3
BRANCH   1  19
ATOM     19  C   UNL     1       3.764  -3.051  28.573  0.00  0.00    +0.106 C 
BRANCH  19  20
ATOM     20  C   UNL     1       4.115  -4.190  29.528  0.00  0.00    +0.018 C 
BRANCH  20  21
ATOM     21  C   UNL     1       5.081  -5.163  28.850  0.00  0.00    +0.020 C 
BRANCH  21  22
ATOM     22  C   UNL     1       4.433  -5.890  27.675  0.00  0.00    +0.104 C 
BRANCH  22  23
ATOM     23  N   UNL     1       5.163  -5.655  26.443  0.00  0.00    -0.315 N 
ATOM     24  H   UNL     1       6.145  -5.897  26.409  0.00  0.00    +0.149 HD
ATOM     25  C   UNL     1       4.583  -4.996  25.381  0.00  0.00    +0.219 C 
ATOM     26  O   UNL     1       3.423  -4.590  25.431  0.00  0.00    -0.275 OA
BRANCH  25  27
ATOM     27  C   UNL     1       5.476  -4.787  24.146  0.00  0.00    +0.048 C 
ATOM     28  C   UNL     1       5.051  -5.791  23.042  0.00  0.00    +0.019 C 
ATOM     29  C   UNL     1       5.909  -5.623  21.781  0.00  0.00    -0.009 C 
ATOM     30  C   UNL     1       5.740  -4.191  21.249  0.00  0.00    +0.007 C 
ATOM     31  C   UNL     1       6.188  -3.178  22.315  0.00  0.00    -0.009 C 
ATOM     32  C   UNL     1       7.664  -3.436  22.663  0.00  0.00    +0.007 C 
ATOM     33  C   UNL     1       7.836  -4.863  23.211  0.00  0.00    -0.009 C 
ATOM     34  C   UNL     1       7.381  -5.869  22.142  0.00  0.00    +0.007 C 
ATOM     35  C   UNL     1       5.329  -3.353  23.583  0.00  0.00    +0.019 C 
ATOM     36  C   UNL     1       6.969  -5.031  24.474  0.00  0.00    +0.019 C 
ENDBRANCH  25  27
ENDBRANCH  22  23
ENDBRANCH  21  22
ENDBRANCH  20  21
ENDBRANCH  19  20
ENDBRANCH   1  19
TORSDOF 9
ENDMDL
MODEL 6
REMARK VINA RESULT:      -6.6      2.285      3.762
REMARK  Name = 
REMARK  11 active torsions:
REMARK  status: ('A' for Active; 'I' for Inactive)
REMARK    1  A    between atoms: C_1  and  N_2
REMARK    2  A    between atoms: N_2  and  C_3
REMARK    3  A    between atoms: N_2  and  C_4
REMARK    4  A    between atoms: C_13  and  S_14
REMARK    5  A    between atoms: S_14  and  N_17
REMARK    6  A    between atoms: N_17  and  C_18
REMARK    7  A    between atoms: C_18  and  C_19
REMARK    8  A    between atoms: C_19  and  C_20
REMARK    9  A    between atoms: C_20  and  C_21
REMARK   10  A    between atoms: C_21  and  N_22
REMARK   11  A    between atoms: C_23  and  C_25
REMARK                            x       y       z     vdW  Elec       q    Type
REMARK                         _______ _______ _______ _____ _____    ______ ____
ROOT
ATOM      1  N   UNL     1       8.101  -3.450  25.798  0.00  0.00    -0.190 NA
ATOM      2  H   UNL     1       8.170  -2.868  24.963  0.00  0.00    +0.148 HD
ENDROOT
BRANCH   1   3
ATOM      3  S   UNL     1       8.244  -5.099  25.411  0.00  0.00    +0.059 S 
ATOM      4  O   UNL     1       9.462  -5.274  24.662  0.00  0.00    -0.153 OA
ATOM      5  O   UNL     1       7.994  -5.843  26.623  0.00  0.00    -0.153 OA
BRANCH   3  11
ATOM      6  C   UNL     1       3.317  -6.687  24.185  0.00  0.00    +0.037 A 
ATOM      7  C   UNL     1       4.579  -6.118  23.791  0.00  0.00    +0.005 A 
ATOM      8  C   UNL     1       4.840  -5.735  22.453  0.00  0.00    +0.010 A 
ATOM      9  C   UNL     1       6.059  -5.201  22.036  0.00  0.00    +0.003 A 
ATOM     10  C   UNL     1       7.071  -5.011  22.959  0.00  0.00    +0.029 A 
ATOM     11  C   UNL     1       6.855  -5.341  24.302  0.00  0.00    +0.113 A 
ATOM     12  C   UNL     1       5.606  -5.871  24.755  0.00  0.00    +0.010 A 
ATOM     13  C   UNL     1       5.311  -6.149  26.110  0.00  0.00    +0.010 A 
ATOM     14  C   UNL     1       4.089  -6.676  26.505  0.00  0.00    +0.002 A 
ATOM     15  C   UNL     1       3.116  -6.951  25.554  0.00  0.00    +0.024 A 
BRANCH   6  17
ATOM     16  C   UNL     1       1.374  -5.845  22.916  0.00  0.00    +0.129 C 
ATOM     17  N   UNL     1       2.286  -6.946  23.246  0.00  0.00    -0.336 N 
ATOM     18  C   UNL     1       1.650  -8.265  23.335  0.00  0.00    +0.129 C 
ENDBRANCH   6  17
ENDBRANCH   3  11
ENDBRANCH   1   3
BRANCH   1  19
ATOM     19  C   UNL     1       7.011  -3.094  26.718  0.00  0.00    +0.106 C 
BRANCH  19  20
ATOM     20  C   UNL     1       5.955  -2.280  25.974  0.00  0.00    +0.018 C 
BRANCH  20  21
ATOM     21  C   UNL     1       5.402  -1.183  26.884  0.00  0.00    +0.020 C 
BRANCH  21  22
ATOM     22  C   UNL     1       6.497  -0.248  27.388  0.00  0.00    +0.104 C 
BRANCH  22  23
ATOM     23  N   UNL     1       7.028   0.570  26.314  0.00  0.00    -0.315 N 
ATOM     24  H   UNL     1       6.404   1.211  25.841  0.00  0.00    +0.149 HD
ATOM     25  C   UNL     1       8.313   0.395  25.847  0.00  0.00    +0.219 C 
ATOM     26  O   UNL     1       9.062  -0.453  26.328  0.00  0.00    -0.275 OA
BRANCH  25  27
ATOM     27  C   UNL     1       8.740   1.308  24.685  0.00  0.00    +0.048 C 
ATOM     28  C   UNL     1       8.026   0.839  23.389  0.00  0.00    +0.019 C 
ATOM     29  C   UNL     1       8.414   1.721  22.194  0.00  0.00    -0.009 C 
ATOM     30  C   UNL     1       8.008   3.173  22.493  0.00  0.00    +0.007 C 
ATOM     31  C   UNL     1       8.731   3.671  23.756  0.00  0.00    -0.009 C 
ATOM     32  C   UNL     1      10.250   3.588  23.530  0.00  0.00    +0.007 C 
ATOM     33  C   UNL     1      10.663   2.133  23.247  0.00  0.00    -0.009 C 
ATOM     34  C   UNL     1       9.933   1.641  21.986  0.00  0.00    +0.007 C 
ATOM     35  C   UNL     1       8.345   2.780  24.953  0.00  0.00    +0.019 C 
ATOM     36  C   UNL     1      10.268   1.248  24.445  0.00  0.00    +0.019 C 
ENDBRANCH  25  27
ENDBRANCH  22  23
ENDBRANCH  21  22
ENDBRANCH  20  21
ENDBRANCH  19  20
ENDBRANCH   1  19
TORSDOF 9
ENDMDL
MODEL 7
REMARK VINA RESULT:      -6.5      2.103      3.137
REMARK  Name = 
REMARK  11 active torsions:
REMARK  status: ('A' for Active; 'I' for Inactive)
REMARK    1  A    between atoms: C_1  and  N_2
REMARK    2  A    between atoms: N_2  and  C_3
REMARK    3  A    between atoms: N_2  and  C_4
REMARK    4  A    between atoms: C_13  and  S_14
REMARK    5  A    between atoms: S_14  and  N_17
REMARK    6  A    between atoms: N_17  and  C_18
REMARK    7  A    between atoms: C_18  and  C_19
REMARK    8  A    between atoms: C_19  and  C_20
REMARK    9  A    between atoms: C_20  and  C_21
REMARK   10  A    between atoms: C_21  and  N_22
REMARK   11  A    between atoms: C_23  and  C_25
REMARK                            x       y       z     vdW  Elec       q    Type
REMARK                         _______ _______ _______ _____ _____    ______ ____
ROOT
ATOM      1  N   UNL     1       4.352  -2.400  27.361  0.00  0.00    -0.190 NA
ATOM      2  H   UNL     1       4.060  -1.661  28.000  0.00  0.00    +0.148 HD
ENDROOT
BRANCH   1   3
ATOM      3  S   UNL     1       3.007  -3.189  26.681  0.00  0.00    +0.059 S 
ATOM      4  O   UNL     1       2.284  -3.831  27.749  0.00  0.00    -0.153 OA
ATOM      5  O   UNL     1       2.363  -2.245  25.799  0.00  0.00    -0.153 OA
BRANCH   3  11
ATOM      6  C   UNL     1       5.908  -4.939  22.579  0.00  0.00    +0.037 A 
ATOM      7  C   UNL     1       5.115  -5.205  23.751  0.00  0.00    +0.005 A 
ATOM      8  C   UNL     1       4.851  -6.526  24.189  0.00  0.00    +0.010 A 
ATOM      9  C   UNL     1       4.069  -6.817  25.307  0.00  0.00    +0.003 A 
ATOM     10  C   UNL     1       3.530  -5.782  26.050  0.00  0.00    +0.029 A 
ATOM     11  C   UNL     1       3.788  -4.457  25.681  0.00  0.00    +0.113 A 
ATOM     12  C   UNL     1       4.603  -4.135  24.550  0.00  0.00    +0.010 A 
ATOM     13  C   UNL     1       4.956  -2.817  24.180  0.00  0.00    +0.010 A 
ATOM     14  C   UNL     1       5.740  -2.549  23.066  0.00  0.00    +0.002 A 
ATOM     15  C   UNL     1       6.196  -3.594  22.274  0.00  0.00    +0.024 A 
BRANCH   6  17
ATOM     16  C   UNL     1       7.794  -6.434  22.028  0.00  0.00    +0.129 C 
ATOM     17  N   UNL     1       6.421  -5.984  21.769  0.00  0.00    -0.336 N 
ATOM     18  C   UNL     1       6.044  -5.944  20.352  0.00  0.00    +0.129 C 
ENDBRANCH   6  17
ENDBRANCH   3  11
ENDBRANCH   1   3
BRANCH   1  19
ATOM     19  C   UNL     1       5.426  -3.269  27.861  0.00  0.00    +0.106 C 
BRANCH  19  20
ATOM     20  C   UNL     1       6.725  -2.959  27.122  0.00  0.00    +0.018 C 
BRANCH  20  21
ATOM     21  C   UNL     1       7.436  -4.258  26.742  0.00  0.00    +0.020 C 
BRANCH  21  22
ATOM     22  C   UNL     1       8.574  -4.022  25.754  0.00  0.00    +0.104 C 
BRANCH  22  23
ATOM     23  N   UNL     1       8.535  -2.674  25.217  0.00  0.00    -0.315 N 
ATOM     24  H   UNL     1       7.781  -2.063  25.500  0.00  0.00    +0.149 HD
ATOM     25  C   UNL     1       9.420  -2.265  24.244  0.00  0.00    +0.219 C 
ATOM     26  O   UNL     1      10.282  -3.020  23.798  0.00  0.00    -0.275 OA
BRANCH  25  27
ATOM     27  C   UNL     1       9.251  -0.820  23.741  0.00  0.00    +0.048 C 
ATOM     28  C   UNL     1       7.974  -0.212  24.379  0.00  0.00    +0.019 C 
ATOM     29  C   UNL     1       7.759   1.234  23.915  0.00  0.00    -0.009 C 
ATOM     30  C   UNL     1       8.975   2.077  24.327  0.00  0.00    +0.007 C 
ATOM     31  C   UNL     1      10.250   1.513  23.679  0.00  0.00    -0.009 C 
ATOM     32  C   UNL     1      10.089   1.541  22.149  0.00  0.00    +0.007 C 
ATOM     33  C   UNL     1       8.882   0.684  21.730  0.00  0.00    -0.009 C 
ATOM     34  C   UNL     1       7.613   1.252  22.386  0.00  0.00    +0.007 C 
ATOM     35  C   UNL     1      10.461   0.058  24.142  0.00  0.00    +0.019 C 
ATOM     36  C   UNL     1       9.098  -0.766  22.202  0.00  0.00    +0.019 C 
ENDBRANCH  25  27
ENDBRANCH  22  23
ENDBRANCH  21  22
ENDBRANCH  20  21
ENDBRANCH  19  20
ENDBRANCH   1  19
TORSDOF 9
ENDMDL
MODEL 8
REMARK VINA RESULT:      -6.4      3.544      5.681
REMARK  Name = 
REMARK  11 active torsions:
REMARK  status: ('A' for Active; 'I' for Inactive)
REMARK    1  A    between atoms: C_1  and  N_2
REMARK    2  A    between atoms: N_2  and  C_3
REMARK    3  A    between atoms: N_2  and  C_4
REMARK    4  A    between atoms: C_13  and  S_14
REMARK    5  A    between atoms: S_14  and  N_17
REMARK    6  A    between atoms: N_17  and  C_18
REMARK    7  A    between atoms: C_18  and  C_19
REMARK    8  A    between atoms: C_19  and  C_20
REMARK    9  A    between atoms: C_20  and  C_21
REMARK   10  A    between atoms: C_21  and  N_22
REMARK   11  A    between atoms: C_23  and  C_25
REMARK                            x       y       z     vdW  Elec       q    Type
REMARK                         _______ _______ _______ _____ _____    ______ ____
ROOT
ATOM      1  N   UNL     1       9.798  -3.072  23.738  0.00  0.00    -0.190 NA
ATOM      2  H   UNL     1       9.574  -3.354  22.784  0.00  0.00    +0.148 HD
ENDROOT
BRANCH   1   3
ATOM      3  S   UNL     1       9.041  -4.088  24.872  0.00  0.00    +0.059 S 
ATOM      4  O   UNL     1       9.843  -5.277  25.008  0.00  0.00    -0.153 OA
ATOM      5  O   UNL     1       8.708  -3.272  26.016  0.00  0.00    -0.153 OA
BRANCH   3  11
ATOM      6  C   UNL     1       4.228  -6.328  24.518  0.00  0.00    +0.037 A 
ATOM      7  C   UNL     1       5.313  -5.598  23.915  0.00  0.00    +0.005 A 
ATOM      8  C   UNL     1       5.277  -5.194  22.558  0.00  0.00    +0.010 A 
ATOM      9  C   UNL     1       6.320  -4.504  21.940  0.00  0.00    +0.003 A 
ATOM     10  C   UNL     1       7.447  -4.175  22.670  0.00  0.00    +0.029 A 
ATOM     11  C   UNL     1       7.521  -4.521  24.025  0.00  0.00    +0.113 A 
ATOM     12  C   UNL     1       6.454  -5.210  24.685  0.00  0.00    +0.010 A 
ATOM     13  C   UNL     1       6.446  -5.515  26.065  0.00  0.00    +0.010 A 
ATOM     14  C   UNL     1       5.395  -6.197  26.662  0.00  0.00    +0.002 A 
ATOM     15  C   UNL     1       4.312  -6.606  25.896  0.00  0.00    +0.024 A 
BRANCH   6  17
ATOM     16  C   UNL     1       2.121  -5.692  23.400  0.00  0.00    +0.129 C 
ATOM     17  N   UNL     1       3.090  -6.729  23.773  0.00  0.00    -0.336 N 
ATOM     18  C   UNL     1       2.497  -8.018  24.147  0.00  0.00    +0.129 C 
ENDBRANCH   6  17
ENDBRANCH   3  11
ENDBRANCH   1   3
BRANCH   1  19
ATOM     19  C   UNL     1       9.707  -1.629  24.000  0.00  0.00    +0.106 C 
BRANCH  19  20
ATOM     20  C   UNL     1      10.340  -0.855  22.846  0.00  0.00    +0.018 C 
BRANCH  20  21
ATOM     21  C   UNL     1       9.335   0.142  22.270  0.00  0.00    +0.020 C 
BRANCH  21  22
ATOM     22  C   UNL     1       9.999   1.453  21.858  0.00  0.00    +0.104 C 
BRANCH  22  23
ATOM     23  N   UNL     1       9.144   2.590  22.144  0.00  0.00    -0.315 N 
ATOM     24  H   UNL     1       8.584   2.975  21.396  0.00  0.00    +0.149 HD
ATOM     25  C   UNL     1       9.182   3.224  23.367  0.00  0.00    +0.219 C 
ATOM     26  O   UNL     1       9.934   2.848  24.265  0.00  0.00    -0.275 OA
BRANCH  25  27
ATOM     27  C   UNL     1       8.245   4.434  23.530  0.00  0.00    +0.048 C 
ATOM     28  C   UNL     1       9.093   5.733  23.504  0.00  0.00    +0.019 C 
ATOM     29  C   UNL     1       8.206   6.976  23.658  0.00  0.00    -0.009 C 
ATOM     30  C   UNL     1       7.194   7.014  22.502  0.00  0.00    +0.007 C 
ATOM     31  C   UNL     1       6.319   5.750  22.529  0.00  0.00    -0.009 C 
ATOM     32  C   UNL     1       5.575   5.684  23.874  0.00  0.00    +0.007 C 
ATOM     33  C   UNL     1       6.584   5.629  25.034  0.00  0.00    -0.009 C 
ATOM     34  C   UNL     1       7.458   6.893  24.997  0.00  0.00    +0.007 C 
ATOM     35  C   UNL     1       7.212   4.503  22.380  0.00  0.00    +0.019 C 
ATOM     36  C   UNL     1       7.477   4.384  24.874  0.00  0.00    +0.019 C 
ENDBRANCH  25  27
ENDBRANCH  22  23
ENDBRANCH  21  22
ENDBRANCH  20  21
ENDBRANCH  19  20
ENDBRANCH   1  19
TORSDOF 9
ENDMDL
MODEL 9
REMARK VINA RESULT:      -6.3      1.936      3.408
REMARK  Name = 
REMARK  11 active torsions:
REMARK  status: ('A' for Active; 'I' for Inactive)
REMARK    1  A    between atoms: C_1  and  N_2
REMARK    2  A    between atoms: N_2  and  C_3
REMARK    3  A    between atoms: N_2  and  C_4
REMARK    4  A    between atoms: C_13  and  S_14
REMARK    5  A    between atoms: S_14  and  N_17
REMARK    6  A    between atoms: N_17  and  C_18
REMARK    7  A    between atoms: C_18  and  C_19
REMARK    8  A    between atoms: C_19  and  C_20
REMARK    9  A    between atoms: C_20  and  C_21
REMARK   10  A    between atoms: C_21  and  N_22
REMARK   11  A    between atoms: C_23  and  C_25
REMARK                            x       y       z     vdW  Elec       q    Type
REMARK                         _______ _______ _______ _____ _____    ______ ____
ROOT
ATOM      1  N   UNL     1       7.987  -3.453  25.828  0.00  0.00    -0.190 NA
ATOM      2  H   UNL     1       7.931  -2.890  24.979  0.00  0.00    +0.148 HD
ENDROOT
BRANCH   1   3
ATOM      3  S   UNL     1       8.169  -5.103  25.461  0.00  0.00    +0.059 S 
ATOM      4  O   UNL     1       9.402  -5.262  24.734  0.00  0.00    -0.153 OA
ATOM      5  O   UNL     1       7.913  -5.838  26.676  0.00  0.00    -0.153 OA
BRANCH   3  11
ATOM      6  C   UNL     1       3.264  -6.726  24.188  0.00  0.00    +0.037 A 
ATOM      7  C   UNL     1       4.537  -6.175  23.801  0.00  0.00    +0.005 A 
ATOM      8  C   UNL     1       4.828  -5.843  22.455  0.00  0.00    +0.010 A 
ATOM      9  C   UNL     1       6.057  -5.327  22.046  0.00  0.00    +0.003 A 
ATOM     10  C   UNL     1       7.050  -5.105  22.982  0.00  0.00    +0.029 A 
ATOM     11  C   UNL     1       6.803  -5.384  24.332  0.00  0.00    +0.113 A 
ATOM     12  C   UNL     1       5.543  -5.894  24.778  0.00  0.00    +0.010 A 
ATOM     13  C   UNL     1       5.218  -6.121  26.135  0.00  0.00    +0.010 A 
ATOM     14  C   UNL     1       3.986  -6.629  26.522  0.00  0.00    +0.002 A 
ATOM     15  C   UNL     1       3.033  -6.938  25.561  0.00  0.00    +0.024 A 
BRANCH   6  17
ATOM     16  C   UNL     1       1.358  -5.926  22.839  0.00  0.00    +0.129 C 
ATOM     17  N   UNL     1       2.254  -7.018  23.237  0.00  0.00    -0.336 N 
ATOM     18  C   UNL     1       1.606  -8.328  23.367  0.00  0.00    +0.129 C 
ENDBRANCH   6  17
ENDBRANCH   3  11
ENDBRANCH   1   3
BRANCH   1  19
ATOM     19  C   UNL     1       6.992  -3.125  26.859  0.00  0.00    +0.106 C 
BRANCH  19  20
ATOM     20  C   UNL     1       5.808  -2.403  26.222  0.00  0.00    +0.018 C 
BRANCH  20  21
ATOM     21  C   UNL     1       5.187  -1.429  27.223  0.00  0.00    +0.020 C 
BRANCH  21  22
ATOM     22  C   UNL     1       5.540   0.022  26.908  0.00  0.00    +0.104 C 
BRANCH  22  23
ATOM     23  N   UNL     1       6.752   0.108  26.115  0.00  0.00    -0.315 N 
ATOM     24  H   UNL     1       7.632  -0.136  26.550  0.00  0.00    +0.149 HD
ATOM     25  C   UNL     1       6.739   0.635  24.842  0.00  0.00    +0.219 C 
ATOM     26  O   UNL     1       5.701   1.044  24.324  0.00  0.00    -0.275 OA
BRANCH  25  27
ATOM     27  C   UNL     1       8.098   0.696  24.122  0.00  0.00    +0.048 C 
ATOM     28  C   UNL     1       8.608   2.162  24.135  0.00  0.00    +0.019 C 
ATOM     29  C   UNL     1       9.967   2.280  23.432  0.00  0.00    -0.009 C 
ATOM     30  C   UNL     1      10.985   1.388  24.159  0.00  0.00    +0.007 C 
ATOM     31  C   UNL     1      10.516  -0.076  24.130  0.00  0.00    -0.009 C 
ATOM     32  C   UNL     1      10.377  -0.528  22.666  0.00  0.00    +0.007 C 
ATOM     33  C   UNL     1       9.346   0.352  21.938  0.00  0.00    -0.009 C 
ATOM     34  C   UNL     1       9.819   1.814  21.976  0.00  0.00    +0.007 C 
ATOM     35  C   UNL     1       9.149  -0.192  24.831  0.00  0.00    +0.019 C 
ATOM     36  C   UNL     1       7.984   0.235  22.649  0.00  0.00    +0.019 C 
ENDBRANCH  25  27
ENDBRANCH  22  23
ENDBRANCH  21  22
ENDBRANCH  20  21
ENDBRANCH  19  20
ENDBRANCH   1  19
TORSDOF 9
ENDMDL
