MODEL 1
REMARK VINA RESULT:      -6.5      0.000      0.000
REMARK  Name = 
REMARK  6 active torsions:
REMARK  status: ('A' for Active; 'I' for Inactive)
REMARK    1  A    between atoms: C_7  and  C_13
REMARK    2  A    between atoms: C_13  and  O_15
REMARK    3  A    between atoms: C_13  and  C_16
REMARK    4  A    between atoms: C_16  and  O_18
REMARK    5  A    between atoms: C_16  and  C_19
REMARK    6  A    between atoms: C_19  and  O_20
REMARK                            x       y       z     vdW  Elec       q    Type
REMARK                         _______ _______ _______ _____ _____    ______ ____
ROOT
ATOM      1  N   UNL     1       6.329  -6.128  26.961  0.00  0.00    -0.329 N 
ATOM      2  H   UNL     1       6.591  -7.083  27.156  0.00  0.00    +0.145 HD
ATOM      3  H   UNL     1       5.340  -6.008  26.761  0.00  0.00    +0.145 HD
ATOM      4  C   UNL     1       7.124  -5.386  26.148  0.00  0.00    +0.195 A 
ATOM      5  N   UNL     1       8.454  -5.686  26.154  0.00  0.00    -0.293 N 
ATOM      6  H   UNL     1       8.813  -6.407  26.762  0.00  0.00    +0.172 HD
ATOM      7  C   UNL     1       9.395  -5.012  25.406  0.00  0.00    +0.280 A 
ATOM      8  O   UNL     1      10.582  -5.317  25.449  0.00  0.00    -0.265 OA
ATOM      9  C   UNL     1       8.876  -3.911  24.571  0.00  0.00    +0.172 A 
ATOM     10  C   UNL     1       7.504  -3.697  24.626  0.00  0.00    +0.187 A 
ATOM     11  N   UNL     1       6.937  -2.695  23.924  0.00  0.00    -0.232 NA
ATOM     12  C   UNL     1       7.784  -1.918  23.199  0.00  0.00    +0.139 A 
ATOM     13  C   UNL     1       9.163  -2.128  23.143  0.00  0.00    +0.091 A 
ATOM     14  N   UNL     1       9.742  -3.149  23.833  0.00  0.00    -0.239 NA
ATOM     15  N   UNL     1       6.624  -4.451  25.417  0.00  0.00    -0.195 NA
ENDROOT
BRANCH  13  16
ATOM     16  C   UNL     1      10.069  -1.157  22.397  0.00  0.00    +0.195 C 
BRANCH  16  17
ATOM     17  O   UNL     1       9.522  -0.840  21.106  0.00  0.00    -0.383 OA
ATOM     18  H   UNL     1      10.007  -0.051  20.788  0.00  0.00    +0.210 HD
ENDBRANCH  16  17
BRANCH  16  19
ATOM     19  C   UNL     1      10.435   0.158  23.123  0.00  0.00    +0.174 C 
BRANCH  19  20
ATOM     20  O   UNL     1      10.450  -0.021  24.548  0.00  0.00    -0.387 OA
ATOM     21  H   UNL     1      11.381  -0.210  24.791  0.00  0.00    +0.210 HD
ENDBRANCH  19  20
BRANCH  19  22
ATOM     22  C   UNL     1       9.565   1.367  22.761  0.00  0.00    +0.190 C 
BRANCH  22  23
ATOM     23  O   UNL     1      10.058   1.985  21.572  0.00  0.00    -0.392 OA
ATOM     24  H   UNL     1      10.888   2.438  21.810  0.00  0.00    +0.210 HD
ENDBRANCH  22  23
ENDBRANCH  19  22
ENDBRANCH  16  19
ENDBRANCH  13  16
TORSDOF 6
ENDMDL
MODEL 2
REMARK VINA RESULT:      -6.2      1.301      1.710
REMARK  Name = 
REMARK  6 active torsions:
REMARK  status: ('A' for Active; 'I' for Inactive)
REMARK    1  A    between atoms: C_7  and  C_13
REMARK    2  A    between atoms: C_13  and  O_15
REMARK    3  A    between atoms: C_13  and  C_16
REMARK    4  A    between atoms: C_16  and  O_18
REMARK    5  A    between atoms: C_16  and  C_19
REMARK    6  A    between atoms: C_19  and  O_20
REMARK                            x       y       z     vdW  Elec       q    Type
REMARK                         _______ _______ _______ _____ _____    ______ ____
ROOT
ATOM      1  N   UNL     1       7.187  -6.225  27.930  0.00  0.00    -0.329 N 
ATOM      2  H   UNL     1       7.338  -7.196  27.702  0.00  0.00    +0.145 HD
ATOM      3  H   UNL     1       6.257  -6.029  28.289  0.00  0.00    +0.145 HD
ATOM      4  C   UNL     1       7.629  -5.276  27.065  0.00  0.00    +0.195 A 
ATOM      5  N   UNL     1       8.733  -5.587  26.328  0.00  0.00    -0.293 N 
ATOM      6  H   UNL     1       9.201  -6.471  26.457  0.00  0.00    +0.172 HD
ATOM      7  C   UNL     1       9.320  -4.726  25.425  0.00  0.00    +0.280 A 
ATOM      8  O   UNL     1      10.316  -5.050  24.789  0.00  0.00    -0.265 OA
ATOM      9  C   UNL     1       8.673  -3.405  25.293  0.00  0.00    +0.172 A 
ATOM     10  C   UNL     1       7.545  -3.194  26.077  0.00  0.00    +0.187 A 
ATOM     11  N   UNL     1       6.902  -2.011  26.050  0.00  0.00    -0.232 NA
ATOM     12  C   UNL     1       7.435  -1.058  25.242  0.00  0.00    +0.139 A 
ATOM     13  C   UNL     1       8.570  -1.264  24.454  0.00  0.00    +0.091 A 
ATOM     14  N   UNL     1       9.215  -2.463  24.459  0.00  0.00    -0.239 NA
ATOM     15  N   UNL     1       7.018  -4.147  26.963  0.00  0.00    -0.195 NA
ENDROOT
BRANCH  13  16
ATOM     16  C   UNL     1       9.179  -0.122  23.651  0.00  0.00    +0.195 C 
BRANCH  16  17
ATOM     17  O   UNL     1      10.590  -0.018  23.903  0.00  0.00    -0.383 OA
ATOM     18  H   UNL     1      10.706   0.741  24.511  0.00  0.00    +0.210 HD
ENDBRANCH  16  17
BRANCH  16  19
ATOM     19  C   UNL     1       8.942  -0.136  22.123  0.00  0.00    +0.174 C 
BRANCH  19  20
ATOM     20  O   UNL     1       9.950  -0.904  21.447  0.00  0.00    -0.387 OA
ATOM     21  H   UNL     1       9.758  -1.845  21.648  0.00  0.00    +0.210 HD
ENDBRANCH  19  20
BRANCH  19  22
ATOM     22  C   UNL     1       8.817   1.245  21.469  0.00  0.00    +0.190 C 
BRANCH  22  23
ATOM     23  O   UNL     1      10.057   1.946  21.567  0.00  0.00    -0.392 OA
ATOM     24  H   UNL     1      10.509   1.614  22.365  0.00  0.00    +0.210 HD
ENDBRANCH  22  23
ENDBRANCH  19  22
ENDBRANCH  16  19
ENDBRANCH  13  16
TORSDOF 6
ENDMDL
MODEL 3
REMARK VINA RESULT:      -6.1      2.260      2.962
REMARK  Name = 
REMARK  6 active torsions:
REMARK  status: ('A' for Active; 'I' for Inactive)
REMARK    1  A    between atoms: C_7  and  C_13
REMARK    2  A    between atoms: C_13  and  O_15
REMARK    3  A    between atoms: C_13  and  C_16
REMARK    4  A    between atoms: C_16  and  O_18
REMARK    5  A    between atoms: C_16  and  C_19
REMARK    6  A    between atoms: C_19  and  O_20
REMARK                            x       y       z     vdW  Elec       q    Type
REMARK                         _______ _______ _______ _____ _____    ______ ____
ROOT
ATOM      1  N   UNL     1       4.807  -7.012  23.744  0.00  0.00    -0.329 N 
ATOM      2  H   UNL     1       3.845  -7.018  23.441  0.00  0.00    +0.145 HD
ATOM      3  H   UNL     1       4.940  -7.359  24.690  0.00  0.00    +0.145 HD
ATOM      4  C   UNL     1       5.570  -5.923  23.470  0.00  0.00    +0.195 A 
ATOM      5  N   UNL     1       5.261  -5.229  22.338  0.00  0.00    -0.293 N 
ATOM      6  H   UNL     1       4.518  -5.544  21.732  0.00  0.00    +0.172 HD
ATOM      7  C   UNL     1       5.953  -4.117  21.907  0.00  0.00    +0.280 A 
ATOM      8  O   UNL     1       5.639  -3.529  20.878  0.00  0.00    -0.265 OA
ATOM      9  C   UNL     1       7.086  -3.703  22.759  0.00  0.00    +0.172 A 
ATOM     10  C   UNL     1       7.307  -4.468  23.897  0.00  0.00    +0.187 A 
ATOM     11  N   UNL     1       8.335  -4.189  24.723  0.00  0.00    -0.232 NA
ATOM     12  C   UNL     1       9.130  -3.150  24.358  0.00  0.00    +0.139 A 
ATOM     13  C   UNL     1       8.913  -2.379  23.214  0.00  0.00    +0.091 A 
ATOM     14  N   UNL     1       7.865  -2.642  22.385  0.00  0.00    -0.239 NA
ATOM     15  N   UNL     1       6.533  -5.583  24.256  0.00  0.00    -0.195 NA
ENDROOT
BRANCH  13  16
ATOM     16  C   UNL     1       9.902  -1.295  22.805  0.00  0.00    +0.195 C 
BRANCH  16  17
ATOM     17  O   UNL     1      10.396  -1.532  21.475  0.00  0.00    -0.383 OA
ATOM     18  H   UNL     1       9.849  -2.255  21.104  0.00  0.00    +0.210 HD
ENDBRANCH  16  17
BRANCH  16  19
ATOM     19  C   UNL     1       9.418   0.169  22.907  0.00  0.00    +0.174 C 
BRANCH  19  20
ATOM     20  O   UNL     1       8.190   0.262  23.646  0.00  0.00    -0.387 OA
ATOM     21  H   UNL     1       7.952   1.212  23.664  0.00  0.00    +0.210 HD
ENDBRANCH  19  20
BRANCH  19  22
ATOM     22  C   UNL     1       9.274   0.903  21.568  0.00  0.00    +0.190 C 
BRANCH  22  23
ATOM     23  O   UNL     1      10.052   2.099  21.581  0.00  0.00    -0.392 OA
ATOM     24  H   UNL     1      10.150   2.366  22.514  0.00  0.00    +0.210 HD
ENDBRANCH  22  23
ENDBRANCH  19  22
ENDBRANCH  16  19
ENDBRANCH  13  16
TORSDOF 6
ENDMDL
MODEL 4
REMARK VINA RESULT:      -6.1      2.581      5.800
REMARK  Name = 
REMARK  6 active torsions:
REMARK  status: ('A' for Active; 'I' for Inactive)
REMARK    1  A    between atoms: C_7  and  C_13
REMARK    2  A    between atoms: C_13  and  O_15
REMARK    3  A    between atoms: C_13  and  C_16
REMARK    4  A    between atoms: C_16  and  O_18
REMARK    5  A    between atoms: C_16  and  C_19
REMARK    6  A    between atoms: C_19  and  O_20
REMARK                            x       y       z     vdW  Elec       q    Type
REMARK                         _______ _______ _______ _____ _____    ______ ____
ROOT
ATOM      1  N   UNL     1       9.835   2.201  21.467  0.00  0.00    -0.329 N 
ATOM      2  H   UNL     1       9.914   3.100  21.917  0.00  0.00    +0.145 HD
ATOM      3  H   UNL     1       9.222   2.201  20.656  0.00  0.00    +0.145 HD
ATOM      4  C   UNL     1       9.683   1.096  22.240  0.00  0.00    +0.195 A 
ATOM      5  N   UNL     1      10.252   1.133  23.478  0.00  0.00    -0.293 N 
ATOM      6  H   UNL     1      10.781   1.940  23.774  0.00  0.00    +0.172 HD
ATOM      7  C   UNL     1      10.210   0.086  24.374  0.00  0.00    +0.280 A 
ATOM      8  O   UNL     1      10.742   0.167  25.476  0.00  0.00    -0.265 OA
ATOM      9  C   UNL     1       9.497  -1.120  23.910  0.00  0.00    +0.172 A 
ATOM     10  C   UNL     1       8.940  -1.051  22.638  0.00  0.00    +0.187 A 
ATOM     11  N   UNL     1       8.295  -2.111  22.112  0.00  0.00    -0.232 NA
ATOM     12  C   UNL     1       8.251  -3.228  22.884  0.00  0.00    +0.139 A 
ATOM     13  C   UNL     1       8.811  -3.304  24.162  0.00  0.00    +0.091 A 
ATOM     14  N   UNL     1       9.447  -2.231  24.709  0.00  0.00    -0.239 NA
ATOM     15  N   UNL     1       9.030   0.074  21.804  0.00  0.00    -0.195 NA
ENDROOT
BRANCH  13  16
ATOM     16  C   UNL     1       8.819  -4.617  24.932  0.00  0.00    +0.195 C 
BRANCH  16  17
ATOM     17  O   UNL     1      10.131  -5.207  24.918  0.00  0.00    -0.383 OA
ATOM     18  H   UNL     1      10.009  -6.154  25.134  0.00  0.00    +0.210 HD
ENDBRANCH  16  17
BRANCH  16  19
ATOM     19  C   UNL     1       8.303  -4.578  26.389  0.00  0.00    +0.174 C 
BRANCH  19  20
ATOM     20  O   UNL     1       8.275  -5.893  26.966  0.00  0.00    -0.387 OA
ATOM     21  H   UNL     1       9.210  -6.172  27.057  0.00  0.00    +0.210 HD
ENDBRANCH  19  20
BRANCH  19  22
ATOM     22  C   UNL     1       6.942  -3.898  26.580  0.00  0.00    +0.190 C 
BRANCH  22  23
ATOM     23  O   UNL     1       7.124  -2.509  26.851  0.00  0.00    -0.392 OA
ATOM     24  H   UNL     1       6.776  -2.345  27.747  0.00  0.00    +0.210 HD
ENDBRANCH  22  23
ENDBRANCH  19  22
ENDBRANCH  16  19
ENDBRANCH  13  16
TORSDOF 6
ENDMDL
MODEL 5
REMARK VINA RESULT:      -6.1      2.143      3.012
REMARK  Name = 
REMARK  6 active torsions:
REMARK  status: ('A' for Active; 'I' for Inactive)
REMARK    1  A    between atoms: C_7  and  C_13
REMARK    2  A    between atoms: C_13  and  O_15
REMARK    3  A    between atoms: C_13  and  C_16
REMARK    4  A    between atoms: C_16  and  O_18
REMARK    5  A    between atoms: C_16  and  C_19
REMARK    6  A    between atoms: C_19  and  O_20
REMARK                            x       y       z     vdW  Elec       q    Type
REMARK                         _______ _______ _______ _____ _____    ______ ____
ROOT
ATOM      1  N   UNL     1       9.708  -5.840  25.746  0.00  0.00    -0.329 N 
ATOM      2  H   UNL     1       9.598  -6.072  26.722  0.00  0.00    +0.145 HD
ATOM      3  H   UNL     1      10.571  -6.189  25.338  0.00  0.00    +0.145 HD
ATOM      4  C   UNL     1       9.402  -4.583  25.336  0.00  0.00    +0.195 A 
ATOM      5  N   UNL     1       8.426  -3.933  26.032  0.00  0.00    -0.293 N 
ATOM      6  H   UNL     1       7.947  -4.394  26.792  0.00  0.00    +0.172 HD
ATOM      7  C   UNL     1       7.982  -2.664  25.728  0.00  0.00    +0.280 A 
ATOM      8  O   UNL     1       7.098  -2.123  26.382  0.00  0.00    -0.265 OA
ATOM      9  C   UNL     1       8.636  -2.022  24.570  0.00  0.00    +0.172 A 
ATOM     10  C   UNL     1       9.628  -2.763  23.938  0.00  0.00    +0.187 A 
ATOM     11  N   UNL     1      10.262  -2.276  22.853  0.00  0.00    -0.232 NA
ATOM     12  C   UNL     1       9.856  -1.054  22.420  0.00  0.00    +0.139 A 
ATOM     13  C   UNL     1       8.858  -0.307  23.050  0.00  0.00    +0.091 A 
ATOM     14  N   UNL     1       8.225  -0.782  24.158  0.00  0.00    -0.239 NA
ATOM     15  N   UNL     1      10.016  -4.051  24.336  0.00  0.00    -0.195 NA
ENDROOT
BRANCH  13  16
ATOM     16  C   UNL     1       8.376   1.009  22.453  0.00  0.00    +0.195 C 
BRANCH  16  17
ATOM     17  O   UNL     1       7.041   1.309  22.895  0.00  0.00    -0.383 OA
ATOM     18  H   UNL     1       6.595   0.447  23.030  0.00  0.00    +0.210 HD
ENDBRANCH  16  17
BRANCH  16  19
ATOM     19  C   UNL     1       9.270   2.250  22.678  0.00  0.00    +0.174 C 
BRANCH  19  20
ATOM     20  O   UNL     1      10.256   2.376  21.642  0.00  0.00    -0.387 OA
ATOM     21  H   UNL     1      11.037   2.798  22.058  0.00  0.00    +0.210 HD
ENDBRANCH  19  20
BRANCH  19  22
ATOM     22  C   UNL     1       9.948   2.324  24.052  0.00  0.00    +0.190 C 
BRANCH  22  23
ATOM     23  O   UNL     1       8.961   2.377  25.081  0.00  0.00    -0.392 OA
ATOM     24  H   UNL     1       8.653   3.301  25.134  0.00  0.00    +0.210 HD
ENDBRANCH  22  23
ENDBRANCH  19  22
ENDBRANCH  16  19
ENDBRANCH  13  16
TORSDOF 6
ENDMDL
MODEL 6
REMARK VINA RESULT:      -5.8      2.743      6.256
REMARK  Name = 
REMARK  6 active torsions:
REMARK  status: ('A' for Active; 'I' for Inactive)
REMARK    1  A    between atoms: C_7  and  C_13
REMARK    2  A    between atoms: C_13  and  O_15
REMARK    3  A    between atoms: C_13  and  C_16
REMARK    4  A    between atoms: C_16  and  O_18
REMARK    5  A    between atoms: C_16  and  C_19
REMARK    6  A    between atoms: C_19  and  O_20
REMARK                            x       y       z     vdW  Elec       q    Type
REMARK                         _______ _______ _______ _____ _____    ______ ____
ROOT
ATOM      1  N   UNL     1       9.820   2.560  23.605  0.00  0.00    -0.329 N 
ATOM      2  H   UNL     1      10.541   2.909  22.992  0.00  0.00    +0.145 HD
ATOM      3  H   UNL     1       9.713   3.101  24.459  0.00  0.00    +0.145 HD
ATOM      4  C   UNL     1       9.732   1.222  23.814  0.00  0.00    +0.195 A 
ATOM      5  N   UNL     1      10.134   0.416  22.790  0.00  0.00    -0.293 N 
ATOM      6  H   UNL     1      10.448   0.815  21.918  0.00  0.00    +0.172 HD
ATOM      7  C   UNL     1      10.085  -0.961  22.834  0.00  0.00    +0.280 A 
ATOM      8  O   UNL     1      10.454  -1.643  21.885  0.00  0.00    -0.265 OA
ATOM      9  C   UNL     1       9.556  -1.540  24.085  0.00  0.00    +0.172 A 
ATOM     10  C   UNL     1       9.189  -0.633  25.072  0.00  0.00    +0.187 A 
ATOM     11  N   UNL     1       8.667  -1.061  26.238  0.00  0.00    -0.232 NA
ATOM     12  C   UNL     1       8.508  -2.404  26.365  0.00  0.00    +0.139 A 
ATOM     13  C   UNL     1       8.873  -3.320  25.376  0.00  0.00    +0.091 A 
ATOM     14  N   UNL     1       9.420  -2.897  24.203  0.00  0.00    -0.239 NA
ATOM     15  N   UNL     1       9.289   0.760  24.932  0.00  0.00    -0.195 NA
ENDROOT
BRANCH  13  16
ATOM     16  C   UNL     1       8.572  -4.803  25.538  0.00  0.00    +0.195 C 
BRANCH  16  17
ATOM     17  O   UNL     1       9.771  -5.537  25.840  0.00  0.00    -0.383 OA
ATOM     18  H   UNL     1      10.416  -4.882  26.178  0.00  0.00    +0.210 HD
ENDBRANCH  16  17
BRANCH  16  19
ATOM     19  C   UNL     1       7.478  -5.188  26.561  0.00  0.00    +0.174 C 
BRANCH  19  20
ATOM     20  O   UNL     1       7.990  -6.086  27.558  0.00  0.00    -0.387 OA
ATOM     21  H   UNL     1       7.253  -6.690  27.788  0.00  0.00    +0.210 HD
ENDBRANCH  19  20
BRANCH  19  22
ATOM     22  C   UNL     1       6.192  -5.763  25.956  0.00  0.00    +0.190 C 
BRANCH  22  23
ATOM     23  O   UNL     1       5.619  -6.720  26.846  0.00  0.00    -0.392 OA
ATOM     24  H   UNL     1       5.930  -7.599  26.559  0.00  0.00    +0.210 HD
ENDBRANCH  22  23
ENDBRANCH  19  22
ENDBRANCH  16  19
ENDBRANCH  13  16
TORSDOF 6
ENDMDL
MODEL 7
REMARK VINA RESULT:      -5.8      2.495      5.736
REMARK  Name = 
REMARK  6 active torsions:
REMARK  status: ('A' for Active; 'I' for Inactive)
REMARK    1  A    between atoms: C_7  and  C_13
REMARK    2  A    between atoms: C_13  and  O_15
REMARK    3  A    between atoms: C_13  and  C_16
REMARK    4  A    between atoms: C_16  and  O_18
REMARK    5  A    between atoms: C_16  and  C_19
REMARK    6  A    between atoms: C_19  and  O_20
REMARK                            x       y       z     vdW  Elec       q    Type
REMARK                         _______ _______ _______ _____ _____    ______ ____
ROOT
ATOM      1  N   UNL     1       9.030   2.209  21.488  0.00  0.00    -0.329 N 
ATOM      2  H   UNL     1       9.946   2.629  21.508  0.00  0.00    +0.145 HD
ATOM      3  H   UNL     1       8.284   2.840  21.767  0.00  0.00    +0.145 HD
ATOM      4  C   UNL     1       8.875   0.957  21.989  0.00  0.00    +0.195 A 
ATOM      5  N   UNL     1       9.951   0.126  21.901  0.00  0.00    -0.293 N 
ATOM      6  H   UNL     1      10.801   0.435  21.454  0.00  0.00    +0.172 HD
ATOM      7  C   UNL     1       9.949  -1.181  22.341  0.00  0.00    +0.280 A 
ATOM      8  O   UNL     1      10.943  -1.892  22.235  0.00  0.00    -0.265 OA
ATOM      9  C   UNL     1       8.680  -1.653  22.929  0.00  0.00    +0.172 A 
ATOM     10  C   UNL     1       7.649  -0.723  22.985  0.00  0.00    +0.187 A 
ATOM     11  N   UNL     1       6.442  -1.066  23.477  0.00  0.00    -0.232 NA
ATOM     12  C   UNL     1       6.303  -2.356  23.879  0.00  0.00    +0.139 A 
ATOM     13  C   UNL     1       7.336  -3.295  23.822  0.00  0.00    +0.091 A 
ATOM     14  N   UNL     1       8.565  -2.952  23.345  0.00  0.00    -0.239 NA
ATOM     15  N   UNL     1       7.756   0.596  22.518  0.00  0.00    -0.195 NA
ENDROOT
BRANCH  13  16
ATOM     16  C   UNL     1       7.085  -4.752  24.189  0.00  0.00    +0.195 C 
BRANCH  16  17
ATOM     17  O   UNL     1       7.657  -5.630  23.205  0.00  0.00    -0.383 OA
ATOM     18  H   UNL     1       7.197  -5.436  22.362  0.00  0.00    +0.210 HD
ENDBRANCH  16  17
BRANCH  16  19
ATOM     19  C   UNL     1       7.542  -5.208  25.594  0.00  0.00    +0.174 C 
BRANCH  19  20
ATOM     20  O   UNL     1       6.749  -4.596  26.624  0.00  0.00    -0.387 OA
ATOM     21  H   UNL     1       7.383  -4.217  27.268  0.00  0.00    +0.210 HD
ENDBRANCH  19  20
BRANCH  19  22
ATOM     22  C   UNL     1       9.031  -5.002  25.895  0.00  0.00    +0.190 C 
BRANCH  22  23
ATOM     23  O   UNL     1       9.823  -5.583  24.860  0.00  0.00    -0.392 OA
ATOM     24  H   UNL     1      10.738  -5.631  25.194  0.00  0.00    +0.210 HD
ENDBRANCH  22  23
ENDBRANCH  19  22
ENDBRANCH  16  19
ENDBRANCH  13  16
TORSDOF 6
ENDMDL
MODEL 8
REMARK VINA RESULT:      -5.8      3.125      6.494
REMARK  Name = 
REMARK  6 active torsions:
REMARK  status: ('A' for Active; 'I' for Inactive)
REMARK    1  A    between atoms: C_7  and  C_13
REMARK    2  A    between atoms: C_13  and  O_15
REMARK    3  A    between atoms: C_13  and  C_16
REMARK    4  A    between atoms: C_16  and  O_18
REMARK    5  A    between atoms: C_16  and  C_19
REMARK    6  A    between atoms: C_19  and  O_20
REMARK                            x       y       z     vdW  Elec       q    Type
REMARK                         _______ _______ _______ _____ _____    ______ ____
ROOT
ATOM      1  N   UNL     1      11.181   3.852  22.995  0.00  0.00    -0.329 N 
ATOM      2  H   UNL     1      11.596   4.152  22.126  0.00  0.00    +0.145 HD
ATOM      3  H   UNL     1      11.744   4.070  23.813  0.00  0.00    +0.145 HD
ATOM      4  C   UNL     1      10.618   2.618  23.057  0.00  0.00    +0.195 A 
ATOM      5  N   UNL     1      10.082   2.132  21.902  0.00  0.00    -0.293 N 
ATOM      6  H   UNL     1      10.087   2.690  21.062  0.00  0.00    +0.172 HD
ATOM      7  C   UNL     1       9.453   0.909  21.803  0.00  0.00    +0.280 A 
ATOM      8  O   UNL     1       8.981   0.518  20.742  0.00  0.00    -0.265 OA
ATOM      9  C   UNL     1       9.384   0.126  23.053  0.00  0.00    +0.172 A 
ATOM     10  C   UNL     1       9.974   0.704  24.171  0.00  0.00    +0.187 A 
ATOM     11  N   UNL     1       9.937   0.082  25.366  0.00  0.00    -0.232 NA
ATOM     12  C   UNL     1       9.279  -1.106  25.402  0.00  0.00    +0.139 A 
ATOM     13  C   UNL     1       8.683  -1.690  24.282  0.00  0.00    +0.091 A 
ATOM     14  N   UNL     1       8.732  -1.078  23.067  0.00  0.00    -0.239 NA
ATOM     15  N   UNL     1      10.604   1.959  24.164  0.00  0.00    -0.195 NA
ENDROOT
BRANCH  13  16
ATOM     16  C   UNL     1       7.870  -2.971  24.412  0.00  0.00    +0.195 C 
BRANCH  16  17
ATOM     17  O   UNL     1       6.770  -2.972  23.485  0.00  0.00    -0.383 OA
ATOM     18  H   UNL     1       6.076  -3.538  23.883  0.00  0.00    +0.210 HD
ENDBRANCH  16  17
BRANCH  16  19
ATOM     19  C   UNL     1       8.639  -4.305  24.278  0.00  0.00    +0.174 C 
BRANCH  19  20
ATOM     20  O   UNL     1       7.852  -5.295  23.597  0.00  0.00    -0.387 OA
ATOM     21  H   UNL     1       8.386  -6.117  23.596  0.00  0.00    +0.210 HD
ENDBRANCH  19  20
BRANCH  19  22
ATOM     22  C   UNL     1       9.175  -4.884  25.593  0.00  0.00    +0.190 C 
BRANCH  22  23
ATOM     23  O   UNL     1      10.406  -5.567  25.360  0.00  0.00    -0.392 OA
ATOM     24  H   UNL     1      10.841  -5.675  26.227  0.00  0.00    +0.210 HD
ENDBRANCH  22  23
ENDBRANCH  19  22
ENDBRANCH  16  19
ENDBRANCH  13  16
TORSDOF 6
ENDMDL
MODEL 9
REMARK VINA RESULT:      -5.8      5.024      6.962
REMARK  Name = 
REMARK  6 active torsions:
REMARK  status: ('A' for Active; 'I' for Inactive)
REMARK    1  A    between atoms: C_7  and  C_13
REMARK    2  A    between atoms: C_13  and  O_15
REMARK    3  A    between atoms: C_13  and  C_16
REMARK    4  A    between atoms: C_16  and  O_18
REMARK    5  A    between atoms: C_16  and  C_19
REMARK    6  A    between atoms: C_19  and  O_20
REMARK                            x       y       z     vdW  Elec       q    Type
REMARK                         _______ _______ _______ _____ _____    ______ ____
ROOT
ATOM      1  N   UNL     1      10.326  -5.349  25.586  0.00  0.00    -0.329 N 
ATOM      2  H   UNL     1      10.754  -5.091  26.463  0.00  0.00    +0.145 HD
ATOM      3  H   UNL     1      10.753  -4.907  24.777  0.00  0.00    +0.145 HD
ATOM      4  C   UNL     1       8.971  -5.390  25.510  0.00  0.00    +0.195 A 
ATOM      5  N   UNL     1       8.304  -5.708  26.655  0.00  0.00    -0.293 N 
ATOM      6  H   UNL     1       8.811  -5.927  27.499  0.00  0.00    +0.172 HD
ATOM      7  C   UNL     1       6.931  -5.816  26.738  0.00  0.00    +0.280 A 
ATOM      8  O   UNL     1       6.377  -6.109  27.792  0.00  0.00    -0.265 OA
ATOM      9  C   UNL     1       6.196  -5.565  25.483  0.00  0.00    +0.172 A 
ATOM     10  C   UNL     1       6.969  -5.234  24.376  0.00  0.00    +0.187 A 
ATOM     11  N   UNL     1       6.394  -5.016  23.177  0.00  0.00    -0.232 NA
ATOM     12  C   UNL     1       5.044  -5.163  23.125  0.00  0.00    +0.139 A 
ATOM     13  C   UNL     1       4.263  -5.498  24.234  0.00  0.00    +0.091 A 
ATOM     14  N   UNL     1       4.834  -5.700  25.454  0.00  0.00    -0.239 NA
ATOM     15  N   UNL     1       8.369  -5.139  24.399  0.00  0.00    -0.195 NA
ENDROOT
BRANCH  13  16
ATOM     16  C   UNL     1       2.769  -5.751  24.086  0.00  0.00    +0.195 C 
BRANCH  16  17
ATOM     17  O   UNL     1       2.288  -5.244  22.829  0.00  0.00    -0.383 OA
ATOM     18  H   UNL     1       1.979  -4.331  23.000  0.00  0.00    +0.210 HD
ENDBRANCH  16  17
BRANCH  16  19
ATOM     19  C   UNL     1       2.285  -7.209  24.257  0.00  0.00    +0.174 C 
BRANCH  19  20
ATOM     20  O   UNL     1       3.390  -8.125  24.279  0.00  0.00    -0.387 OA
ATOM     21  H   UNL     1       4.162  -7.632  23.929  0.00  0.00    +0.210 HD
ENDBRANCH  19  20
BRANCH  19  22
ATOM     22  C   UNL     1       1.244  -7.676  23.232  0.00  0.00    +0.190 C 
BRANCH  22  23
ATOM     23  O   UNL     1       1.868  -7.891  21.967  0.00  0.00    -0.392 OA
ATOM     24  H   UNL     1       2.440  -7.120  21.796  0.00  0.00    +0.210 HD
ENDBRANCH  22  23
ENDBRANCH  19  22
ENDBRANCH  16  19
ENDBRANCH  13  16
TORSDOF 6
ENDMDL
