MODEL 1
REMARK VINA RESULT:      -7.0      0.000      0.000
REMARK  Name = 
REMARK  6 active torsions:
REMARK  status: ('A' for Active; 'I' for Inactive)
REMARK    1  A    between atoms: C_1  and  C_2
REMARK    2  A    between atoms: C_5  and  N_6
REMARK    3  A    between atoms: N_6  and  C_7
REMARK    4  A    between atoms: C_15  and  C_16
REMARK    5  A    between atoms: C_16  and  C_17
REMARK    6  A    between atoms: C_17  and  O_18
REMARK                            x       y       z     vdW  Elec       q    Type
REMARK                         _______ _______ _______ _____ _____    ______ ____
ROOT
ATOM      1  C   UNL     1       5.267  -5.543  22.628  0.00  0.00    +0.044 C 
ATOM      2  C   UNL     1       6.267  -4.444  22.835  0.00  0.00    -0.050 A 
ATOM      3  C   UNL     1       7.295  -4.598  23.775  0.00  0.00    +0.009 A 
ATOM      4  C   UNL     1       8.344  -3.663  23.868  0.00  0.00    -0.015 A 
ATOM      5  C   UNL     1       8.345  -2.560  22.989  0.00  0.00    +0.035 A 
ATOM      6  C   UNL     1       7.223  -2.334  22.182  0.00  0.00    +0.024 A 
ATOM      7  C   UNL     1       6.202  -3.274  22.087  0.00  0.00    +0.005 A 
ENDROOT
BRANCH   5   8
ATOM      8  N   UNL     1       9.516  -1.775  22.849  0.00  0.00    -0.311 N 
ATOM      9  H   UNL     1      10.346  -2.247  23.197  0.00  0.00    +0.152 HD
BRANCH   8  10
ATOM     10  C   UNL     1       9.605  -0.359  23.000  0.00  0.00    +0.086 A 
ATOM     11  C   UNL     1       9.586   0.434  21.844  0.00  0.00    +0.146 A 
ATOM     12  F   UNL     1       9.378  -0.144  20.653  0.00  0.00    -0.203 F 
ATOM     13  C   UNL     1       9.806   1.812  21.891  0.00  0.00    +0.040 A 
ATOM     14  C   UNL     1      10.057   2.433  23.109  0.00  0.00    +0.004 A 
ATOM     15  C   UNL     1      10.007   1.681  24.285  0.00  0.00    +0.022 A 
ATOM     16  C   UNL     1       9.736   0.308  24.233  0.00  0.00    +0.065 A 
ATOM     17 CL   UNL     1       9.484  -0.474  25.762  0.00  0.00    -0.082 Cl
ENDBRANCH   8  10
ENDBRANCH   5   8
BRANCH   4  18
ATOM     18  C   UNL     1       9.453  -3.898  24.871  0.00  0.00    +0.157 C 
BRANCH  18  19
ATOM     19  C   UNL     1       9.288  -4.999  25.895  0.00  0.00    +0.309 C 
ATOM     20  O   UNL     1       8.717  -4.794  26.960  0.00  0.00    -0.251 OA
BRANCH  19  21
ATOM     21  O   UNL     1       9.779  -6.215  25.598  0.00  0.00    -0.480 OA
ATOM     22  H   UNL     1      10.726  -6.223  25.348  0.00  0.00    +0.295 HD
ENDBRANCH  19  21
ENDBRANCH  18  19
ENDBRANCH   4  18
TORSDOF 5
ENDMDL
MODEL 2
REMARK VINA RESULT:      -6.7      1.869      2.079
REMARK  Name = 
REMARK  6 active torsions:
REMARK  status: ('A' for Active; 'I' for Inactive)
REMARK    1  A    between atoms: C_1  and  C_2
REMARK    2  A    between atoms: C_5  and  N_6
REMARK    3  A    between atoms: N_6  and  C_7
REMARK    4  A    between atoms: C_15  and  C_16
REMARK    5  A    between atoms: C_16  and  C_17
REMARK    6  A    between atoms: C_17  and  O_18
REMARK                            x       y       z     vdW  Elec       q    Type
REMARK                         _______ _______ _______ _____ _____    ______ ____
ROOT
ATOM      1  C   UNL     1       6.342  -6.168  21.244  0.00  0.00    +0.044 C 
ATOM      2  C   UNL     1       6.546  -4.990  22.151  0.00  0.00    -0.050 A 
ATOM      3  C   UNL     1       7.605  -4.985  23.069  0.00  0.00    +0.009 A 
ATOM      4  C   UNL     1       7.923  -3.829  23.807  0.00  0.00    -0.015 A 
ATOM      5  C   UNL     1       7.155  -2.664  23.603  0.00  0.00    +0.035 A 
ATOM      6  C   UNL     1       5.999  -2.742  22.815  0.00  0.00    +0.024 A 
ATOM      7  C   UNL     1       5.705  -3.885  22.078  0.00  0.00    +0.005 A 
ENDROOT
BRANCH   5   8
ATOM      8  N   UNL     1       7.622  -1.420  24.093  0.00  0.00    -0.311 N 
ATOM      9  H   UNL     1       7.174  -1.150  24.964  0.00  0.00    +0.152 HD
BRANCH   8  10
ATOM     10  C   UNL     1       7.985  -0.287  23.305  0.00  0.00    +0.086 A 
ATOM     11  C   UNL     1       7.148   0.838  23.336  0.00  0.00    +0.146 A 
ATOM     12  F   UNL     1       6.105   0.859  24.176  0.00  0.00    -0.203 F 
ATOM     13  C   UNL     1       7.353   1.933  22.494  0.00  0.00    +0.040 A 
ATOM     14  C   UNL     1       8.408   1.925  21.589  0.00  0.00    +0.004 A 
ATOM     15  C   UNL     1       9.302   0.851  21.589  0.00  0.00    +0.022 A 
ATOM     16  C   UNL     1       9.118  -0.220  22.471  0.00  0.00    +0.065 A 
ATOM     17 CL   UNL     1      10.405  -1.384  22.532  0.00  0.00    -0.082 Cl
ENDBRANCH   8  10
ENDBRANCH   5   8
BRANCH   4  18
ATOM     18  C   UNL     1       9.104  -3.862  24.754  0.00  0.00    +0.157 C 
BRANCH  18  19
ATOM     19  C   UNL     1       9.139  -4.918  25.837  0.00  0.00    +0.309 C 
ATOM     20  O   UNL     1       8.526  -4.770  26.888  0.00  0.00    -0.251 OA
BRANCH  19  21
ATOM     21  O   UNL     1       9.857  -6.032  25.608  0.00  0.00    -0.480 OA
ATOM     22  H   UNL     1      10.778  -5.999  25.940  0.00  0.00    +0.295 HD
ENDBRANCH  19  21
ENDBRANCH  18  19
ENDBRANCH   4  18
TORSDOF 5
ENDMDL
MODEL 3
REMARK VINA RESULT:      -6.5      2.428      3.382
REMARK  Name = 
REMARK  6 active torsions:
REMARK  status: ('A' for Active; 'I' for Inactive)
REMARK    1  A    between atoms: C_1  and  C_2
REMARK    2  A    between atoms: C_5  and  N_6
REMARK    3  A    between atoms: N_6  and  C_7
REMARK    4  A    between atoms: C_15  and  C_16
REMARK    5  A    between atoms: C_16  and  C_17
REMARK    6  A    between atoms: C_17  and  O_18
REMARK                            x       y       z     vdW  Elec       q    Type
REMARK                         _______ _______ _______ _____ _____    ______ ____
ROOT
ATOM      1  C   UNL     1       5.675  -5.835  26.740  0.00  0.00    +0.044 C 
ATOM      2  C   UNL     1       6.851  -5.274  25.995  0.00  0.00    -0.050 A 
ATOM      3  C   UNL     1       6.702  -4.841  24.671  0.00  0.00    +0.009 A 
ATOM      4  C   UNL     1       7.737  -4.155  24.008  0.00  0.00    -0.015 A 
ATOM      5  C   UNL     1       8.937  -3.904  24.706  0.00  0.00    +0.035 A 
ATOM      6  C   UNL     1       9.128  -4.494  25.962  0.00  0.00    +0.024 A 
ATOM      7  C   UNL     1       8.091  -5.156  26.613  0.00  0.00    +0.005 A 
ENDROOT
BRANCH   5   8
ATOM      8  N   UNL     1       9.869  -2.972  24.188  0.00  0.00    -0.311 N 
ATOM      9  H   UNL     1      10.829  -3.201  24.433  0.00  0.00    +0.152 HD
BRANCH   8  10
ATOM     10  C   UNL     1       9.673  -1.564  24.062  0.00  0.00    +0.086 A 
ATOM     11  C   UNL     1       9.890  -0.973  22.809  0.00  0.00    +0.146 A 
ATOM     12  F   UNL     1      10.165  -1.751  21.754  0.00  0.00    -0.203 F 
ATOM     13  C   UNL     1       9.854   0.412  22.630  0.00  0.00    +0.040 A 
ATOM     14  C   UNL     1       9.604   1.244  23.715  0.00  0.00    +0.004 A 
ATOM     15  C   UNL     1       9.310   0.681  24.958  0.00  0.00    +0.022 A 
ATOM     16  C   UNL     1       9.298  -0.711  25.118  0.00  0.00    +0.065 A 
ATOM     17 CL   UNL     1       8.709  -1.296  26.642  0.00  0.00    -0.082 Cl
ENDBRANCH   8  10
ENDBRANCH   5   8
BRANCH   4  18
ATOM     18  C   UNL     1       7.511  -3.670  22.592  0.00  0.00    +0.157 C 
BRANCH  18  19
ATOM     19  C   UNL     1       6.279  -2.846  22.293  0.00  0.00    +0.309 C 
ATOM     20  O   UNL     1       5.373  -3.286  21.594  0.00  0.00    -0.251 OA
BRANCH  19  21
ATOM     21  O   UNL     1       6.202  -1.613  22.825  0.00  0.00    -0.480 OA
ATOM     22  H   UNL     1       7.002  -1.062  22.697  0.00  0.00    +0.295 HD
ENDBRANCH  19  21
ENDBRANCH  18  19
ENDBRANCH   4  18
TORSDOF 5
ENDMDL
MODEL 4
REMARK VINA RESULT:      -6.4      1.841      2.083
REMARK  Name = 
REMARK  6 active torsions:
REMARK  status: ('A' for Active; 'I' for Inactive)
REMARK    1  A    between atoms: C_1  and  C_2
REMARK    2  A    between atoms: C_5  and  N_6
REMARK    3  A    between atoms: N_6  and  C_7
REMARK    4  A    between atoms: C_15  and  C_16
REMARK    5  A    between atoms: C_16  and  C_17
REMARK    6  A    between atoms: C_17  and  O_18
REMARK                            x       y       z     vdW  Elec       q    Type
REMARK                         _______ _______ _______ _____ _____    ______ ____
ROOT
ATOM      1  C   UNL     1       6.156  -6.002  20.832  0.00  0.00    +0.044 C 
ATOM      2  C   UNL     1       6.318  -4.989  21.928  0.00  0.00    -0.050 A 
ATOM      3  C   UNL     1       6.750  -5.392  23.199  0.00  0.00    +0.009 A 
ATOM      4  C   UNL     1       7.076  -4.448  24.191  0.00  0.00    -0.015 A 
ATOM      5  C   UNL     1       6.963  -3.076  23.881  0.00  0.00    +0.035 A 
ATOM      6  C   UNL     1       6.367  -2.700  22.671  0.00  0.00    +0.024 A 
ATOM      7  C   UNL     1       6.065  -3.642  21.692  0.00  0.00    +0.005 A 
ENDROOT
BRANCH   5   8
ATOM      8  N   UNL     1       7.557  -2.113  24.733  0.00  0.00    -0.311 N 
ATOM      9  H   UNL     1       6.973  -1.887  25.534  0.00  0.00    +0.152 HD
BRANCH   8  10
ATOM     10  C   UNL     1       8.355  -1.003  24.324  0.00  0.00    +0.086 A 
ATOM     11  C   UNL     1       9.711  -1.226  24.048  0.00  0.00    +0.146 A 
ATOM     12  F   UNL     1      10.189  -2.478  24.069  0.00  0.00    -0.203 F 
ATOM     13  C   UNL     1      10.592  -0.177  23.775  0.00  0.00    +0.040 A 
ATOM     14  C   UNL     1      10.130   1.134  23.779  0.00  0.00    +0.004 A 
ATOM     15  C   UNL     1       8.769   1.381  23.977  0.00  0.00    +0.022 A 
ATOM     16  C   UNL     1       7.884   0.319  24.200  0.00  0.00    +0.065 A 
ATOM     17 CL   UNL     1       6.197   0.726  24.213  0.00  0.00    -0.082 Cl
ENDBRANCH   8  10
ENDBRANCH   5   8
BRANCH   4  18
ATOM     18  C   UNL     1       7.578  -4.934  25.533  0.00  0.00    +0.157 C 
BRANCH  18  19
ATOM     19  C   UNL     1       9.070  -5.021  25.764  0.00  0.00    +0.309 C 
ATOM     20  O   UNL     1       9.595  -4.494  26.738  0.00  0.00    -0.251 OA
BRANCH  19  21
ATOM     21  O   UNL     1       9.807  -5.705  24.870  0.00  0.00    -0.480 OA
ATOM     22  H   UNL     1      10.004  -6.631  25.125  0.00  0.00    +0.295 HD
ENDBRANCH  19  21
ENDBRANCH  18  19
ENDBRANCH   4  18
TORSDOF 5
ENDMDL
MODEL 5
REMARK VINA RESULT:      -6.4      1.631      1.958
REMARK  Name = 
REMARK  6 active torsions:
REMARK  status: ('A' for Active; 'I' for Inactive)
REMARK    1  A    between atoms: C_1  and  C_2
REMARK    2  A    between atoms: C_5  and  N_6
REMARK    3  A    between atoms: N_6  and  C_7
REMARK    4  A    between atoms: C_15  and  C_16
REMARK    5  A    between atoms: C_16  and  C_17
REMARK    6  A    between atoms: C_17  and  O_18
REMARK                            x       y       z     vdW  Elec       q    Type
REMARK                         _______ _______ _______ _____ _____    ______ ____
ROOT
ATOM      1  C   UNL     1       3.361  -5.376  23.445  0.00  0.00    +0.044 C 
ATOM      2  C   UNL     1       4.658  -4.651  23.653  0.00  0.00    -0.050 A 
ATOM      3  C   UNL     1       5.565  -5.099  24.623  0.00  0.00    +0.009 A 
ATOM      4  C   UNL     1       6.857  -4.547  24.722  0.00  0.00    -0.015 A 
ATOM      5  C   UNL     1       7.228  -3.530  23.818  0.00  0.00    +0.035 A 
ATOM      6  C   UNL     1       6.252  -2.980  22.976  0.00  0.00    +0.024 A 
ATOM      7  C   UNL     1       4.985  -3.545  22.876  0.00  0.00    +0.005 A 
ENDROOT
BRANCH   5   8
ATOM      8  N   UNL     1       8.591  -3.167  23.691  0.00  0.00    -0.311 N 
ATOM      9  H   UNL     1       9.218  -3.858  24.094  0.00  0.00    +0.152 HD
BRANCH   8  10
ATOM     10  C   UNL     1       9.124  -1.847  23.779  0.00  0.00    +0.086 A 
ATOM     11  C   UNL     1       9.510  -1.205  22.594  0.00  0.00    +0.146 A 
ATOM     12  F   UNL     1       9.270  -1.799  21.417  0.00  0.00    -0.203 F 
ATOM     13  C   UNL     1      10.165   0.028  22.600  0.00  0.00    +0.040 A 
ATOM     14  C   UNL     1      10.457   0.651  23.808  0.00  0.00    +0.004 A 
ATOM     15  C   UNL     1      10.018   0.073  25.001  0.00  0.00    +0.022 A 
ATOM     16  C   UNL     1       9.317  -1.140  24.982  0.00  0.00    +0.065 A 
ATOM     17 CL   UNL     1       8.636  -1.648  26.496  0.00  0.00    -0.082 Cl
ENDBRANCH   8  10
ENDBRANCH   5   8
BRANCH   4  18
ATOM     18  C   UNL     1       7.814  -5.096  25.758  0.00  0.00    +0.157 C 
BRANCH  18  19
ATOM     19  C   UNL     1       7.357  -5.181  27.197  0.00  0.00    +0.309 C 
ATOM     20  O   UNL     1       6.683  -4.292  27.704  0.00  0.00    -0.251 OA
BRANCH  19  21
ATOM     21  O   UNL     1       7.707  -6.270  27.906  0.00  0.00    -0.480 OA
ATOM     22  H   UNL     1       7.217  -7.085  27.671  0.00  0.00    +0.295 HD
ENDBRANCH  19  21
ENDBRANCH  18  19
ENDBRANCH   4  18
TORSDOF 5
ENDMDL
MODEL 6
REMARK VINA RESULT:      -6.3      2.144      2.580
REMARK  Name = 
REMARK  6 active torsions:
REMARK  status: ('A' for Active; 'I' for Inactive)
REMARK    1  A    between atoms: C_1  and  C_2
REMARK    2  A    between atoms: C_5  and  N_6
REMARK    3  A    between atoms: N_6  and  C_7
REMARK    4  A    between atoms: C_15  and  C_16
REMARK    5  A    between atoms: C_16  and  C_17
REMARK    6  A    between atoms: C_17  and  O_18
REMARK                            x       y       z     vdW  Elec       q    Type
REMARK                         _______ _______ _______ _____ _____    ______ ____
ROOT
ATOM      1  C   UNL     1       6.059  -6.007  20.822  0.00  0.00    +0.044 C 
ATOM      2  C   UNL     1       6.683  -5.088  21.832  0.00  0.00    -0.050 A 
ATOM      3  C   UNL     1       7.449  -5.614  22.881  0.00  0.00    +0.009 A 
ATOM      4  C   UNL     1       8.186  -4.774  23.738  0.00  0.00    -0.015 A 
ATOM      5  C   UNL     1       8.142  -3.381  23.519  0.00  0.00    +0.035 A 
ATOM      6  C   UNL     1       7.238  -2.869  22.580  0.00  0.00    +0.024 A 
ATOM      7  C   UNL     1       6.529  -3.710  21.728  0.00  0.00    +0.005 A 
ENDROOT
BRANCH   5   8
ATOM      8  N   UNL     1       9.088  -2.540  24.156  0.00  0.00    -0.311 N 
ATOM      9  H   UNL     1       9.631  -3.029  24.863  0.00  0.00    +0.152 HD
BRANCH   8  10
ATOM     10  C   UNL     1       8.909  -1.163  24.479  0.00  0.00    +0.086 A 
ATOM     11  C   UNL     1       8.429  -0.837  25.755  0.00  0.00    +0.146 A 
ATOM     12  F   UNL     1       8.260  -1.809  26.662  0.00  0.00    -0.203 F 
ATOM     13  C   UNL     1       8.095   0.473  26.107  0.00  0.00    +0.040 A 
ATOM     14  C   UNL     1       8.230   1.496  25.176  0.00  0.00    +0.004 A 
ATOM     15  C   UNL     1       8.776   1.214  23.921  0.00  0.00    +0.022 A 
ATOM     16  C   UNL     1       9.155  -0.094  23.595  0.00  0.00    +0.065 A 
ATOM     17 CL   UNL     1      10.018  -0.284  22.100  0.00  0.00    -0.082 Cl
ENDBRANCH   8  10
ENDBRANCH   5   8
BRANCH   4  18
ATOM     18  C   UNL     1       9.032  -5.394  24.829  0.00  0.00    +0.157 C 
BRANCH  18  19
ATOM     19  C   UNL     1       8.554  -5.304  26.261  0.00  0.00    +0.309 C 
ATOM     20  O   UNL     1       7.481  -5.787  26.604  0.00  0.00    -0.251 OA
BRANCH  19  21
ATOM     21  O   UNL     1       9.348  -4.683  27.152  0.00  0.00    -0.480 OA
ATOM     22  H   UNL     1      10.221  -5.106  27.285  0.00  0.00    +0.295 HD
ENDBRANCH  19  21
ENDBRANCH  18  19
ENDBRANCH   4  18
TORSDOF 5
ENDMDL
MODEL 7
REMARK VINA RESULT:      -6.2      2.482      3.604
REMARK  Name = 
REMARK  6 active torsions:
REMARK  status: ('A' for Active; 'I' for Inactive)
REMARK    1  A    between atoms: C_1  and  C_2
REMARK    2  A    between atoms: C_5  and  N_6
REMARK    3  A    between atoms: N_6  and  C_7
REMARK    4  A    between atoms: C_15  and  C_16
REMARK    5  A    between atoms: C_16  and  C_17
REMARK    6  A    between atoms: C_17  and  O_18
REMARK                            x       y       z     vdW  Elec       q    Type
REMARK                         _______ _______ _______ _____ _____    ______ ____
ROOT
ATOM      1  C   UNL     1       6.684  -5.819  27.821  0.00  0.00    +0.044 C 
ATOM      2  C   UNL     1       7.215  -5.234  26.545  0.00  0.00    -0.050 A 
ATOM      3  C   UNL     1       6.381  -5.121  25.425  0.00  0.00    +0.009 A 
ATOM      4  C   UNL     1       6.797  -4.422  24.275  0.00  0.00    -0.015 A 
ATOM      5  C   UNL     1       8.076  -3.829  24.271  0.00  0.00    +0.035 A 
ATOM      6  C   UNL     1       8.955  -4.101  25.328  0.00  0.00    +0.024 A 
ATOM      7  C   UNL     1       8.526  -4.779  26.465  0.00  0.00    +0.005 A 
ENDROOT
BRANCH   5   8
ATOM      8  N   UNL     1       8.407  -2.881  23.272  0.00  0.00    -0.311 N 
ATOM      9  H   UNL     1       8.927  -3.292  22.501  0.00  0.00    +0.152 HD
BRANCH   8  10
ATOM     10  C   UNL     1       8.765  -1.517  23.490  0.00  0.00    +0.086 A 
ATOM     11  C   UNL     1      10.068  -1.113  23.170  0.00  0.00    +0.146 A 
ATOM     12  F   UNL     1      10.898  -1.980  22.575  0.00  0.00    -0.203 F 
ATOM     13  C   UNL     1      10.542   0.164  23.478  0.00  0.00    +0.040 A 
ATOM     14  C   UNL     1       9.713   1.073  24.125  0.00  0.00    +0.004 A 
ATOM     15  C   UNL     1       8.387   0.725  24.389  0.00  0.00    +0.022 A 
ATOM     16  C   UNL     1       7.905  -0.541  24.031  0.00  0.00    +0.065 A 
ATOM     17 CL   UNL     1       6.195  -0.781  24.207  0.00  0.00    -0.082 Cl
ENDBRANCH   8  10
ENDBRANCH   5   8
BRANCH   4  18
ATOM     18  C   UNL     1       5.842  -4.292  23.107  0.00  0.00    +0.157 C 
BRANCH  18  19
ATOM     19  C   UNL     1       5.928  -5.298  21.982  0.00  0.00    +0.309 C 
ATOM     20  O   UNL     1       5.956  -4.940  20.810  0.00  0.00    -0.251 OA
BRANCH  19  21
ATOM     21  O   UNL     1       5.981  -6.603  22.306  0.00  0.00    -0.480 OA
ATOM     22  H   UNL     1       6.864  -7.014  22.201  0.00  0.00    +0.295 HD
ENDBRANCH  19  21
ENDBRANCH  18  19
ENDBRANCH   4  18
TORSDOF 5
ENDMDL
MODEL 8
REMARK VINA RESULT:      -6.1      2.108      2.398
REMARK  Name = 
REMARK  6 active torsions:
REMARK  status: ('A' for Active; 'I' for Inactive)
REMARK    1  A    between atoms: C_1  and  C_2
REMARK    2  A    between atoms: C_5  and  N_6
REMARK    3  A    between atoms: N_6  and  C_7
REMARK    4  A    between atoms: C_15  and  C_16
REMARK    5  A    between atoms: C_16  and  C_17
REMARK    6  A    between atoms: C_17  and  O_18
REMARK                            x       y       z     vdW  Elec       q    Type
REMARK                         _______ _______ _______ _____ _____    ______ ____
ROOT
ATOM      1  C   UNL     1       5.788  -5.538  21.937  0.00  0.00    +0.044 C 
ATOM      2  C   UNL     1       6.028  -4.389  22.873  0.00  0.00    -0.050 A 
ATOM      3  C   UNL     1       6.319  -4.631  24.222  0.00  0.00    +0.009 A 
ATOM      4  C   UNL     1       6.717  -3.588  25.080  0.00  0.00    -0.015 A 
ATOM      5  C   UNL     1       6.821  -2.284  24.554  0.00  0.00    +0.035 A 
ATOM      6  C   UNL     1       6.359  -2.036  23.255  0.00  0.00    +0.024 A 
ATOM      7  C   UNL     1       5.985  -3.078  22.412  0.00  0.00    +0.005 A 
ENDROOT
BRANCH   5   8
ATOM      8  N   UNL     1       7.494  -1.280  25.294  0.00  0.00    -0.311 N 
ATOM      9  H   UNL     1       6.876  -0.783  25.929  0.00  0.00    +0.152 HD
BRANCH   8  10
ATOM     10  C   UNL     1       8.551  -0.449  24.818  0.00  0.00    +0.086 A 
ATOM     11  C   UNL     1       8.501   0.922  25.107  0.00  0.00    +0.146 A 
ATOM     12  F   UNL     1       7.531   1.389  25.905  0.00  0.00    -0.203 F 
ATOM     13  C   UNL     1       9.417   1.825  24.566  0.00  0.00    +0.040 A 
ATOM     14  C   UNL     1      10.414   1.372  23.709  0.00  0.00    +0.004 A 
ATOM     15  C   UNL     1      10.535   0.003  23.462  0.00  0.00    +0.022 A 
ATOM     16  C   UNL     1       9.642  -0.902  24.049  0.00  0.00    +0.065 A 
ATOM     17 CL   UNL     1      10.022  -2.584  23.847  0.00  0.00    -0.082 Cl
ENDBRANCH   8  10
ENDBRANCH   5   8
BRANCH   4  18
ATOM     18  C   UNL     1       7.062  -3.909  26.518  0.00  0.00    +0.157 C 
BRANCH  18  19
ATOM     19  C   UNL     1       8.143  -4.929  26.797  0.00  0.00    +0.309 C 
ATOM     20  O   UNL     1       9.265  -4.815  26.315  0.00  0.00    -0.251 OA
BRANCH  19  21
ATOM     21  O   UNL     1       7.840  -5.966  27.599  0.00  0.00    -0.480 OA
ATOM     22  H   UNL     1       6.906  -6.259  27.552  0.00  0.00    +0.295 HD
ENDBRANCH  19  21
ENDBRANCH  18  19
ENDBRANCH   4  18
TORSDOF 5
ENDMDL
MODEL 9
REMARK VINA RESULT:      -6.1      2.323      2.577
REMARK  Name = 
REMARK  6 active torsions:
REMARK  status: ('A' for Active; 'I' for Inactive)
REMARK    1  A    between atoms: C_1  and  C_2
REMARK    2  A    between atoms: C_5  and  N_6
REMARK    3  A    between atoms: N_6  and  C_7
REMARK    4  A    between atoms: C_15  and  C_16
REMARK    5  A    between atoms: C_16  and  C_17
REMARK    6  A    between atoms: C_17  and  O_18
REMARK                            x       y       z     vdW  Elec       q    Type
REMARK                         _______ _______ _______ _____ _____    ______ ____
ROOT
ATOM      1  C   UNL     1       3.702  -3.323  24.848  0.00  0.00    +0.044 C 
ATOM      2  C   UNL     1       5.117  -2.868  25.052  0.00  0.00    -0.050 A 
ATOM      3  C   UNL     1       6.176  -3.770  24.882  0.00  0.00    +0.009 A 
ATOM      4  C   UNL     1       7.515  -3.333  24.896  0.00  0.00    -0.015 A 
ATOM      5  C   UNL     1       7.774  -1.959  25.083  0.00  0.00    +0.035 A 
ATOM      6  C   UNL     1       6.716  -1.107  25.422  0.00  0.00    +0.024 A 
ATOM      7  C   UNL     1       5.397  -1.548  25.388  0.00  0.00    +0.005 A 
ENDROOT
BRANCH   5   8
ATOM      8  N   UNL     1       9.066  -1.446  24.807  0.00  0.00    -0.311 N 
ATOM      9  H   UNL     1       9.618  -1.307  25.649  0.00  0.00    +0.152 HD
BRANCH   8  10
ATOM     10  C   UNL     1       9.399  -0.504  23.790  0.00  0.00    +0.086 A 
ATOM     11  C   UNL     1      10.148   0.626  24.149  0.00  0.00    +0.146 A 
ATOM     12  F   UNL     1      10.617   0.733  25.399  0.00  0.00    -0.203 F 
ATOM     13  C   UNL     1      10.399   1.663  23.248  0.00  0.00    +0.040 A 
ATOM     14  C   UNL     1       9.897   1.594  21.954  0.00  0.00    +0.004 A 
ATOM     15  C   UNL     1       9.211   0.447  21.545  0.00  0.00    +0.022 A 
ATOM     16  C   UNL     1       9.007  -0.610  22.441  0.00  0.00    +0.065 A 
ATOM     17 CL   UNL     1       8.341  -2.062  21.762  0.00  0.00    -0.082 Cl
ENDBRANCH   8  10
ENDBRANCH   5   8
BRANCH   4  18
ATOM     18  C   UNL     1       8.620  -4.340  24.665  0.00  0.00    +0.157 C 
BRANCH  18  19
ATOM     19  C   UNL     1       9.265  -5.002  25.863  0.00  0.00    +0.309 C 
ATOM     20  O   UNL     1       9.053  -4.599  27.002  0.00  0.00    -0.251 OA
BRANCH  19  21
ATOM     21  O   UNL     1      10.074  -6.054  25.643  0.00  0.00    -0.480 OA
ATOM     22  H   UNL     1       9.662  -6.927  25.810  0.00  0.00    +0.295 HD
ENDBRANCH  19  21
ENDBRANCH  18  19
ENDBRANCH   4  18
TORSDOF 5
ENDMDL
