MODEL 1
REMARK VINA RESULT:      -5.1      0.000      0.000
REMARK  Name = 
REMARK  6 active torsions:
REMARK  status: ('A' for Active; 'I' for Inactive)
REMARK    1  A    between atoms: O_1  and  C_2
REMARK    2  A    between atoms: C_2  and  C_3
REMARK    3  A    between atoms: N_7  and  O_8
REMARK    4  A    between atoms: C_9  and  O_11
REMARK    5  A    between atoms: C_12  and  O_14
REMARK    6  A    between atoms: C_15  and  O_17
REMARK                            x       y       z     vdW  Elec       q    Type
REMARK                         _______ _______ _______ _____ _____    ______ ____
ROOT
ATOM      1  C   UNK     1       8.734   1.254  21.442  0.00  0.00    +0.221 C 
ATOM      2  C   UNK     1       8.798  -0.165  22.066  0.00  0.00    +0.191 C 
ATOM      3  C   UNK     1       9.267  -0.179  23.533  0.00  0.00    +0.187 C 
ATOM      4  C   UNK     1      10.569   0.610  23.734  0.00  0.00    +0.265 C 
ATOM      5  C   UNK     1      10.429   1.995  23.082  0.00  0.00    +0.365 C 
ATOM      6  N   UNK     1      10.809   3.050  23.745  0.00  0.00    +0.149 NA
ATOM      7  N   UNK     1       9.910   2.055  21.805  0.00  0.00    -0.224 N 
ATOM      8  H   UNK     1       9.850   3.031  21.520  0.00  0.00    +0.292 HD
ENDROOT
BRANCH   2   9
ATOM      9  O   UNK     1       9.689  -0.965  21.267  0.00  0.00    -0.385 OA
ATOM     10  H   UNK     1       9.435  -0.856  20.332  0.00  0.00    +0.210 HD
ENDBRANCH   2   9
BRANCH   3  11
ATOM     11  O   UNK     1       8.243   0.260  24.436  0.00  0.00    -0.386 OA
ATOM     12  H   UNK     1       7.382  -0.074  24.097  0.00  0.00    +0.210 HD
ENDBRANCH   3  11
BRANCH   4  13
ATOM     13  O   UNK     1      10.905   0.641  25.115  0.00  0.00    -0.378 OA
ATOM     14  H   UNK     1      10.049   0.663  25.584  0.00  0.00    +0.211 HD
ENDBRANCH   4  13
BRANCH   6  15
ATOM     15  O   UNK     1      10.582   4.218  22.998  0.00  0.00    -0.311 OA
ATOM     16  H   UNK     1      11.175   4.853  23.443  0.00  0.00    +0.361 HD
ENDBRANCH   6  15
BRANCH   1  17
ATOM     17  C   UNK     1       7.444   2.027  21.796  0.00  0.00    +0.205 C 
BRANCH  17  18
ATOM     18  O   UNK     1       6.426   1.172  22.315  0.00  0.00    -0.391 OA
ATOM     19  H   UNK     1       6.499   0.321  21.843  0.00  0.00    +0.210 HD
ENDBRANCH  17  18
ENDBRANCH   1  17
TORSDOF 6
ENDMDL
MODEL 2
REMARK VINA RESULT:      -4.8      2.130      3.539
REMARK  Name = 
REMARK  6 active torsions:
REMARK  status: ('A' for Active; 'I' for Inactive)
REMARK    1  A    between atoms: O_1  and  C_2
REMARK    2  A    between atoms: C_2  and  C_3
REMARK    3  A    between atoms: N_7  and  O_8
REMARK    4  A    between atoms: C_9  and  O_11
REMARK    5  A    between atoms: C_12  and  O_14
REMARK    6  A    between atoms: C_15  and  O_17
REMARK                            x       y       z     vdW  Elec       q    Type
REMARK                         _______ _______ _______ _____ _____    ______ ____
ROOT
ATOM      1  C   UNK     1       8.934   0.141  21.733  0.00  0.00    +0.221 C 
ATOM      2  C   UNK     1      10.102   1.018  22.257  0.00  0.00    +0.191 C 
ATOM      3  C   UNK     1      10.077   1.242  23.781  0.00  0.00    +0.187 C 
ATOM      4  C   UNK     1       8.707   1.730  24.274  0.00  0.00    +0.265 C 
ATOM      5  C   UNK     1       7.608   0.818  23.706  0.00  0.00    +0.365 C 
ATOM      6  N   UNK     1       6.671   0.382  24.499  0.00  0.00    +0.149 NA
ATOM      7  N   UNK     1       7.660   0.509  22.362  0.00  0.00    -0.224 N 
ATOM      8  H   UNK     1       6.892  -0.122  22.140  0.00  0.00    +0.292 HD
ENDROOT
BRANCH   2   9
ATOM      9  O   UNK     1      10.044   2.288  21.582  0.00  0.00    -0.385 OA
ATOM     10  H   UNK     1      10.948   2.650  21.544  0.00  0.00    +0.210 HD
ENDBRANCH   2   9
BRANCH   3  11
ATOM     11  O   UNK     1      10.514   0.085  24.507  0.00  0.00    -0.386 OA
ATOM     12  H   UNK     1      10.116   0.127  25.406  0.00  0.00    +0.210 HD
ENDBRANCH   3  11
BRANCH   4  13
ATOM     13  O   UNK     1       8.714   1.831  25.691  0.00  0.00    -0.378 OA
ATOM     14  H   UNK     1       9.635   2.050  25.927  0.00  0.00    +0.211 HD
ENDBRANCH   4  13
BRANCH   6  15
ATOM     15  O   UNK     1       5.777  -0.451  23.807  0.00  0.00    -0.311 OA
ATOM     16  H   UNK     1       6.105  -0.371  22.891  0.00  0.00    +0.361 HD
ENDBRANCH   6  15
BRANCH   1  17
ATOM     17  C   UNK     1       9.182  -1.376  21.895  0.00  0.00    +0.205 C 
BRANCH  17  18
ATOM     18  O   UNK     1      10.571  -1.696  21.950  0.00  0.00    -0.391 OA
ATOM     19  H   UNK     1      11.044  -0.994  21.465  0.00  0.00    +0.210 HD
ENDBRANCH  17  18
ENDBRANCH   1  17
TORSDOF 6
ENDMDL
MODEL 3
REMARK VINA RESULT:      -4.8      1.962      3.519
REMARK  Name = 
REMARK  6 active torsions:
REMARK  status: ('A' for Active; 'I' for Inactive)
REMARK    1  A    between atoms: O_1  and  C_2
REMARK    2  A    between atoms: C_2  and  C_3
REMARK    3  A    between atoms: N_7  and  O_8
REMARK    4  A    between atoms: C_9  and  O_11
REMARK    5  A    between atoms: C_12  and  O_14
REMARK    6  A    between atoms: C_15  and  O_17
REMARK                            x       y       z     vdW  Elec       q    Type
REMARK                         _______ _______ _______ _____ _____    ______ ____
ROOT
ATOM      1  C   UNK     1       8.594  -1.037  24.016  0.00  0.00    +0.221 C 
ATOM      2  C   UNK     1      10.104  -0.929  23.674  0.00  0.00    +0.191 C 
ATOM      3  C   UNK     1      10.516   0.440  23.098  0.00  0.00    +0.187 C 
ATOM      4  C   UNK     1       9.616   0.874  21.932  0.00  0.00    +0.265 C 
ATOM      5  C   UNK     1       8.142   0.730  22.346  0.00  0.00    +0.365 C 
ATOM      6  N   UNK     1       7.314   1.703  22.096  0.00  0.00    +0.149 NA
ATOM      7  N   UNK     1       7.760  -0.444  22.963  0.00  0.00    -0.224 N 
ATOM      8  H   UNK     1       6.772  -0.382  23.204  0.00  0.00    +0.292 HD
ENDROOT
BRANCH   2   9
ATOM      9  O   UNK     1      10.423  -1.965  22.727  0.00  0.00    -0.385 OA
ATOM     10  H   UNK     1       9.815  -1.878  21.970  0.00  0.00    +0.210 HD
ENDBRANCH   2   9
BRANCH   3  11
ATOM     11  O   UNK     1      10.590   1.454  24.110  0.00  0.00    -0.386 OA
ATOM     12  H   UNK     1      11.516   1.785  24.135  0.00  0.00    +0.210 HD
ENDBRANCH   3  11
BRANCH   4  13
ATOM     13  O   UNK     1       9.981   2.179  21.503  0.00  0.00    -0.378 OA
ATOM     14  H   UNK     1       9.368   2.388  20.773  0.00  0.00    +0.211 HD
ENDBRANCH   4  13
BRANCH   6  15
ATOM     15  O   UNK     1       6.026   1.397  22.566  0.00  0.00    -0.311 OA
ATOM     16  H   UNK     1       5.989   0.433  22.420  0.00  0.00    +0.361 HD
ENDBRANCH   6  15
BRANCH   1  17
ATOM     17  C   UNK     1       8.227  -0.422  25.385  0.00  0.00    +0.205 C 
BRANCH  17  18
ATOM     18  O   UNK     1       9.363  -0.277  26.237  0.00  0.00    -0.391 OA
ATOM     19  H   UNK     1      10.051  -0.881  25.899  0.00  0.00    +0.210 HD
ENDBRANCH  17  18
ENDBRANCH   1  17
TORSDOF 6
ENDMDL
MODEL 4
REMARK VINA RESULT:      -4.8      6.421      7.714
REMARK  Name = 
REMARK  6 active torsions:
REMARK  status: ('A' for Active; 'I' for Inactive)
REMARK    1  A    between atoms: O_1  and  C_2
REMARK    2  A    between atoms: C_2  and  C_3
REMARK    3  A    between atoms: N_7  and  O_8
REMARK    4  A    between atoms: C_9  and  O_11
REMARK    5  A    between atoms: C_12  and  O_14
REMARK    6  A    between atoms: C_15  and  O_17
REMARK                            x       y       z     vdW  Elec       q    Type
REMARK                         _______ _______ _______ _____ _____    ______ ____
ROOT
ATOM      1  C   UNK     1       7.039  -4.511  23.283  0.00  0.00    +0.221 C 
ATOM      2  C   UNK     1       8.362  -3.938  23.857  0.00  0.00    +0.191 C 
ATOM      3  C   UNK     1       8.881  -4.692  25.097  0.00  0.00    +0.187 C 
ATOM      4  C   UNK     1       7.797  -4.859  26.171  0.00  0.00    +0.265 C 
ATOM      5  C   UNK     1       6.521  -5.420  25.523  0.00  0.00    +0.365 C 
ATOM      6  N   UNK     1       5.897  -6.408  26.099  0.00  0.00    +0.149 NA
ATOM      7  N   UNK     1       6.085  -4.837  24.350  0.00  0.00    -0.224 N 
ATOM      8  H   UNK     1       5.255  -5.330  24.027  0.00  0.00    +0.292 HD
ENDROOT
BRANCH   2   9
ATOM      9  O   UNK     1       8.142  -2.555  24.192  0.00  0.00    -0.385 OA
ATOM     10  H   UNK     1       7.353  -2.251  23.708  0.00  0.00    +0.210 HD
ENDBRANCH   2   9
BRANCH   3  11
ATOM     11  O   UNK     1       9.480  -5.950  24.755  0.00  0.00    -0.386 OA
ATOM     12  H   UNK     1       9.897  -6.314  25.568  0.00  0.00    +0.210 HD
ENDBRANCH   3  11
BRANCH   4  13
ATOM     13  O   UNK     1       8.302  -5.639  27.247  0.00  0.00    -0.378 OA
ATOM     14  H   UNK     1       9.193  -5.282  27.424  0.00  0.00    +0.211 HD
ENDBRANCH   4  13
BRANCH   6  15
ATOM     15  O   UNK     1       4.774  -6.795  25.350  0.00  0.00    -0.311 OA
ATOM     16  H   UNK     1       5.152  -7.487  24.774  0.00  0.00    +0.361 HD
ENDBRANCH   6  15
BRANCH   1  17
ATOM     17  C   UNK     1       7.245  -5.740  22.370  0.00  0.00    +0.205 C 
BRANCH  17  18
ATOM     18  O   UNK     1       6.102  -6.592  22.341  0.00  0.00    -0.391 OA
ATOM     19  H   UNK     1       6.413  -7.479  22.077  0.00  0.00    +0.210 HD
ENDBRANCH  17  18
ENDBRANCH   1  17
TORSDOF 6
ENDMDL
MODEL 5
REMARK VINA RESULT:      -4.7      1.926      2.601
REMARK  Name = 
REMARK  6 active torsions:
REMARK  status: ('A' for Active; 'I' for Inactive)
REMARK    1  A    between atoms: O_1  and  C_2
REMARK    2  A    between atoms: C_2  and  C_3
REMARK    3  A    between atoms: N_7  and  O_8
REMARK    4  A    between atoms: C_9  and  O_11
REMARK    5  A    between atoms: C_12  and  O_14
REMARK    6  A    between atoms: C_15  and  O_17
REMARK                            x       y       z     vdW  Elec       q    Type
REMARK                         _______ _______ _______ _____ _____    ______ ____
ROOT
ATOM      1  C   UNK     1       8.326  -1.852  22.742  0.00  0.00    +0.221 C 
ATOM      2  C   UNK     1       9.137  -2.102  24.042  0.00  0.00    +0.191 C 
ATOM      3  C   UNK     1       9.726  -0.821  24.664  0.00  0.00    +0.187 C 
ATOM      4  C   UNK     1      10.501   0.019  23.639  0.00  0.00    +0.265 C 
ATOM      5  C   UNK     1       9.638   0.213  22.382  0.00  0.00    +0.365 C 
ATOM      6  N   UNK     1       9.539   1.401  21.857  0.00  0.00    +0.149 NA
ATOM      7  N   UNK     1       9.006  -0.897  21.859  0.00  0.00    -0.224 N 
ATOM      8  H   UNK     1       8.452  -0.610  21.054  0.00  0.00    +0.292 HD
ENDROOT
BRANCH   2   9
ATOM      9  O   UNK     1      10.201  -3.021  23.735  0.00  0.00    -0.385 OA
ATOM     10  H   UNK     1      11.024  -2.509  23.645  0.00  0.00    +0.210 HD
ENDBRANCH   2   9
BRANCH   3  11
ATOM     11  O   UNK     1       8.731  -0.038  25.339  0.00  0.00    -0.386 OA
ATOM     12  H   UNK     1       8.042  -0.654  25.676  0.00  0.00    +0.210 HD
ENDBRANCH   3  11
BRANCH   4  13
ATOM     13  O   UNK     1      10.942   1.228  24.243  0.00  0.00    -0.378 OA
ATOM     14  H   UNK     1      10.143   1.617  24.647  0.00  0.00    +0.211 HD
ENDBRANCH   4  13
BRANCH   6  15
ATOM     15  O   UNK     1       8.693   1.382  20.735  0.00  0.00    -0.311 OA
ATOM     16  H   UNK     1       8.842   2.272  20.363  0.00  0.00    +0.361 HD
ENDBRANCH   6  15
BRANCH   1  17
ATOM     17  C   UNK     1       6.875  -1.386  23.001  0.00  0.00    +0.205 C 
BRANCH  17  18
ATOM     18  O   UNK     1       6.730   0.028  22.881  0.00  0.00    -0.391 OA
ATOM     19  H   UNK     1       7.523   0.358  22.418  0.00  0.00    +0.210 HD
ENDBRANCH  17  18
ENDBRANCH   1  17
TORSDOF 6
ENDMDL
MODEL 6
REMARK VINA RESULT:      -4.7      2.509      4.047
REMARK  Name = 
REMARK  6 active torsions:
REMARK  status: ('A' for Active; 'I' for Inactive)
REMARK    1  A    between atoms: O_1  and  C_2
REMARK    2  A    between atoms: C_2  and  C_3
REMARK    3  A    between atoms: N_7  and  O_8
REMARK    4  A    between atoms: C_9  and  O_11
REMARK    5  A    between atoms: C_12  and  O_14
REMARK    6  A    between atoms: C_15  and  O_17
REMARK                            x       y       z     vdW  Elec       q    Type
REMARK                         _______ _______ _______ _____ _____    ______ ____
ROOT
ATOM      1  C   UNK     1       9.096   0.840  23.406  0.00  0.00    +0.221 C 
ATOM      2  C   UNK     1      10.494   0.230  23.694  0.00  0.00    +0.191 C 
ATOM      3  C   UNK     1      10.572  -1.290  23.451  0.00  0.00    +0.187 C 
ATOM      4  C   UNK     1       9.441  -2.050  24.158  0.00  0.00    +0.265 C 
ATOM      5  C   UNK     1       8.096  -1.381  23.831  0.00  0.00    +0.365 C 
ATOM      6  N   UNK     1       7.085  -2.124  23.481  0.00  0.00    +0.149 NA
ATOM      7  N   UNK     1       8.020  -0.006  23.935  0.00  0.00    -0.224 N 
ATOM      8  H   UNK     1       7.086   0.292  23.661  0.00  0.00    +0.292 HD
ENDROOT
BRANCH   2   9
ATOM      9  O   UNK     1      10.833   0.516  25.064  0.00  0.00    -0.385 OA
ATOM     10  H   UNK     1      11.706   0.948  25.073  0.00  0.00    +0.210 HD
ENDBRANCH   2   9
BRANCH   3  11
ATOM     11  O   UNK     1      10.629  -1.614  22.055  0.00  0.00    -0.386 OA
ATOM     12  H   UNK     1      11.483  -2.071  21.888  0.00  0.00    +0.210 HD
ENDBRANCH   3  11
BRANCH   4  13
ATOM     13  O   UNK     1       9.507  -3.430  23.826  0.00  0.00    -0.378 OA
ATOM     14  H   UNK     1      10.255  -3.506  23.203  0.00  0.00    +0.211 HD
ENDBRANCH   4  13
BRANCH   6  15
ATOM     15  O   UNK     1       5.957  -1.334  23.201  0.00  0.00    -0.311 OA
ATOM     16  H   UNK     1       6.001  -1.268  22.229  0.00  0.00    +0.361 HD
ENDBRANCH   6  15
BRANCH   1  17
ATOM     17  C   UNK     1       8.848   1.131  21.909  0.00  0.00    +0.205 C 
BRANCH  17  18
ATOM     18  O   UNK     1       9.815   2.026  21.363  0.00  0.00    -0.391 OA
ATOM     19  H   UNK     1      10.161   1.611  20.550  0.00  0.00    +0.210 HD
ENDBRANCH  17  18
ENDBRANCH   1  17
TORSDOF 6
ENDMDL
MODEL 7
REMARK VINA RESULT:      -4.6      1.841      3.040
REMARK  Name = 
REMARK  6 active torsions:
REMARK  status: ('A' for Active; 'I' for Inactive)
REMARK    1  A    between atoms: O_1  and  C_2
REMARK    2  A    between atoms: C_2  and  C_3
REMARK    3  A    between atoms: N_7  and  O_8
REMARK    4  A    between atoms: C_9  and  O_11
REMARK    5  A    between atoms: C_12  and  O_14
REMARK    6  A    between atoms: C_15  and  O_17
REMARK                            x       y       z     vdW  Elec       q    Type
REMARK                         _______ _______ _______ _____ _____    ______ ____
ROOT
ATOM      1  C   UNK     1       7.441   0.479  24.070  0.00  0.00    +0.221 C 
ATOM      2  C   UNK     1       7.340  -1.057  23.868  0.00  0.00    +0.191 C 
ATOM      3  C   UNK     1       8.591  -1.683  23.223  0.00  0.00    +0.187 C 
ATOM      4  C   UNK     1       9.014  -0.948  21.943  0.00  0.00    +0.265 C 
ATOM      5  C   UNK     1       9.081   0.562  22.222  0.00  0.00    +0.365 C 
ATOM      6  N   UNK     1      10.116   1.238  21.811  0.00  0.00    +0.149 NA
ATOM      7  N   UNK     1       8.024   1.139  22.895  0.00  0.00    -0.224 N 
ATOM      8  H   UNK     1       8.223   2.128  23.032  0.00  0.00    +0.292 HD
ENDROOT
BRANCH   2   9
ATOM      9  O   UNK     1       6.189  -1.325  23.046  0.00  0.00    -0.385 OA
ATOM     10  H   UNK     1       6.290  -0.826  22.216  0.00  0.00    +0.210 HD
ENDBRANCH   2   9
BRANCH   3  11
ATOM     11  O   UNK     1       9.681  -1.795  24.148  0.00  0.00    -0.386 OA
ATOM     12  H   UNK     1      10.351  -2.396  23.751  0.00  0.00    +0.210 HD
ENDBRANCH   3  11
BRANCH   4  13
ATOM     13  O   UNK     1      10.221  -1.509  21.443  0.00  0.00    -0.378 OA
ATOM     14  H   UNK     1      10.621  -1.972  22.203  0.00  0.00    +0.211 HD
ENDBRANCH   4  13
BRANCH   6  15
ATOM     15  O   UNK     1      10.007   2.590  22.179  0.00  0.00    -0.311 OA
ATOM     16  H   UNK     1      10.400   2.582  23.072  0.00  0.00    +0.361 HD
ENDBRANCH   6  15
BRANCH   1  17
ATOM     17  C   UNK     1       8.221   0.884  25.340  0.00  0.00    +0.205 C 
BRANCH  17  18
ATOM     18  O   UNK     1       9.588   1.183  25.065  0.00  0.00    -0.391 OA
ATOM     19  H   UNK     1      10.027   0.339  24.847  0.00  0.00    +0.210 HD
ENDBRANCH  17  18
ENDBRANCH   1  17
TORSDOF 6
ENDMDL
MODEL 8
REMARK VINA RESULT:      -4.5      1.995      3.185
REMARK  Name = 
REMARK  6 active torsions:
REMARK  status: ('A' for Active; 'I' for Inactive)
REMARK    1  A    between atoms: O_1  and  C_2
REMARK    2  A    between atoms: C_2  and  C_3
REMARK    3  A    between atoms: N_7  and  O_8
REMARK    4  A    between atoms: C_9  and  O_11
REMARK    5  A    between atoms: C_12  and  O_14
REMARK    6  A    between atoms: C_15  and  O_17
REMARK                            x       y       z     vdW  Elec       q    Type
REMARK                         _______ _______ _______ _____ _____    ______ ____
ROOT
ATOM      1  C   UNK     1       7.476   0.979  22.667  0.00  0.00    +0.221 C 
ATOM      2  C   UNK     1       7.545   1.699  24.039  0.00  0.00    +0.191 C 
ATOM      3  C   UNK     1       8.949   1.696  24.674  0.00  0.00    +0.187 C 
ATOM      4  C   UNK     1       9.564   0.289  24.716  0.00  0.00    +0.265 C 
ATOM      5  C   UNK     1       9.448  -0.359  23.327  0.00  0.00    +0.365 C 
ATOM      6  N   UNK     1      10.485  -0.959  22.817  0.00  0.00    +0.149 NA
ATOM      7  N   UNK     1       8.231  -0.280  22.681  0.00  0.00    -0.224 N 
ATOM      8  H   UNK     1       8.315  -0.722  21.767  0.00  0.00    +0.292 HD
ENDROOT
BRANCH   2   9
ATOM      9  O   UNK     1       6.613   1.057  24.929  0.00  0.00    -0.385 OA
ATOM     10  H   UNK     1       7.123   0.604  25.623  0.00  0.00    +0.210 HD
ENDBRANCH   2   9
BRANCH   3  11
ATOM     11  O   UNK     1       9.832   2.635  24.046  0.00  0.00    -0.386 OA
ATOM     12  H   UNK     1      10.737   2.477  24.396  0.00  0.00    +0.210 HD
ENDBRANCH   3  11
BRANCH   4  13
ATOM     13  O   UNK     1      10.889   0.358  25.225  0.00  0.00    -0.378 OA
ATOM     14  H   UNK     1      11.368   0.943  24.608  0.00  0.00    +0.211 HD
ENDBRANCH   4  13
BRANCH   6  15
ATOM     15  O   UNK     1      10.193  -1.464  21.539  0.00  0.00    -0.311 OA
ATOM     16  H   UNK     1      10.291  -2.425  21.682  0.00  0.00    +0.361 HD
ENDBRANCH   6  15
BRANCH   1  17
ATOM     17  C   UNK     1       7.943   1.858  21.485  0.00  0.00    +0.205 C 
BRANCH  17  18
ATOM     18  O   UNK     1       9.293   1.590  21.110  0.00  0.00    -0.391 OA
ATOM     19  H   UNK     1       9.773   1.352  21.926  0.00  0.00    +0.210 HD
ENDBRANCH  17  18
ENDBRANCH   1  17
TORSDOF 6
ENDMDL
MODEL 9
REMARK VINA RESULT:      -4.5      4.983      6.097
REMARK  Name = 
REMARK  6 active torsions:
REMARK  status: ('A' for Active; 'I' for Inactive)
REMARK    1  A    between atoms: O_1  and  C_2
REMARK    2  A    between atoms: C_2  and  C_3
REMARK    3  A    between atoms: N_7  and  O_8
REMARK    4  A    between atoms: C_9  and  O_11
REMARK    5  A    between atoms: C_12  and  O_14
REMARK    6  A    between atoms: C_15  and  O_17
REMARK                            x       y       z     vdW  Elec       q    Type
REMARK                         _______ _______ _______ _____ _____    ______ ____
ROOT
ATOM      1  C   UNK     1       6.830  -3.006  25.540  0.00  0.00    +0.221 C 
ATOM      2  C   UNK     1       6.742  -4.479  26.017  0.00  0.00    +0.191 C 
ATOM      3  C   UNK     1       8.101  -5.204  26.057  0.00  0.00    +0.187 C 
ATOM      4  C   UNK     1       8.876  -5.058  24.739  0.00  0.00    +0.265 C 
ATOM      5  C   UNK     1       8.910  -3.576  24.331  0.00  0.00    +0.365 C 
ATOM      6  N   UNK     1      10.037  -3.050  23.943  0.00  0.00    +0.149 NA
ATOM      7  N   UNK     1       7.728  -2.866  24.386  0.00  0.00    -0.224 N 
ATOM      8  H   UNK     1       7.912  -1.901  24.119  0.00  0.00    +0.292 HD
ENDROOT
BRANCH   2   9
ATOM      9  O   UNK     1       5.847  -5.182  25.135  0.00  0.00    -0.385 OA
ATOM     10  H   UNK     1       5.194  -4.543  24.797  0.00  0.00    +0.210 HD
ENDBRANCH   2   9
BRANCH   3  11
ATOM     11  O   UNK     1       8.897  -4.803  27.181  0.00  0.00    -0.386 OA
ATOM     12  H   UNK     1       9.843  -4.901  26.928  0.00  0.00    +0.210 HD
ENDBRANCH   3  11
BRANCH   4  13
ATOM     13  O   UNK     1      10.155  -5.664  24.863  0.00  0.00    -0.378 OA
ATOM     14  H   UNK     1      10.339  -6.053  23.988  0.00  0.00    +0.211 HD
ENDBRANCH   4  13
BRANCH   6  15
ATOM     15  O   UNK     1       9.874  -1.689  23.636  0.00  0.00    -0.311 OA
ATOM     16  H   UNK     1       8.968  -1.523  23.960  0.00  0.00    +0.361 HD
ENDBRANCH   6  15
BRANCH   1  17
ATOM     17  C   UNK     1       7.250  -2.021  26.654  0.00  0.00    +0.205 C 
BRANCH  17  18
ATOM     18  O   UNK     1       8.641  -1.707  26.604  0.00  0.00    -0.391 OA
ATOM     19  H   UNK     1       8.924  -1.812  25.676  0.00  0.00    +0.210 HD
ENDBRANCH  17  18
ENDBRANCH   1  17
TORSDOF 6
ENDMDL
