MODEL 1
REMARK VINA RESULT:      -4.4      0.000      0.000
REMARK  Name = 
REMARK  2 active torsions:
REMARK  status: ('A' for Active; 'I' for Inactive)
REMARK    1  A    between atoms: C_1  and  C_2
REMARK    2  A    between atoms: C_5  and  O_6
REMARK                            x       y       z     vdW  Elec       q    Type
REMARK                         _______ _______ _______ _____ _____    ______ ____
ROOT
ATOM      1  C   UNL     1       9.786  -2.792  24.046  0.00  0.00    +0.044 C 
ATOM      2  C   UNL     1       9.825  -1.455  23.367  0.00  0.00    -0.050 A 
ATOM      3  C   UNL     1      10.283  -0.330  24.065  0.00  0.00    +0.007 A 
ATOM      4  C   UNL     1      10.343   0.915  23.437  0.00  0.00    +0.045 A 
ATOM      5  C   UNL     1       9.948   1.036  22.112  0.00  0.00    +0.117 A 
ATOM      6  C   UNL     1       9.485  -0.067  21.402  0.00  0.00    +0.045 A 
ATOM      7  C   UNL     1       9.426  -1.313  22.031  0.00  0.00    +0.007 A 
ENDROOT
BRANCH   5   8
ATOM      8  O   UNL     1      10.034   2.268  21.532  0.00  0.00    -0.507 OA
ATOM      9  H   UNL     1       9.539   2.900  22.078  0.00  0.00    +0.292 HD
ENDBRANCH   5   8
TORSDOF 1
ENDMDL
MODEL 2
REMARK VINA RESULT:      -4.4      0.050      1.709
REMARK  Name = 
REMARK  2 active torsions:
REMARK  status: ('A' for Active; 'I' for Inactive)
REMARK    1  A    between atoms: C_1  and  C_2
REMARK    2  A    between atoms: C_5  and  O_6
REMARK                            x       y       z     vdW  Elec       q    Type
REMARK                         _______ _______ _______ _____ _____    ______ ____
ROOT
ATOM      1  C   UNL     1       9.762  -2.801  24.043  0.00  0.00    +0.044 C 
ATOM      2  C   UNL     1       9.850  -1.453  23.388  0.00  0.00    -0.050 A 
ATOM      3  C   UNL     1       9.487  -1.305  22.043  0.00  0.00    +0.007 A 
ATOM      4  C   UNL     1       9.546  -0.054  21.429  0.00  0.00    +0.045 A 
ATOM      5  C   UNL     1       9.963   1.051  22.159  0.00  0.00    +0.117 A 
ATOM      6  C   UNL     1      10.333   0.925  23.494  0.00  0.00    +0.045 A 
ATOM      7  C   UNL     1      10.274  -0.328  24.108  0.00  0.00    +0.007 A 
ENDROOT
BRANCH   5   8
ATOM      8  O   UNL     1       9.994   2.258  21.525  0.00  0.00    -0.507 OA
ATOM      9  H   UNL     1      10.849   2.680  21.707  0.00  0.00    +0.292 HD
ENDBRANCH   5   8
TORSDOF 1
ENDMDL
MODEL 3
REMARK VINA RESULT:      -4.2      1.919      3.583
REMARK  Name = 
REMARK  2 active torsions:
REMARK  status: ('A' for Active; 'I' for Inactive)
REMARK    1  A    between atoms: C_1  and  C_2
REMARK    2  A    between atoms: C_5  and  O_6
REMARK                            x       y       z     vdW  Elec       q    Type
REMARK                         _______ _______ _______ _____ _____    ______ ____
ROOT
ATOM      1  C   UNL     1       9.688   3.565  23.836  0.00  0.00    +0.044 C 
ATOM      2  C   UNL     1       9.832   2.171  23.299  0.00  0.00    -0.050 A 
ATOM      3  C   UNL     1       9.334   1.858  22.027  0.00  0.00    +0.007 A 
ATOM      4  C   UNL     1       9.479   0.570  21.509  0.00  0.00    +0.045 A 
ATOM      5  C   UNL     1      10.126  -0.403  22.258  0.00  0.00    +0.117 A 
ATOM      6  C   UNL     1      10.624  -0.115  23.525  0.00  0.00    +0.045 A 
ATOM      7  C   UNL     1      10.478   1.175  24.043  0.00  0.00    +0.007 A 
ENDROOT
BRANCH   5   8
ATOM      8  O   UNL     1      10.259  -1.645  21.710  0.00  0.00    -0.507 OA
ATOM      9  H   UNL     1      10.861  -1.583  20.951  0.00  0.00    +0.292 HD
ENDBRANCH   5   8
TORSDOF 1
ENDMDL
MODEL 4
REMARK VINA RESULT:      -4.1      1.913      3.251
REMARK  Name = 
REMARK  2 active torsions:
REMARK  status: ('A' for Active; 'I' for Inactive)
REMARK    1  A    between atoms: C_1  and  C_2
REMARK    2  A    between atoms: C_5  and  O_6
REMARK                            x       y       z     vdW  Elec       q    Type
REMARK                         _______ _______ _______ _____ _____    ______ ____
ROOT
ATOM      1  C   UNL     1       9.829   3.495  23.765  0.00  0.00    +0.044 C 
ATOM      2  C   UNL     1       9.878   2.115  23.178  0.00  0.00    -0.050 A 
ATOM      3  C   UNL     1      10.511   1.080  23.878  0.00  0.00    +0.007 A 
ATOM      4  C   UNL     1      10.545  -0.212  23.351  0.00  0.00    +0.045 A 
ATOM      5  C   UNL     1       9.944  -0.471  22.126  0.00  0.00    +0.117 A 
ATOM      6  C   UNL     1       9.315   0.544  21.412  0.00  0.00    +0.045 A 
ATOM      7  C   UNL     1       9.281   1.837  21.941  0.00  0.00    +0.007 A 
ENDROOT
BRANCH   5   8
ATOM      8  O   UNL     1       9.989  -1.749  21.653  0.00  0.00    -0.507 OA
ATOM      9  H   UNL     1      10.524  -2.284  22.261  0.00  0.00    +0.292 HD
ENDBRANCH   5   8
TORSDOF 1
ENDMDL
MODEL 5
REMARK VINA RESULT:      -4.0      2.221      3.740
REMARK  Name = 
REMARK  2 active torsions:
REMARK  status: ('A' for Active; 'I' for Inactive)
REMARK    1  A    between atoms: C_1  and  C_2
REMARK    2  A    between atoms: C_5  and  O_6
REMARK                            x       y       z     vdW  Elec       q    Type
REMARK                         _______ _______ _______ _____ _____    ______ ____
ROOT
ATOM      1  C   UNL     1      10.055   2.161  22.167  0.00  0.00    +0.044 C 
ATOM      2  C   UNL     1       9.991   0.747  22.666  0.00  0.00    -0.050 A 
ATOM      3  C   UNL     1       9.851  -0.309  21.756  0.00  0.00    +0.007 A 
ATOM      4  C   UNL     1       9.811  -1.629  22.207  0.00  0.00    +0.045 A 
ATOM      5  C   UNL     1       9.914  -1.895  23.566  0.00  0.00    +0.117 A 
ATOM      6  C   UNL     1      10.049  -0.861  24.487  0.00  0.00    +0.045 A 
ATOM      7  C   UNL     1      10.089   0.461  24.034  0.00  0.00    +0.007 A 
ENDROOT
BRANCH   5   8
ATOM      8  O   UNL     1       9.883  -3.199  23.963  0.00  0.00    -0.507 OA
ATOM      9  H   UNL     1       9.177  -3.304  24.622  0.00  0.00    +0.292 HD
ENDBRANCH   5   8
TORSDOF 1
ENDMDL
MODEL 6
REMARK VINA RESULT:      -3.7      1.211      1.499
REMARK  Name = 
REMARK  2 active torsions:
REMARK  status: ('A' for Active; 'I' for Inactive)
REMARK    1  A    between atoms: C_1  and  C_2
REMARK    2  A    between atoms: C_5  and  O_6
REMARK                            x       y       z     vdW  Elec       q    Type
REMARK                         _______ _______ _______ _____ _____    ______ ____
ROOT
ATOM      1  C   UNL     1       9.489  -1.858  23.506  0.00  0.00    +0.044 C 
ATOM      2  C   UNL     1       9.666  -0.378  23.339  0.00  0.00    -0.050 A 
ATOM      3  C   UNL     1       9.693   0.454  24.467  0.00  0.00    +0.007 A 
ATOM      4  C   UNL     1       9.877   1.830  24.327  0.00  0.00    +0.045 A 
ATOM      5  C   UNL     1      10.037   2.376  23.060  0.00  0.00    +0.117 A 
ATOM      6  C   UNL     1      10.009   1.569  21.927  0.00  0.00    +0.045 A 
ATOM      7  C   UNL     1       9.825   0.191  22.069  0.00  0.00    +0.007 A 
ENDROOT
BRANCH   5   8
ATOM      8  O   UNL     1      10.227   3.723  22.968  0.00  0.00    -0.507 OA
ATOM      9  H   UNL     1      10.182   4.102  23.861  0.00  0.00    +0.292 HD
ENDBRANCH   5   8
TORSDOF 1
ENDMDL
MODEL 7
REMARK VINA RESULT:      -3.7      2.063      2.791
REMARK  Name = 
REMARK  2 active torsions:
REMARK  status: ('A' for Active; 'I' for Inactive)
REMARK    1  A    between atoms: C_1  and  C_2
REMARK    2  A    between atoms: C_5  and  O_6
REMARK                            x       y       z     vdW  Elec       q    Type
REMARK                         _______ _______ _______ _____ _____    ______ ____
ROOT
ATOM      1  C   UNL     1       8.684  -0.768  26.925  0.00  0.00    +0.044 C 
ATOM      2  C   UNL     1       9.132  -1.003  25.512  0.00  0.00    -0.050 A 
ATOM      3  C   UNL     1       9.884  -0.027  24.846  0.00  0.00    +0.007 A 
ATOM      4  C   UNL     1      10.324  -0.243  23.540  0.00  0.00    +0.045 A 
ATOM      5  C   UNL     1      10.015  -1.435  22.899  0.00  0.00    +0.117 A 
ATOM      6  C   UNL     1       9.265  -2.416  23.540  0.00  0.00    +0.045 A 
ATOM      7  C   UNL     1       8.826  -2.199  24.849  0.00  0.00    +0.007 A 
ENDROOT
BRANCH   5   8
ATOM      8  O   UNL     1      10.475  -1.612  21.627  0.00  0.00    -0.507 OA
ATOM      9  H   UNL     1       9.868  -1.163  21.016  0.00  0.00    +0.292 HD
ENDBRANCH   5   8
TORSDOF 1
ENDMDL
MODEL 8
REMARK VINA RESULT:      -3.7      2.494      3.592
REMARK  Name = 
REMARK  2 active torsions:
REMARK  status: ('A' for Active; 'I' for Inactive)
REMARK    1  A    between atoms: C_1  and  C_2
REMARK    2  A    between atoms: C_5  and  O_6
REMARK                            x       y       z     vdW  Elec       q    Type
REMARK                         _______ _______ _______ _____ _____    ______ ____
ROOT
ATOM      1  C   UNL     1       6.402   2.404  22.763  0.00  0.00    +0.044 C 
ATOM      2  C   UNL     1       7.426   1.346  22.472  0.00  0.00    -0.050 A 
ATOM      3  C   UNL     1       7.212   0.030  22.904  0.00  0.00    +0.007 A 
ATOM      4  C   UNL     1       8.148  -0.967  22.622  0.00  0.00    +0.045 A 
ATOM      5  C   UNL     1       9.294  -0.651  21.906  0.00  0.00    +0.117 A 
ATOM      6  C   UNL     1       9.528   0.650  21.472  0.00  0.00    +0.045 A 
ATOM      7  C   UNL     1       8.591   1.648  21.755  0.00  0.00    +0.007 A 
ENDROOT
BRANCH   5   8
ATOM      8  O   UNL     1      10.176  -1.657  21.641  0.00  0.00    -0.507 OA
ATOM      9  H   UNL     1      10.328  -1.688  20.682  0.00  0.00    +0.292 HD
ENDBRANCH   5   8
TORSDOF 1
ENDMDL
MODEL 9
REMARK VINA RESULT:      -3.6      6.015      6.955
REMARK  Name = 
REMARK  2 active torsions:
REMARK  status: ('A' for Active; 'I' for Inactive)
REMARK    1  A    between atoms: C_1  and  C_2
REMARK    2  A    between atoms: C_5  and  O_6
REMARK                            x       y       z     vdW  Elec       q    Type
REMARK                         _______ _______ _______ _____ _____    ______ ____
ROOT
ATOM      1  C   UNL     1       6.661  -4.896  22.188  0.00  0.00    +0.044 C 
ATOM      2  C   UNL     1       6.972  -5.101  23.641  0.00  0.00    -0.050 A 
ATOM      3  C   UNL     1       5.944  -5.421  24.538  0.00  0.00    +0.007 A 
ATOM      4  C   UNL     1       6.225  -5.633  25.888  0.00  0.00    +0.045 A 
ATOM      5  C   UNL     1       7.532  -5.528  26.343  0.00  0.00    +0.117 A 
ATOM      6  C   UNL     1       8.567  -5.206  25.471  0.00  0.00    +0.045 A 
ATOM      7  C   UNL     1       8.285  -4.994  24.119  0.00  0.00    +0.007 A 
ENDROOT
BRANCH   5   8
ATOM      8  O   UNL     1       7.765  -5.755  27.668  0.00  0.00    -0.507 OA
ATOM      9  H   UNL     1       6.958  -5.540  28.163  0.00  0.00    +0.292 HD
ENDBRANCH   5   8
TORSDOF 1
ENDMDL
