MODEL 1
REMARK VINA RESULT:      -7.1      0.000      0.000
REMARK  Name = 
REMARK  9 active torsions:
REMARK  status: ('A' for Active; 'I' for Inactive)
REMARK    1  A    between atoms: O_1  and  C_2
REMARK    2  A    between atoms: C_2  and  C_3
REMARK    3  A    between atoms: C_3  and  N_4
REMARK    4  A    between atoms: N_4  and  C_5
REMARK    5  A    between atoms: N_4  and  S_10
REMARK    6  A    between atoms: C_5  and  C_6
REMARK    7  A    between atoms: N_8  and  O_9
REMARK    8  A    between atoms: S_10  and  C_13
REMARK    9  A    between atoms: C_16  and  C_19
REMARK                            x       y       z     vdW  Elec       q    Type
REMARK                         _______ _______ _______ _____ _____    ______ ____
ROOT
ATOM      1  S   UNL     1       9.138  -2.535  23.414  0.00  0.00    +0.061 S 
ATOM      2  O   UNL     1       8.477  -2.821  22.159  0.00  0.00    -0.153 OA
ATOM      3  O   UNL     1      10.355  -3.207  23.817  0.00  0.00    -0.153 OA
ENDROOT
BRANCH   1   4
ATOM      4  C   UNL     1       9.528  -0.789  23.422  0.00  0.00    +0.106 A 
ATOM      5  C   UNL     1       9.320  -0.002  22.291  0.00  0.00    +0.029 A 
ATOM      6  C   UNL     1       9.674   1.355  22.317  0.00  0.00    +0.010 A 
ATOM      7  C   UNL     1      10.237   1.960  23.462  0.00  0.00    -0.018 A 
ATOM      8  C   UNL     1      10.500   1.114  24.559  0.00  0.00    +0.010 A 
ATOM      9  C   UNL     1      10.155  -0.243  24.541  0.00  0.00    +0.029 A 
BRANCH   7  10
ATOM     10  C   UNL     1      10.483   3.425  23.548  0.00  0.00    -0.018 A 
ATOM     11  C   UNL     1       9.455   4.315  23.911  0.00  0.00    +0.008 A 
ATOM     12  C   UNL     1       9.695   5.680  24.102  0.00  0.00    +0.001 A 
ATOM     13  C   UNL     1      10.976   6.194  23.934  0.00  0.00    +0.000 A 
ATOM     14  C   UNL     1      12.009   5.346  23.551  0.00  0.00    +0.001 A 
ATOM     15  C   UNL     1      11.762   3.983  23.348  0.00  0.00    +0.008 A 
ENDBRANCH   7  10
ENDBRANCH   1   4
BRANCH   1  16
ATOM     16  N   UNL     1       7.978  -2.665  24.689  0.00  0.00    -0.166 NA
BRANCH  16  17
ATOM     17  C   UNL     1       6.844  -1.685  24.575  0.00  0.00    +0.137 C 
BRANCH  17  18
ATOM     18  C   UNL     1       5.544  -2.288  24.024  0.00  0.00    +0.173 C 
BRANCH  18  19
ATOM     19  O   UNL     1       5.569  -2.403  22.595  0.00  0.00    -0.394 OA
ATOM     20  H   UNL     1       4.892  -3.070  22.369  0.00  0.00    +0.209 HD
ENDBRANCH  18  19
ENDBRANCH  17  18
ENDBRANCH  16  17
BRANCH  16  21
ATOM     21  C   UNL     1       7.562  -4.074  24.950  0.00  0.00    +0.207 C 
BRANCH  21  22
ATOM     22  C   UNL     1       7.982  -4.658  26.290  0.00  0.00    +0.251 C 
ATOM     23  N   UNL     1       7.116  -5.606  26.794  0.00  0.00    -0.196 N 
ATOM     24  H   UNL     1       6.661  -6.234  26.130  0.00  0.00    +0.182 HD
ATOM     25  O   UNL     1       8.992  -4.328  26.901  0.00  0.00    -0.272 OA
BRANCH  23  26
ATOM     26  O   UNL     1       7.550  -6.202  28.008  0.00  0.00    -0.295 OA
ATOM     27  H   UNL     1       6.730  -6.197  28.551  0.00  0.00    +0.241 HD
ENDBRANCH  23  26
ENDBRANCH  21  22
ENDBRANCH  16  21
ENDBRANCH   1  16
TORSDOF 9
ENDMDL
MODEL 2
REMARK VINA RESULT:      -6.8      2.593      4.148
REMARK  Name = 
REMARK  9 active torsions:
REMARK  status: ('A' for Active; 'I' for Inactive)
REMARK    1  A    between atoms: O_1  and  C_2
REMARK    2  A    between atoms: C_2  and  C_3
REMARK    3  A    between atoms: C_3  and  N_4
REMARK    4  A    between atoms: N_4  and  C_5
REMARK    5  A    between atoms: N_4  and  S_10
REMARK    6  A    between atoms: C_5  and  C_6
REMARK    7  A    between atoms: N_8  and  O_9
REMARK    8  A    between atoms: S_10  and  C_13
REMARK    9  A    between atoms: C_16  and  C_19
REMARK                            x       y       z     vdW  Elec       q    Type
REMARK                         _______ _______ _______ _____ _____    ______ ____
ROOT
ATOM      1  S   UNL     1       5.403  -5.126  23.354  0.00  0.00    +0.061 S 
ATOM      2  O   UNL     1       4.201  -4.847  22.599  0.00  0.00    -0.153 OA
ATOM      3  O   UNL     1       6.280  -6.231  23.029  0.00  0.00    -0.153 OA
ENDROOT
BRANCH   1   4
ATOM      4  C   UNL     1       6.427  -3.662  23.282  0.00  0.00    +0.106 A 
ATOM      5  C   UNL     1       5.861  -2.388  23.283  0.00  0.00    +0.029 A 
ATOM      6  C   UNL     1       6.689  -1.262  23.184  0.00  0.00    +0.010 A 
ATOM      7  C   UNL     1       8.094  -1.372  23.086  0.00  0.00    -0.018 A 
ATOM      8  C   UNL     1       8.622  -2.676  23.014  0.00  0.00    +0.010 A 
ATOM      9  C   UNL     1       7.803  -3.808  23.106  0.00  0.00    +0.029 A 
BRANCH   7  10
ATOM     10  C   UNL     1       8.989  -0.183  23.125  0.00  0.00    -0.018 A 
ATOM     11  C   UNL     1       9.249   0.569  21.965  0.00  0.00    +0.008 A 
ATOM     12  C   UNL     1      10.000   1.750  22.004  0.00  0.00    +0.001 A 
ATOM     13  C   UNL     1      10.510   2.212  23.211  0.00  0.00    +0.000 A 
ATOM     14  C   UNL     1      10.292   1.479  24.372  0.00  0.00    +0.001 A 
ATOM     15  C   UNL     1       9.553   0.291  24.327  0.00  0.00    +0.008 A 
ENDBRANCH   7  10
ENDBRANCH   1   4
BRANCH   1  16
ATOM     16  N   UNL     1       4.991  -5.212  25.031  0.00  0.00    -0.166 NA
BRANCH  16  17
ATOM     17  C   UNL     1       3.570  -5.633  25.283  0.00  0.00    +0.137 C 
BRANCH  17  18
ATOM     18  C   UNL     1       3.354  -7.154  25.275  0.00  0.00    +0.173 C 
BRANCH  18  19
ATOM     19  O   UNL     1       3.679  -7.736  24.005  0.00  0.00    -0.394 OA
ATOM     20  H   UNL     1       4.183  -8.549  24.206  0.00  0.00    +0.209 HD
ENDBRANCH  18  19
ENDBRANCH  17  18
ENDBRANCH  16  17
BRANCH  16  21
ATOM     21  C   UNL     1       6.011  -5.941  25.840  0.00  0.00    +0.207 C 
BRANCH  21  22
ATOM     22  C   UNL     1       7.100  -5.086  26.470  0.00  0.00    +0.251 C 
ATOM     23  N   UNL     1       8.337  -5.693  26.528  0.00  0.00    -0.196 N 
ATOM     24  H   UNL     1       8.606  -6.298  25.750  0.00  0.00    +0.182 HD
ATOM     25  O   UNL     1       6.923  -3.955  26.908  0.00  0.00    -0.272 OA
BRANCH  23  26
ATOM     26  O   UNL     1       9.367  -4.865  27.047  0.00  0.00    -0.295 OA
ATOM     27  H   UNL     1       9.791  -4.517  26.230  0.00  0.00    +0.241 HD
ENDBRANCH  23  26
ENDBRANCH  21  22
ENDBRANCH  16  21
ENDBRANCH   1  16
TORSDOF 9
ENDMDL
MODEL 3
REMARK VINA RESULT:      -6.7      2.264      3.915
REMARK  Name = 
REMARK  9 active torsions:
REMARK  status: ('A' for Active; 'I' for Inactive)
REMARK    1  A    between atoms: O_1  and  C_2
REMARK    2  A    between atoms: C_2  and  C_3
REMARK    3  A    between atoms: C_3  and  N_4
REMARK    4  A    between atoms: N_4  and  C_5
REMARK    5  A    between atoms: N_4  and  S_10
REMARK    6  A    between atoms: C_5  and  C_6
REMARK    7  A    between atoms: N_8  and  O_9
REMARK    8  A    between atoms: S_10  and  C_13
REMARK    9  A    between atoms: C_16  and  C_19
REMARK                            x       y       z     vdW  Elec       q    Type
REMARK                         _______ _______ _______ _____ _____    ______ ____
ROOT
ATOM      1  S   UNL     1       8.490  -4.882  25.643  0.00  0.00    +0.061 S 
ATOM      2  O   UNL     1       9.430  -5.644  24.850  0.00  0.00    -0.153 OA
ATOM      3  O   UNL     1       8.420  -5.001  27.084  0.00  0.00    -0.153 OA
ENDROOT
BRANCH   1   4
ATOM      4  C   UNL     1       8.803  -3.151  25.318  0.00  0.00    +0.106 A 
ATOM      5  C   UNL     1       9.516  -2.750  24.189  0.00  0.00    +0.029 A 
ATOM      6  C   UNL     1       9.780  -1.388  23.985  0.00  0.00    +0.010 A 
ATOM      7  C   UNL     1       9.341  -0.396  24.890  0.00  0.00    -0.018 A 
ATOM      8  C   UNL     1       8.689  -0.848  26.055  0.00  0.00    +0.010 A 
ATOM      9  C   UNL     1       8.426  -2.206  26.271  0.00  0.00    +0.029 A 
BRANCH   7  10
ATOM     10  C   UNL     1       9.491   1.058  24.610  0.00  0.00    -0.018 A 
ATOM     11  C   UNL     1      10.594   1.549  23.887  0.00  0.00    +0.008 A 
ATOM     12  C   UNL     1      10.695   2.896  23.522  0.00  0.00    +0.001 A 
ATOM     13  C   UNL     1       9.691   3.791  23.872  0.00  0.00    +0.000 A 
ATOM     14  C   UNL     1       8.601   3.343  24.608  0.00  0.00    +0.001 A 
ATOM     15  C   UNL     1       8.509   1.998  24.983  0.00  0.00    +0.008 A 
ENDBRANCH   7  10
ENDBRANCH   1   4
BRANCH   1  16
ATOM     16  N   UNL     1       6.907  -5.105  24.985  0.00  0.00    -0.166 NA
BRANCH  16  17
ATOM     17  C   UNL     1       5.820  -4.454  25.793  0.00  0.00    +0.137 C 
BRANCH  17  18
ATOM     18  C   UNL     1       4.992  -5.432  26.640  0.00  0.00    +0.173 C 
BRANCH  18  19
ATOM     19  O   UNL     1       5.706  -6.647  26.908  0.00  0.00    -0.394 OA
ATOM     20  H   UNL     1       5.159  -7.365  26.535  0.00  0.00    +0.209 HD
ENDBRANCH  18  19
ENDBRANCH  17  18
ENDBRANCH  16  17
BRANCH  16  21
ATOM     21  C   UNL     1       6.846  -4.831  23.520  0.00  0.00    +0.207 C 
BRANCH  21  22
ATOM     22  C   UNL     1       5.484  -5.000  22.864  0.00  0.00    +0.251 C 
ATOM     23  N   UNL     1       4.982  -6.284  22.918  0.00  0.00    -0.196 N 
ATOM     24  H   UNL     1       5.170  -6.832  23.759  0.00  0.00    +0.182 HD
ATOM     25  O   UNL     1       4.863  -4.095  22.317  0.00  0.00    -0.272 OA
BRANCH  23  26
ATOM     26  O   UNL     1       3.678  -6.422  22.372  0.00  0.00    -0.295 OA
ATOM     27  H   UNL     1       3.484  -7.373  22.527  0.00  0.00    +0.241 HD
ENDBRANCH  23  26
ENDBRANCH  21  22
ENDBRANCH  16  21
ENDBRANCH   1  16
TORSDOF 9
ENDMDL
MODEL 4
REMARK VINA RESULT:      -6.7      1.914      2.586
REMARK  Name = 
REMARK  9 active torsions:
REMARK  status: ('A' for Active; 'I' for Inactive)
REMARK    1  A    between atoms: O_1  and  C_2
REMARK    2  A    between atoms: C_2  and  C_3
REMARK    3  A    between atoms: C_3  and  N_4
REMARK    4  A    between atoms: N_4  and  C_5
REMARK    5  A    between atoms: N_4  and  S_10
REMARK    6  A    between atoms: C_5  and  C_6
REMARK    7  A    between atoms: N_8  and  O_9
REMARK    8  A    between atoms: S_10  and  C_13
REMARK    9  A    between atoms: C_16  and  C_19
REMARK                            x       y       z     vdW  Elec       q    Type
REMARK                         _______ _______ _______ _____ _____    ______ ____
ROOT
ATOM      1  S   UNL     1       9.014  -2.190  22.997  0.00  0.00    +0.061 S 
ATOM      2  O   UNL     1       8.730  -2.445  21.601  0.00  0.00    -0.153 OA
ATOM      3  O   UNL     1      10.010  -2.939  23.732  0.00  0.00    -0.153 OA
ENDROOT
BRANCH   1   4
ATOM      4  C   UNL     1       9.503  -0.475  23.134  0.00  0.00    +0.106 A 
ATOM      5  C   UNL     1       9.557   0.348  22.011  0.00  0.00    +0.029 A 
ATOM      6  C   UNL     1       9.985   1.677  22.146  0.00  0.00    +0.010 A 
ATOM      7  C   UNL     1      10.362   2.219  23.394  0.00  0.00    -0.018 A 
ATOM      8  C   UNL     1      10.364   1.334  24.492  0.00  0.00    +0.010 A 
ATOM      9  C   UNL     1       9.945   0.005  24.367  0.00  0.00    +0.029 A 
BRANCH   7  10
ATOM     10  C   UNL     1      10.679   3.662  23.572  0.00  0.00    -0.018 A 
ATOM     11  C   UNL     1       9.716   4.562  24.064  0.00  0.00    +0.008 A 
ATOM     12  C   UNL     1      10.029   5.899  24.338  0.00  0.00    +0.001 A 
ATOM     13  C   UNL     1      11.319   6.371  24.129  0.00  0.00    +0.000 A 
ATOM     14  C   UNL     1      12.288   5.513  23.619  0.00  0.00    +0.001 A 
ATOM     15  C   UNL     1      11.968   4.181  23.333  0.00  0.00    +0.008 A 
ENDBRANCH   7  10
ENDBRANCH   1   4
BRANCH   1  16
ATOM     16  N   UNL     1       7.526  -2.225  23.876  0.00  0.00    -0.166 NA
BRANCH  16  17
ATOM     17  C   UNL     1       6.575  -1.124  23.498  0.00  0.00    +0.137 C 
BRANCH  17  18
ATOM     18  C   UNL     1       5.918  -0.422  24.695  0.00  0.00    +0.173 C 
BRANCH  18  19
ATOM     19  O   UNL     1       5.284   0.807  24.315  0.00  0.00    -0.394 OA
ATOM     20  H   UNL     1       5.855   1.520  24.663  0.00  0.00    +0.209 HD
ENDBRANCH  18  19
ENDBRANCH  17  18
ENDBRANCH  16  17
BRANCH  16  21
ATOM     21  C   UNL     1       6.916  -3.586  23.926  0.00  0.00    +0.207 C 
BRANCH  21  22
ATOM     22  C   UNL     1       6.091  -3.995  22.715  0.00  0.00    +0.251 C 
ATOM     23  N   UNL     1       6.782  -4.733  21.778  0.00  0.00    -0.196 N 
ATOM     24  H   UNL     1       7.479  -5.398  22.118  0.00  0.00    +0.182 HD
ATOM     25  O   UNL     1       4.912  -3.700  22.552  0.00  0.00    -0.272 OA
BRANCH  23  26
ATOM     26  O   UNL     1       5.989  -5.176  20.686  0.00  0.00    -0.295 OA
ATOM     27  H   UNL     1       6.338  -4.638  19.940  0.00  0.00    +0.241 HD
ENDBRANCH  23  26
ENDBRANCH  21  22
ENDBRANCH  16  21
ENDBRANCH   1  16
TORSDOF 9
ENDMDL
MODEL 5
REMARK VINA RESULT:      -6.6      2.129      3.613
REMARK  Name = 
REMARK  9 active torsions:
REMARK  status: ('A' for Active; 'I' for Inactive)
REMARK    1  A    between atoms: O_1  and  C_2
REMARK    2  A    between atoms: C_2  and  C_3
REMARK    3  A    between atoms: C_3  and  N_4
REMARK    4  A    between atoms: N_4  and  C_5
REMARK    5  A    between atoms: N_4  and  S_10
REMARK    6  A    between atoms: C_5  and  C_6
REMARK    7  A    between atoms: N_8  and  O_9
REMARK    8  A    between atoms: S_10  and  C_13
REMARK    9  A    between atoms: C_16  and  C_19
REMARK                            x       y       z     vdW  Elec       q    Type
REMARK                         _______ _______ _______ _____ _____    ______ ____
ROOT
ATOM      1  S   UNL     1       8.764  -4.634  25.511  0.00  0.00    +0.061 S 
ATOM      2  O   UNL     1       9.725  -5.367  24.716  0.00  0.00    -0.153 OA
ATOM      3  O   UNL     1       8.721  -4.732  26.955  0.00  0.00    -0.153 OA
ENDROOT
BRANCH   1   4
ATOM      4  C   UNL     1       8.994  -2.897  25.154  0.00  0.00    +0.106 A 
ATOM      5  C   UNL     1       9.703  -2.484  24.027  0.00  0.00    +0.029 A 
ATOM      6  C   UNL     1       9.902  -1.115  23.797  0.00  0.00    +0.010 A 
ATOM      7  C   UNL     1       9.399  -0.128  24.674  0.00  0.00    -0.018 A 
ATOM      8  C   UNL     1       8.752  -0.588  25.838  0.00  0.00    +0.010 A 
ATOM      9  C   UNL     1       8.554  -1.953  26.081  0.00  0.00    +0.029 A 
BRANCH   7  10
ATOM     10  C   UNL     1       9.480   1.326  24.365  0.00  0.00    -0.018 A 
ATOM     11  C   UNL     1       8.518   2.228  24.855  0.00  0.00    +0.008 A 
ATOM     12  C   UNL     1       8.639   3.609  24.665  0.00  0.00    +0.001 A 
ATOM     13  C   UNL     1       9.730   4.127  23.979  0.00  0.00    +0.000 A 
ATOM     14  C   UNL     1      10.686   3.260  23.459  0.00  0.00    +0.001 A 
ATOM     15  C   UNL     1      10.555   1.878  23.639  0.00  0.00    +0.008 A 
ENDBRANCH   7  10
ENDBRANCH   1   4
BRANCH   1  16
ATOM     16  N   UNL     1       7.183  -4.939  24.882  0.00  0.00    -0.166 NA
BRANCH  16  17
ATOM     17  C   UNL     1       6.075  -4.419  25.754  0.00  0.00    +0.137 C 
BRANCH  17  18
ATOM     18  C   UNL     1       5.297  -5.512  26.502  0.00  0.00    +0.173 C 
BRANCH  18  19
ATOM     19  O   UNL     1       6.171  -6.425  27.179  0.00  0.00    -0.394 OA
ATOM     20  H   UNL     1       5.645  -6.807  27.908  0.00  0.00    +0.209 HD
ENDBRANCH  18  19
ENDBRANCH  17  18
ENDBRANCH  16  17
BRANCH  16  21
ATOM     21  C   UNL     1       7.058  -4.587  23.437  0.00  0.00    +0.207 C 
BRANCH  21  22
ATOM     22  C   UNL     1       5.693  -4.820  22.808  0.00  0.00    +0.251 C 
ATOM     23  N   UNL     1       5.285  -6.138  22.805  0.00  0.00    -0.196 N 
ATOM     24  H   UNL     1       5.535  -6.714  23.611  0.00  0.00    +0.182 HD
ATOM     25  O   UNL     1       4.995  -3.936  22.325  0.00  0.00    -0.272 OA
BRANCH  23  26
ATOM     26  O   UNL     1       3.979  -6.341  22.286  0.00  0.00    -0.295 OA
ATOM     27  H   UNL     1       3.640  -5.422  22.201  0.00  0.00    +0.241 HD
ENDBRANCH  23  26
ENDBRANCH  21  22
ENDBRANCH  16  21
ENDBRANCH   1  16
TORSDOF 9
ENDMDL
MODEL 6
REMARK VINA RESULT:      -6.6      2.162      3.150
REMARK  Name = 
REMARK  9 active torsions:
REMARK  status: ('A' for Active; 'I' for Inactive)
REMARK    1  A    between atoms: O_1  and  C_2
REMARK    2  A    between atoms: C_2  and  C_3
REMARK    3  A    between atoms: C_3  and  N_4
REMARK    4  A    between atoms: N_4  and  C_5
REMARK    5  A    between atoms: N_4  and  S_10
REMARK    6  A    between atoms: C_5  and  C_6
REMARK    7  A    between atoms: N_8  and  O_9
REMARK    8  A    between atoms: S_10  and  C_13
REMARK    9  A    between atoms: C_16  and  C_19
REMARK                            x       y       z     vdW  Elec       q    Type
REMARK                         _______ _______ _______ _____ _____    ______ ____
ROOT
ATOM      1  S   UNL     1       8.351  -4.526  25.350  0.00  0.00    +0.061 S 
ATOM      2  O   UNL     1       9.231  -5.295  24.497  0.00  0.00    -0.153 OA
ATOM      3  O   UNL     1       8.321  -4.702  26.787  0.00  0.00    -0.153 OA
ENDROOT
BRANCH   1   4
ATOM      4  C   UNL     1       8.732  -2.798  25.085  0.00  0.00    +0.106 A 
ATOM      5  C   UNL     1       9.626  -2.405  24.091  0.00  0.00    +0.029 A 
ATOM      6  C   UNL     1       9.935  -1.046  23.937  0.00  0.00    +0.010 A 
ATOM      7  C   UNL     1       9.362  -0.050  24.758  0.00  0.00    -0.018 A 
ATOM      8  C   UNL     1       8.522  -0.495  25.798  0.00  0.00    +0.010 A 
ATOM      9  C   UNL     1       8.212  -1.850  25.965  0.00  0.00    +0.029 A 
BRANCH   7  10
ATOM     10  C   UNL     1       9.572   1.403  24.510  0.00  0.00    -0.018 A 
ATOM     11  C   UNL     1      10.684   1.863  23.781  0.00  0.00    +0.008 A 
ATOM     12  C   UNL     1      10.839   3.213  23.446  0.00  0.00    +0.001 A 
ATOM     13  C   UNL     1       9.881   4.142  23.833  0.00  0.00    +0.000 A 
ATOM     14  C   UNL     1       8.783   3.724  24.576  0.00  0.00    +0.001 A 
ATOM     15  C   UNL     1       8.638   2.375  24.921  0.00  0.00    +0.008 A 
ENDBRANCH   7  10
ENDBRANCH   1   4
BRANCH   1  16
ATOM     16  N   UNL     1       6.741  -4.652  24.736  0.00  0.00    -0.166 NA
BRANCH  16  17
ATOM     17  C   UNL     1       6.582  -5.698  23.668  0.00  0.00    +0.137 C 
BRANCH  17  18
ATOM     18  C   UNL     1       5.398  -5.455  22.720  0.00  0.00    +0.173 C 
BRANCH  18  19
ATOM     19  O   UNL     1       4.343  -6.404  22.925  0.00  0.00    -0.394 OA
ATOM     20  H   UNL     1       4.575  -7.183  22.382  0.00  0.00    +0.209 HD
ENDBRANCH  18  19
ENDBRANCH  17  18
ENDBRANCH  16  17
BRANCH  16  21
ATOM     21  C   UNL     1       5.712  -4.702  25.815  0.00  0.00    +0.207 C 
BRANCH  21  22
ATOM     22  C   UNL     1       5.415  -6.077  26.394  0.00  0.00    +0.251 C 
ATOM     23  N   UNL     1       6.003  -6.319  27.617  0.00  0.00    -0.196 N 
ATOM     24  H   UNL     1       6.073  -5.539  28.273  0.00  0.00    +0.182 HD
ATOM     25  O   UNL     1       4.724  -6.925  25.839  0.00  0.00    -0.272 OA
BRANCH  23  26
ATOM     26  O   UNL     1       5.662  -7.574  28.188  0.00  0.00    -0.295 OA
ATOM     27  H   UNL     1       6.375  -8.161  27.849  0.00  0.00    +0.241 HD
ENDBRANCH  23  26
ENDBRANCH  21  22
ENDBRANCH  16  21
ENDBRANCH   1  16
TORSDOF 9
ENDMDL
MODEL 7
REMARK VINA RESULT:      -6.5      2.397      3.611
REMARK  Name = 
REMARK  9 active torsions:
REMARK  status: ('A' for Active; 'I' for Inactive)
REMARK    1  A    between atoms: O_1  and  C_2
REMARK    2  A    between atoms: C_2  and  C_3
REMARK    3  A    between atoms: C_3  and  N_4
REMARK    4  A    between atoms: N_4  and  C_5
REMARK    5  A    between atoms: N_4  and  S_10
REMARK    6  A    between atoms: C_5  and  C_6
REMARK    7  A    between atoms: N_8  and  O_9
REMARK    8  A    between atoms: S_10  and  C_13
REMARK    9  A    between atoms: C_16  and  C_19
REMARK                            x       y       z     vdW  Elec       q    Type
REMARK                         _______ _______ _______ _____ _____    ______ ____
ROOT
ATOM      1  S   UNL     1       7.878  -4.899  23.608  0.00  0.00    +0.061 S 
ATOM      2  O   UNL     1       7.388  -5.243  22.291  0.00  0.00    -0.153 OA
ATOM      3  O   UNL     1       9.039  -5.535  24.191  0.00  0.00    -0.153 OA
ENDROOT
BRANCH   1   4
ATOM      4  C   UNL     1       8.244  -3.148  23.596  0.00  0.00    +0.106 A 
ATOM      5  C   UNL     1       7.534  -2.271  22.778  0.00  0.00    +0.029 A 
ATOM      6  C   UNL     1       7.874  -0.911  22.761  0.00  0.00    +0.010 A 
ATOM      7  C   UNL     1       8.918  -0.390  23.557  0.00  0.00    -0.018 A 
ATOM      8  C   UNL     1       9.659  -1.320  24.314  0.00  0.00    +0.010 A 
ATOM      9  C   UNL     1       9.332  -2.681  24.333  0.00  0.00    +0.029 A 
BRANCH   7  10
ATOM     10  C   UNL     1       9.191   1.070  23.654  0.00  0.00    -0.018 A 
ATOM     11  C   UNL     1       8.453   1.891  24.525  0.00  0.00    +0.008 A 
ATOM     12  C   UNL     1       8.768   3.242  24.709  0.00  0.00    +0.001 A 
ATOM     13  C   UNL     1       9.836   3.809  24.024  0.00  0.00    +0.000 A 
ATOM     14  C   UNL     1      10.570   3.031  23.136  0.00  0.00    +0.001 A 
ATOM     15  C   UNL     1      10.244   1.683  22.944  0.00  0.00    +0.008 A 
ENDBRANCH   7  10
ENDBRANCH   1   4
BRANCH   1  16
ATOM     16  N   UNL     1       6.564  -4.998  24.727  0.00  0.00    -0.166 NA
BRANCH  16  17
ATOM     17  C   UNL     1       6.852  -4.358  26.055  0.00  0.00    +0.137 C 
BRANCH  17  18
ATOM     18  C   UNL     1       7.542  -5.287  27.066  0.00  0.00    +0.173 C 
BRANCH  18  19
ATOM     19  O   UNL     1       8.951  -5.036  27.150  0.00  0.00    -0.394 OA
ATOM     20  H   UNL     1       9.102  -4.653  28.036  0.00  0.00    +0.209 HD
ENDBRANCH  18  19
ENDBRANCH  17  18
ENDBRANCH  16  17
BRANCH  16  21
ATOM     21  C   UNL     1       5.257  -4.613  24.119  0.00  0.00    +0.207 C 
BRANCH  21  22
ATOM     22  C   UNL     1       4.356  -5.761  23.687  0.00  0.00    +0.251 C 
ATOM     23  N   UNL     1       4.519  -6.919  24.419  0.00  0.00    -0.196 N 
ATOM     24  H   UNL     1       4.714  -6.825  25.418  0.00  0.00    +0.182 HD
ATOM     25  O   UNL     1       3.552  -5.698  22.764  0.00  0.00    -0.272 OA
BRANCH  23  26
ATOM     26  O   UNL     1       3.624  -7.962  24.063  0.00  0.00    -0.295 OA
ATOM     27  H   UNL     1       3.949  -8.224  23.172  0.00  0.00    +0.241 HD
ENDBRANCH  23  26
ENDBRANCH  21  22
ENDBRANCH  16  21
ENDBRANCH   1  16
TORSDOF 9
ENDMDL
MODEL 8
REMARK VINA RESULT:      -6.4      1.337      2.160
REMARK  Name = 
REMARK  9 active torsions:
REMARK  status: ('A' for Active; 'I' for Inactive)
REMARK    1  A    between atoms: O_1  and  C_2
REMARK    2  A    between atoms: C_2  and  C_3
REMARK    3  A    between atoms: C_3  and  N_4
REMARK    4  A    between atoms: N_4  and  C_5
REMARK    5  A    between atoms: N_4  and  S_10
REMARK    6  A    between atoms: C_5  and  C_6
REMARK    7  A    between atoms: N_8  and  O_9
REMARK    8  A    between atoms: S_10  and  C_13
REMARK    9  A    between atoms: C_16  and  C_19
REMARK                            x       y       z     vdW  Elec       q    Type
REMARK                         _______ _______ _______ _____ _____    ______ ____
ROOT
ATOM      1  S   UNL     1       8.346  -3.692  23.770  0.00  0.00    +0.061 S 
ATOM      2  O   UNL     1       8.007  -3.960  22.388  0.00  0.00    -0.153 OA
ATOM      3  O   UNL     1       9.433  -4.370  24.443  0.00  0.00    -0.153 OA
ENDROOT
BRANCH   1   4
ATOM      4  C   UNL     1       8.715  -1.947  23.896  0.00  0.00    +0.106 A 
ATOM      5  C   UNL     1       9.080  -1.377  25.115  0.00  0.00    +0.029 A 
ATOM      6  C   UNL     1       9.323   0.002  25.189  0.00  0.00    +0.010 A 
ATOM      7  C   UNL     1       9.214   0.843  24.060  0.00  0.00    -0.018 A 
ATOM      8  C   UNL     1       8.772   0.242  22.865  0.00  0.00    +0.010 A 
ATOM      9  C   UNL     1       8.521  -1.133  22.781  0.00  0.00    +0.029 A 
BRANCH   7  10
ATOM     10  C   UNL     1       9.608   2.278  24.097  0.00  0.00    -0.018 A 
ATOM     11  C   UNL     1      10.815   2.716  23.521  0.00  0.00    +0.008 A 
ATOM     12  C   UNL     1      11.148   4.074  23.451  0.00  0.00    +0.001 A 
ATOM     13  C   UNL     1      10.279   5.033  23.956  0.00  0.00    +0.000 A 
ATOM     14  C   UNL     1       9.089   4.632  24.553  0.00  0.00    +0.001 A 
ATOM     15  C   UNL     1       8.765   3.272  24.634  0.00  0.00    +0.008 A 
ENDBRANCH   7  10
ENDBRANCH   1   4
BRANCH   1  16
ATOM     16  N   UNL     1       6.914  -3.842  24.726  0.00  0.00    -0.166 NA
BRANCH  16  17
ATOM     17  C   UNL     1       5.796  -2.940  24.284  0.00  0.00    +0.137 C 
BRANCH  17  18
ATOM     18  C   UNL     1       4.786  -3.607  23.338  0.00  0.00    +0.173 C 
BRANCH  18  19
ATOM     19  O   UNL     1       5.140  -3.426  21.961  0.00  0.00    -0.394 OA
ATOM     20  H   UNL     1       5.960  -2.895  21.963  0.00  0.00    +0.209 HD
ENDBRANCH  18  19
ENDBRANCH  17  18
ENDBRANCH  16  17
BRANCH  16  21
ATOM     21  C   UNL     1       6.517  -5.262  24.955  0.00  0.00    +0.207 C 
BRANCH  21  22
ATOM     22  C   UNL     1       6.345  -5.683  26.406  0.00  0.00    +0.251 C 
ATOM     23  N   UNL     1       7.521  -6.008  27.048  0.00  0.00    -0.196 N 
ATOM     24  H   UNL     1       8.356  -5.468  26.812  0.00  0.00    +0.182 HD
ATOM     25  O   UNL     1       5.264  -5.748  26.983  0.00  0.00    -0.272 OA
BRANCH  23  26
ATOM     26  O   UNL     1       7.364  -6.327  28.423  0.00  0.00    -0.295 OA
ATOM     27  H   UNL     1       8.286  -6.267  28.760  0.00  0.00    +0.241 HD
ENDBRANCH  23  26
ENDBRANCH  21  22
ENDBRANCH  16  21
ENDBRANCH   1  16
TORSDOF 9
ENDMDL
MODEL 9
REMARK VINA RESULT:      -6.3      2.114      3.705
REMARK  Name = 
REMARK  9 active torsions:
REMARK  status: ('A' for Active; 'I' for Inactive)
REMARK    1  A    between atoms: O_1  and  C_2
REMARK    2  A    between atoms: C_2  and  C_3
REMARK    3  A    between atoms: C_3  and  N_4
REMARK    4  A    between atoms: N_4  and  C_5
REMARK    5  A    between atoms: N_4  and  S_10
REMARK    6  A    between atoms: C_5  and  C_6
REMARK    7  A    between atoms: N_8  and  O_9
REMARK    8  A    between atoms: S_10  and  C_13
REMARK    9  A    between atoms: C_16  and  C_19
REMARK                            x       y       z     vdW  Elec       q    Type
REMARK                         _______ _______ _______ _____ _____    ______ ____
ROOT
ATOM      1  S   UNL     1       6.277  -4.480  22.577  0.00  0.00    +0.061 S 
ATOM      2  O   UNL     1       4.838  -4.327  22.522  0.00  0.00    -0.153 OA
ATOM      3  O   UNL     1       7.033  -5.061  21.489  0.00  0.00    -0.153 OA
ENDROOT
BRANCH   1   4
ATOM      4  C   UNL     1       6.974  -2.852  22.831  0.00  0.00    +0.106 A 
ATOM      5  C   UNL     1       6.282  -1.879  23.550  0.00  0.00    +0.029 A 
ATOM      6  C   UNL     1       6.837  -0.600  23.695  0.00  0.00    +0.010 A 
ATOM      7  C   UNL     1       8.089  -0.260  23.138  0.00  0.00    -0.018 A 
ATOM      8  C   UNL     1       8.722  -1.248  22.357  0.00  0.00    +0.010 A 
ATOM      9  C   UNL     1       8.174  -2.526  22.200  0.00  0.00    +0.029 A 
BRANCH   7  10
ATOM     10  C   UNL     1       8.751   1.046  23.408  0.00  0.00    -0.018 A 
ATOM     11  C   UNL     1       9.924   1.421  22.726  0.00  0.00    +0.008 A 
ATOM     12  C   UNL     1      10.498   2.687  22.888  0.00  0.00    +0.001 A 
ATOM     13  C   UNL     1       9.910   3.616  23.737  0.00  0.00    +0.000 A 
ATOM     14  C   UNL     1       8.764   3.269  24.445  0.00  0.00    +0.001 A 
ATOM     15  C   UNL     1       8.201   1.997  24.291  0.00  0.00    +0.008 A 
ENDBRANCH   7  10
ENDBRANCH   1   4
BRANCH   1  16
ATOM     16  N   UNL     1       6.687  -5.296  24.044  0.00  0.00    -0.166 NA
BRANCH  16  17
ATOM     17  C   UNL     1       8.127  -5.132  24.443  0.00  0.00    +0.137 C 
BRANCH  17  18
ATOM     18  C   UNL     1       8.329  -4.638  25.884  0.00  0.00    +0.173 C 
BRANCH  18  19
ATOM     19  O   UNL     1       8.569  -5.720  26.794  0.00  0.00    -0.394 OA
ATOM     20  H   UNL     1       8.694  -6.513  26.237  0.00  0.00    +0.209 HD
ENDBRANCH  18  19
ENDBRANCH  17  18
ENDBRANCH  16  17
BRANCH  16  21
ATOM     21  C   UNL     1       5.704  -5.048  25.138  0.00  0.00    +0.207 C 
BRANCH  21  22
ATOM     22  C   UNL     1       5.189  -6.280  25.866  0.00  0.00    +0.251 C 
ATOM     23  N   UNL     1       5.644  -6.409  27.161  0.00  0.00    -0.196 N 
ATOM     24  H   UNL     1       5.763  -5.555  27.710  0.00  0.00    +0.182 HD
ATOM     25  O   UNL     1       4.439  -7.113  25.368  0.00  0.00    -0.272 OA
BRANCH  23  26
ATOM     26  O   UNL     1       5.102  -7.519  27.861  0.00  0.00    -0.295 OA
ATOM     27  H   UNL     1       4.452  -7.092  28.464  0.00  0.00    +0.241 HD
ENDBRANCH  23  26
ENDBRANCH  21  22
ENDBRANCH  16  21
ENDBRANCH   1  16
TORSDOF 9
ENDMDL
