MODEL 1
REMARK VINA RESULT:      -7.5      0.000      0.000
REMARK  Name = 
REMARK  6 active torsions:
REMARK  status: ('A' for Active; 'I' for Inactive)
REMARK    1  A    between atoms: C_2  and  N_3
REMARK    2  A    between atoms: C_6  and  N_10
REMARK    3  A    between atoms: C_13  and  N_14
REMARK    4  A    between atoms: N_14  and  C_15
REMARK    5  A    between atoms: C_15  and  C_16
REMARK    6  A    between atoms: N_25  and  C_26
REMARK                            x       y       z     vdW  Elec       q    Type
REMARK                         _______ _______ _______ _____ _____    ______ ____
ROOT
ATOM      1  N   UNL     1       5.663  -3.120  27.086  0.00  0.00    -0.311 N 
ATOM      2  H   UNL     1       6.108  -2.990  27.987  0.00  0.00    +0.149 HD
ATOM      3  C   UNL     1       6.473  -2.546  26.119  0.00  0.00    +0.219 A 
ATOM      4  N   UNL     1       6.545  -3.135  24.916  0.00  0.00    -0.195 NA
ATOM      5  C   UNL     1       7.417  -2.542  24.097  0.00  0.00    +0.167 A 
ATOM      6  C   UNL     1       8.154  -1.406  24.352  0.00  0.00    +0.148 A 
ATOM      7  N   UNL     1       8.953  -1.088  23.272  0.00  0.00    -0.231 NA
ATOM      8  C   UNL     1       8.705  -2.029  22.386  0.00  0.00    +0.202 A 
ATOM      9  C   UNL     1       7.968  -0.798  25.606  0.00  0.00    +0.152 A 
ATOM     10  N   UNL     1       7.766  -2.921  22.831  0.00  0.00    -0.312 N 
ATOM     11  N   UNL     1       7.151  -1.436  26.497  0.00  0.00    -0.197 NA
ENDROOT
BRANCH   1  15
ATOM     12  C   UNL     1       6.109  -6.172  28.982  0.00  0.00    +0.051 C 
ATOM     13  C   UNL     1       5.008  -5.135  29.243  0.00  0.00    +0.020 C 
ATOM     14  C   UNL     1       4.159  -4.834  28.003  0.00  0.00    +0.024 C 
ATOM     15  C   UNL     1       5.024  -4.405  26.803  0.00  0.00    +0.073 C 
ATOM     16  C   UNL     1       6.085  -5.477  26.515  0.00  0.00    +0.024 C 
ATOM     17  C   UNL     1       6.937  -5.810  27.742  0.00  0.00    +0.020 C 
BRANCH  12  18
ATOM     18  N   UNL     1       5.543  -7.517  28.840  0.00  0.00    -0.327 NA
ATOM     19  H   UNL     1       6.240  -8.206  29.124  0.00  0.00    +0.118 HD
ATOM     20  H   UNL     1       4.750  -7.645  29.465  0.00  0.00    +0.118 HD
ENDBRANCH  12  18
ENDBRANCH   1  15
BRANCH  10  21
ATOM     21  C   UNL     1       7.248  -4.045  22.087  0.00  0.00    +0.090 C 
ATOM     22  C   UNL     1       5.715  -4.111  22.020  0.00  0.00    +0.025 C 
ATOM     23  C   UNL     1       5.353  -5.596  22.011  0.00  0.00    +0.002 C 
ATOM     24  C   UNL     1       6.671  -6.359  21.969  0.00  0.00    +0.002 C 
ATOM     25  C   UNL     1       7.674  -5.417  22.614  0.00  0.00    +0.025 C 
ENDBRANCH  10  21
BRANCH   9  26
ATOM     26  N   UNL     1       8.579   0.421  25.882  0.00  0.00    -0.323 N 
ATOM     27  H   UNL     1       9.086   0.383  26.764  0.00  0.00    +0.148 HD
BRANCH  26  28
ATOM     28  C   UNL     1       7.853   1.646  25.636  0.00  0.00    +0.138 C 
BRANCH  28  29
ATOM     29  C   UNL     1       8.759   2.606  24.884  0.00  0.00    -0.030 A 
ATOM     30  C   UNL     1       8.513   3.987  24.899  0.00  0.00    +0.005 A 
ATOM     31  C   UNL     1       9.368   4.869  24.228  0.00  0.00    +0.000 A 
ATOM     32  C   UNL     1      10.475   4.383  23.537  0.00  0.00    +0.000 A 
ATOM     33  C   UNL     1      10.730   3.013  23.510  0.00  0.00    +0.000 A 
ATOM     34  C   UNL     1       9.875   2.130  24.177  0.00  0.00    +0.005 A 
ENDBRANCH  28  29
ENDBRANCH  26  28
ENDBRANCH   9  26
TORSDOF 6
ENDMDL
MODEL 2
REMARK VINA RESULT:      -7.3      2.558      5.184
REMARK  Name = 
REMARK  6 active torsions:
REMARK  status: ('A' for Active; 'I' for Inactive)
REMARK    1  A    between atoms: C_2  and  N_3
REMARK    2  A    between atoms: C_6  and  N_10
REMARK    3  A    between atoms: C_13  and  N_14
REMARK    4  A    between atoms: N_14  and  C_15
REMARK    5  A    between atoms: C_15  and  C_16
REMARK    6  A    between atoms: N_25  and  C_26
REMARK                            x       y       z     vdW  Elec       q    Type
REMARK                         _______ _______ _______ _____ _____    ______ ____
ROOT
ATOM      1  N   UNL     1       7.582  -2.754  23.929  0.00  0.00    -0.311 N 
ATOM      2  H   UNL     1       8.031  -2.641  23.028  0.00  0.00    +0.149 HD
ATOM      3  C   UNL     1       7.591  -1.524  24.570  0.00  0.00    +0.219 A 
ATOM      4  N   UNL     1       6.542  -1.200  25.342  0.00  0.00    -0.195 NA
ATOM      5  C   UNL     1       6.624   0.036  25.838  0.00  0.00    +0.167 A 
ATOM      6  C   UNL     1       7.666   0.925  25.685  0.00  0.00    +0.148 A 
ATOM      7  N   UNL     1       7.398   2.111  26.339  0.00  0.00    -0.231 NA
ATOM      8  C   UNL     1       6.205   1.938  26.867  0.00  0.00    +0.202 A 
ATOM      9  C   UNL     1       8.766   0.486  24.929  0.00  0.00    +0.152 A 
ATOM     10  N   UNL     1       5.704   0.690  26.610  0.00  0.00    -0.312 N 
ATOM     11  N   UNL     1       8.669  -0.739  24.332  0.00  0.00    -0.197 NA
ENDROOT
BRANCH   1  15
ATOM     12  C   UNL     1       6.554  -5.236  21.504  0.00  0.00    +0.051 C 
ATOM     13  C   UNL     1       7.427  -5.525  22.731  0.00  0.00    +0.020 C 
ATOM     14  C   UNL     1       6.783  -5.074  24.047  0.00  0.00    +0.024 C 
ATOM     15  C   UNL     1       6.383  -3.587  24.013  0.00  0.00    +0.073 C 
ATOM     16  C   UNL     1       5.463  -3.321  22.813  0.00  0.00    +0.024 C 
ATOM     17  C   UNL     1       6.074  -3.778  21.487  0.00  0.00    +0.020 C 
BRANCH  12  18
ATOM     18  N   UNL     1       5.407  -6.148  21.446  0.00  0.00    -0.327 NA
ATOM     19  H   UNL     1       5.667  -6.981  20.917  0.00  0.00    +0.118 HD
ATOM     20  H   UNL     1       5.155  -6.473  22.376  0.00  0.00    +0.118 HD
ENDBRANCH  12  18
ENDBRANCH   1  15
BRANCH  10  21
ATOM     21  C   UNL     1       4.439   0.174  27.078  0.00  0.00    +0.090 C 
ATOM     22  C   UNL     1       3.314   1.217  27.147  0.00  0.00    +0.025 C 
ATOM     23  C   UNL     1       2.442   0.824  28.340  0.00  0.00    +0.002 C 
ATOM     24  C   UNL     1       3.010  -0.485  28.874  0.00  0.00    +0.002 C 
ATOM     25  C   UNL     1       4.476  -0.452  28.475  0.00  0.00    +0.025 C 
ENDBRANCH  10  21
BRANCH   9  26
ATOM     26  N   UNL     1       9.907   1.279  24.841  0.00  0.00    -0.323 N 
ATOM     27  H   UNL     1       9.938   1.957  25.600  0.00  0.00    +0.148 HD
BRANCH  26  28
ATOM     28  C   UNL     1      10.324   1.774  23.549  0.00  0.00    +0.138 C 
BRANCH  28  29
ATOM     29  C   UNL     1      10.378   3.291  23.603  0.00  0.00    -0.030 A 
ATOM     30  C   UNL     1       9.226   4.044  23.878  0.00  0.00    +0.005 A 
ATOM     31  C   UNL     1       9.290   5.439  23.954  0.00  0.00    +0.000 A 
ATOM     32  C   UNL     1      10.501   6.098  23.760  0.00  0.00    +0.000 A 
ATOM     33  C   UNL     1      11.653   5.364  23.482  0.00  0.00    +0.000 A 
ATOM     34  C   UNL     1      11.591   3.970  23.402  0.00  0.00    +0.005 A 
ENDBRANCH  28  29
ENDBRANCH  26  28
ENDBRANCH   9  26
TORSDOF 6
ENDMDL
MODEL 3
REMARK VINA RESULT:      -7.2      2.361      6.930
REMARK  Name = 
REMARK  6 active torsions:
REMARK  status: ('A' for Active; 'I' for Inactive)
REMARK    1  A    between atoms: C_2  and  N_3
REMARK    2  A    between atoms: C_6  and  N_10
REMARK    3  A    between atoms: C_13  and  N_14
REMARK    4  A    between atoms: N_14  and  C_15
REMARK    5  A    between atoms: C_15  and  C_16
REMARK    6  A    between atoms: N_25  and  C_26
REMARK                            x       y       z     vdW  Elec       q    Type
REMARK                         _______ _______ _______ _____ _____    ______ ____
ROOT
ATOM      1  N   UNL     1       7.078  -0.297  27.297  0.00  0.00    -0.311 N 
ATOM      2  H   UNL     1       6.304  -0.909  27.527  0.00  0.00    +0.149 HD
ATOM      3  C   UNL     1       7.862  -0.933  26.346  0.00  0.00    +0.219 A 
ATOM      4  N   UNL     1       8.448  -0.185  25.399  0.00  0.00    -0.195 NA
ATOM      5  C   UNL     1       9.106  -0.914  24.494  0.00  0.00    +0.167 A 
ATOM      6  C   UNL     1       9.276  -2.282  24.494  0.00  0.00    +0.148 A 
ATOM      7  N   UNL     1      10.011  -2.683  23.397  0.00  0.00    -0.231 NA
ATOM      8  C   UNL     1      10.269  -1.571  22.743  0.00  0.00    +0.202 A 
ATOM      9  C   UNL     1       8.700  -2.991  25.562  0.00  0.00    +0.152 A 
ATOM     10  N   UNL     1       9.760  -0.470  23.379  0.00  0.00    -0.312 N 
ATOM     11  N   UNL     1       7.942  -2.281  26.451  0.00  0.00    -0.197 NA
ENDROOT
BRANCH   1  15
ATOM     12  C   UNL     1       4.349   1.521  28.831  0.00  0.00    +0.051 C 
ATOM     13  C   UNL     1       5.740   1.345  29.453  0.00  0.00    +0.020 C 
ATOM     14  C   UNL     1       6.875   1.815  28.536  0.00  0.00    +0.024 C 
ATOM     15  C   UNL     1       6.817   1.135  27.155  0.00  0.00    +0.073 C 
ATOM     16  C   UNL     1       5.441   1.367  26.517  0.00  0.00    +0.024 C 
ATOM     17  C   UNL     1       4.287   0.922  27.419  0.00  0.00    +0.020 C 
BRANCH  12  18
ATOM     18  N   UNL     1       3.961   2.934  28.800  0.00  0.00    -0.327 NA
ATOM     19  H   UNL     1       4.375   3.379  27.980  0.00  0.00    +0.118 HD
ATOM     20  H   UNL     1       2.954   3.032  28.693  0.00  0.00    +0.118 HD
ENDBRANCH  12  18
ENDBRANCH   1  15
BRANCH  10  21
ATOM     21  C   UNL     1       9.900   0.900  22.941  0.00  0.00    +0.090 C 
ATOM     22  C   UNL     1      10.593   1.823  23.956  0.00  0.00    +0.025 C 
ATOM     23  C   UNL     1       9.945   3.197  23.790  0.00  0.00    +0.002 C 
ATOM     24  C   UNL     1       8.971   3.076  22.625  0.00  0.00    +0.002 C 
ATOM     25  C   UNL     1       8.585   1.606  22.606  0.00  0.00    +0.025 C 
ENDBRANCH  10  21
BRANCH   9  26
ATOM     26  N   UNL     1       8.940  -4.355  25.696  0.00  0.00    -0.323 N 
ATOM     27  H   UNL     1       9.695  -4.654  25.082  0.00  0.00    +0.148 HD
BRANCH  26  28
ATOM     28  C   UNL     1       7.820  -5.262  25.790  0.00  0.00    +0.138 C 
BRANCH  28  29
ATOM     29  C   UNL     1       7.103  -5.292  24.450  0.00  0.00    -0.030 A 
ATOM     30  C   UNL     1       7.799  -5.590  23.269  0.00  0.00    +0.005 A 
ATOM     31  C   UNL     1       7.128  -5.645  22.043  0.00  0.00    +0.000 A 
ATOM     32  C   UNL     1       5.758  -5.405  21.982  0.00  0.00    +0.000 A 
ATOM     33  C   UNL     1       5.054  -5.103  23.147  0.00  0.00    +0.000 A 
ATOM     34  C   UNL     1       5.723  -5.045  24.373  0.00  0.00    +0.005 A 
ENDBRANCH  28  29
ENDBRANCH  26  28
ENDBRANCH   9  26
TORSDOF 6
ENDMDL
MODEL 4
REMARK VINA RESULT:      -7.1      2.747      7.474
REMARK  Name = 
REMARK  6 active torsions:
REMARK  status: ('A' for Active; 'I' for Inactive)
REMARK    1  A    between atoms: C_2  and  N_3
REMARK    2  A    between atoms: C_6  and  N_10
REMARK    3  A    between atoms: C_13  and  N_14
REMARK    4  A    between atoms: N_14  and  C_15
REMARK    5  A    between atoms: C_15  and  C_16
REMARK    6  A    between atoms: N_25  and  C_26
REMARK                            x       y       z     vdW  Elec       q    Type
REMARK                         _______ _______ _______ _____ _____    ______ ____
ROOT
ATOM      1  N   UNL     1       6.652   0.869  26.585  0.00  0.00    -0.311 N 
ATOM      2  H   UNL     1       5.716   0.522  26.409  0.00  0.00    +0.149 HD
ATOM      3  C   UNL     1       7.373   0.777  25.404  0.00  0.00    +0.219 A 
ATOM      4  N   UNL     1       8.277   1.731  25.134  0.00  0.00    -0.195 NA
ATOM      5  C   UNL     1       8.848   1.583  23.936  0.00  0.00    +0.167 A 
ATOM      6  C   UNL     1       8.642   0.557  23.040  0.00  0.00    +0.148 A 
ATOM      7  N   UNL     1       9.404   0.740  21.903  0.00  0.00    -0.231 NA
ATOM      8  C   UNL     1      10.048   1.868  22.112  0.00  0.00    +0.202 A 
ATOM      9  C   UNL     1       7.739  -0.449  23.426  0.00  0.00    +0.152 A 
ATOM     10  N   UNL     1       9.761   2.406  23.338  0.00  0.00    -0.312 N 
ATOM     11  N   UNL     1       7.072  -0.275  24.605  0.00  0.00    -0.197 NA
ENDROOT
BRANCH   1  15
ATOM     12  C   UNL     1       4.503   1.824  29.337  0.00  0.00    +0.051 C 
ATOM     13  C   UNL     1       5.769   0.969  29.474  0.00  0.00    +0.020 C 
ATOM     14  C   UNL     1       7.016   1.641  28.888  0.00  0.00    +0.024 C 
ATOM     15  C   UNL     1       6.809   2.058  27.420  0.00  0.00    +0.073 C 
ATOM     16  C   UNL     1       5.573   2.960  27.304  0.00  0.00    +0.024 C 
ATOM     17  C   UNL     1       4.315   2.321  27.897  0.00  0.00    +0.020 C 
BRANCH  12  18
ATOM     18  N   UNL     1       4.530   2.958  30.266  0.00  0.00    -0.327 NA
ATOM     19  H   UNL     1       5.169   3.669  29.909  0.00  0.00    +0.118 HD
ATOM     20  H   UNL     1       3.617   3.403  30.321  0.00  0.00    +0.118 HD
ENDBRANCH  12  18
ENDBRANCH   1  15
BRANCH  10  21
ATOM     21  C   UNL     1      10.329   3.616  23.885  0.00  0.00    +0.090 C 
ATOM     22  C   UNL     1       9.408   4.843  23.805  0.00  0.00    +0.025 C 
ATOM     23  C   UNL     1      10.324   6.049  23.594  0.00  0.00    +0.002 C 
ATOM     24  C   UNL     1      11.751   5.521  23.657  0.00  0.00    +0.002 C 
ATOM     25  C   UNL     1      11.636   4.068  23.229  0.00  0.00    +0.025 C 
ENDBRANCH  10  21
BRANCH   9  26
ATOM     26  N   UNL     1       7.582  -1.579  22.630  0.00  0.00    -0.323 N 
ATOM     27  H   UNL     1       6.622  -1.919  22.666  0.00  0.00    +0.148 HD
BRANCH  26  28
ATOM     28  C   UNL     1       8.603  -2.601  22.646  0.00  0.00    +0.138 C 
BRANCH  28  29
ATOM     29  C   UNL     1       8.346  -3.528  23.822  0.00  0.00    -0.030 A 
ATOM     30  C   UNL     1       7.083  -4.105  24.021  0.00  0.00    +0.005 A 
ATOM     31  C   UNL     1       6.861  -4.980  25.089  0.00  0.00    +0.000 A 
ATOM     32  C   UNL     1       7.895  -5.291  25.968  0.00  0.00    +0.000 A 
ATOM     33  C   UNL     1       9.155  -4.723  25.785  0.00  0.00    +0.000 A 
ATOM     34  C   UNL     1       9.378  -3.845  24.720  0.00  0.00    +0.005 A 
ENDBRANCH  28  29
ENDBRANCH  26  28
ENDBRANCH   9  26
TORSDOF 6
ENDMDL
MODEL 5
REMARK VINA RESULT:      -6.9      2.718      4.327
REMARK  Name = 
REMARK  6 active torsions:
REMARK  status: ('A' for Active; 'I' for Inactive)
REMARK    1  A    between atoms: C_2  and  N_3
REMARK    2  A    between atoms: C_6  and  N_10
REMARK    3  A    between atoms: C_13  and  N_14
REMARK    4  A    between atoms: N_14  and  C_15
REMARK    5  A    between atoms: C_15  and  C_16
REMARK    6  A    between atoms: N_25  and  C_26
REMARK                            x       y       z     vdW  Elec       q    Type
REMARK                         _______ _______ _______ _____ _____    ______ ____
ROOT
ATOM      1  N   UNL     1       5.986  -0.556  26.605  0.00  0.00    -0.311 N 
ATOM      2  H   UNL     1       6.696  -0.231  27.251  0.00  0.00    +0.149 HD
ATOM      3  C   UNL     1       6.536  -1.573  25.840  0.00  0.00    +0.219 A 
ATOM      4  N   UNL     1       5.745  -2.594  25.474  0.00  0.00    -0.195 NA
ATOM      5  C   UNL     1       6.403  -3.550  24.813  0.00  0.00    +0.167 A 
ATOM      6  C   UNL     1       7.730  -3.541  24.443  0.00  0.00    +0.148 A 
ATOM      7  N   UNL     1       8.060  -4.703  23.775  0.00  0.00    -0.231 NA
ATOM      8  C   UNL     1       6.946  -5.404  23.755  0.00  0.00    +0.202 A 
ATOM      9  C   UNL     1       8.477  -2.403  24.792  0.00  0.00    +0.152 A 
ATOM     10  N   UNL     1       5.909  -4.739  24.353  0.00  0.00    -0.312 N 
ATOM     11  N   UNL     1       7.854  -1.451  25.549  0.00  0.00    -0.197 NA
ENDROOT
BRANCH   1  15
ATOM     12  C   UNL     1       4.336   1.638  28.964  0.00  0.00    +0.051 C 
ATOM     13  C   UNL     1       4.294   1.805  27.440  0.00  0.00    +0.020 C 
ATOM     14  C   UNL     1       3.796   0.552  26.710  0.00  0.00    +0.024 C 
ATOM     15  C   UNL     1       4.614  -0.697  27.089  0.00  0.00    +0.073 C 
ATOM     16  C   UNL     1       4.601  -0.887  28.612  0.00  0.00    +0.024 C 
ATOM     17  C   UNL     1       5.078   0.356  29.367  0.00  0.00    +0.020 C 
BRANCH  12  18
ATOM     18  N   UNL     1       2.985   1.643  29.533  0.00  0.00    -0.327 NA
ATOM     19  H   UNL     1       2.378   2.219  28.950  0.00  0.00    +0.118 HD
ATOM     20  H   UNL     1       2.582   0.709  29.520  0.00  0.00    +0.118 HD
ENDBRANCH  12  18
ENDBRANCH   1  15
BRANCH  10  21
ATOM     21  C   UNL     1       4.550  -5.216  24.464  0.00  0.00    +0.090 C 
ATOM     22  C   UNL     1       4.416  -6.612  25.091  0.00  0.00    +0.025 C 
ATOM     23  C   UNL     1       3.221  -7.274  24.405  0.00  0.00    +0.002 C 
ATOM     24  C   UNL     1       2.624  -6.224  23.476  0.00  0.00    +0.002 C 
ATOM     25  C   UNL     1       3.790  -5.310  23.139  0.00  0.00    +0.025 C 
ENDBRANCH  10  21
BRANCH   9  26
ATOM     26  N   UNL     1       9.786  -2.268  24.339  0.00  0.00    -0.323 N 
ATOM     27  H   UNL     1      10.369  -1.816  25.041  0.00  0.00    +0.148 HD
BRANCH  26  28
ATOM     28  C   UNL     1      10.021  -1.853  22.976  0.00  0.00    +0.138 C 
BRANCH  28  29
ATOM     29  C   UNL     1      10.143  -0.339  22.941  0.00  0.00    -0.030 A 
ATOM     30  C   UNL     1       9.689   0.394  21.835  0.00  0.00    +0.005 A 
ATOM     31  C   UNL     1       9.778   1.790  21.822  0.00  0.00    +0.000 A 
ATOM     32  C   UNL     1      10.317   2.469  22.911  0.00  0.00    +0.000 A 
ATOM     33  C   UNL     1      10.776   1.754  24.016  0.00  0.00    +0.000 A 
ATOM     34  C   UNL     1      10.692   0.358  24.029  0.00  0.00    +0.005 A 
ENDBRANCH  28  29
ENDBRANCH  26  28
ENDBRANCH   9  26
TORSDOF 6
ENDMDL
MODEL 6
REMARK VINA RESULT:      -6.7      2.428      7.119
REMARK  Name = 
REMARK  6 active torsions:
REMARK  status: ('A' for Active; 'I' for Inactive)
REMARK    1  A    between atoms: C_2  and  N_3
REMARK    2  A    between atoms: C_6  and  N_10
REMARK    3  A    between atoms: C_13  and  N_14
REMARK    4  A    between atoms: N_14  and  C_15
REMARK    5  A    between atoms: C_15  and  C_16
REMARK    6  A    between atoms: N_25  and  C_26
REMARK                            x       y       z     vdW  Elec       q    Type
REMARK                         _______ _______ _______ _____ _____    ______ ____
ROOT
ATOM      1  N   UNL     1       7.311   0.090  27.139  0.00  0.00    -0.311 N 
ATOM      2  H   UNL     1       6.690  -0.654  27.438  0.00  0.00    +0.149 HD
ATOM      3  C   UNL     1       7.964  -0.332  25.991  0.00  0.00    +0.219 A 
ATOM      4  N   UNL     1       8.239   0.577  25.043  0.00  0.00    -0.195 NA
ATOM      5  C   UNL     1       8.793   0.041  23.953  0.00  0.00    +0.167 A 
ATOM      6  C   UNL     1       9.143  -1.278  23.762  0.00  0.00    +0.148 A 
ATOM      7  N   UNL     1       9.688  -1.463  22.508  0.00  0.00    -0.231 NA
ATOM      8  C   UNL     1       9.655  -0.271  21.951  0.00  0.00    +0.202 A 
ATOM      9  C   UNL     1       8.897  -2.158  24.830  0.00  0.00    +0.152 A 
ATOM     10  N   UNL     1       9.140   0.677  22.794  0.00  0.00    -0.312 N 
ATOM     11  N   UNL     1       8.247  -1.655  25.922  0.00  0.00    -0.197 NA
ENDROOT
BRANCH   1  15
ATOM     12  C   UNL     1       4.600   1.283  29.220  0.00  0.00    +0.051 C 
ATOM     13  C   UNL     1       6.076   1.259  29.638  0.00  0.00    +0.020 C 
ATOM     14  C   UNL     1       6.992   1.997  28.654  0.00  0.00    +0.024 C 
ATOM     15  C   UNL     1       6.835   1.470  27.215  0.00  0.00    +0.073 C 
ATOM     16  C   UNL     1       5.363   1.552  26.788  0.00  0.00    +0.024 C 
ATOM     17  C   UNL     1       4.423   0.838  27.762  0.00  0.00    +0.020 C 
BRANCH  12  18
ATOM     18  N   UNL     1       4.017   2.613  29.419  0.00  0.00    -0.327 NA
ATOM     19  H   UNL     1       3.253   2.747  28.756  0.00  0.00    +0.118 HD
ATOM     20  H   UNL     1       3.603   2.693  30.345  0.00  0.00    +0.118 HD
ENDBRANCH  12  18
ENDBRANCH   1  15
BRANCH  10  21
ATOM     21  C   UNL     1       9.002   2.085  22.499  0.00  0.00    +0.090 C 
ATOM     22  C   UNL     1       9.690   3.016  23.508  0.00  0.00    +0.025 C 
ATOM     23  C   UNL     1       8.822   4.272  23.589  0.00  0.00    +0.002 C 
ATOM     24  C   UNL     1       7.714   4.094  22.560  0.00  0.00    +0.002 C 
ATOM     25  C   UNL     1       7.558   2.588  22.427  0.00  0.00    +0.025 C 
ENDBRANCH  10  21
BRANCH   9  26
ATOM     26  N   UNL     1       9.343  -3.474  24.758  0.00  0.00    -0.323 N 
ATOM     27  H   UNL     1      10.326  -3.512  24.496  0.00  0.00    +0.148 HD
BRANCH  26  28
ATOM     28  C   UNL     1       8.498  -4.472  24.145  0.00  0.00    +0.138 C 
BRANCH  28  29
ATOM     29  C   UNL     1       7.533  -5.005  25.191  0.00  0.00    -0.030 A 
ATOM     30  C   UNL     1       7.938  -5.170  26.524  0.00  0.00    +0.005 A 
ATOM     31  C   UNL     1       7.037  -5.634  27.489  0.00  0.00    +0.000 A 
ATOM     32  C   UNL     1       5.724  -5.934  27.136  0.00  0.00    +0.000 A 
ATOM     33  C   UNL     1       5.309  -5.779  25.814  0.00  0.00    +0.000 A 
ATOM     34  C   UNL     1       6.209  -5.319  24.848  0.00  0.00    +0.005 A 
ENDBRANCH  28  29
ENDBRANCH  26  28
ENDBRANCH   9  26
TORSDOF 6
ENDMDL
MODEL 7
REMARK VINA RESULT:      -6.7      2.779      5.078
REMARK  Name = 
REMARK  6 active torsions:
REMARK  status: ('A' for Active; 'I' for Inactive)
REMARK    1  A    between atoms: C_2  and  N_3
REMARK    2  A    between atoms: C_6  and  N_10
REMARK    3  A    between atoms: C_13  and  N_14
REMARK    4  A    between atoms: N_14  and  C_15
REMARK    5  A    between atoms: C_15  and  C_16
REMARK    6  A    between atoms: N_25  and  C_26
REMARK                            x       y       z     vdW  Elec       q    Type
REMARK                         _______ _______ _______ _____ _____    ______ ____
ROOT
ATOM      1  N   UNL     1       7.789  -1.973  23.963  0.00  0.00    -0.311 N 
ATOM      2  H   UNL     1       8.076  -2.214  23.021  0.00  0.00    +0.149 HD
ATOM      3  C   UNL     1       7.524  -0.613  23.997  0.00  0.00    +0.219 A 
ATOM      4  N   UNL     1       6.526  -0.178  24.781  0.00  0.00    -0.195 NA
ATOM      5  C   UNL     1       6.311   1.135  24.668  0.00  0.00    +0.167 A 
ATOM      6  C   UNL     1       7.031   2.033  23.910  0.00  0.00    +0.148 A 
ATOM      7  N   UNL     1       6.517   3.307  24.039  0.00  0.00    -0.231 NA
ATOM      8  C   UNL     1       5.494   3.172  24.856  0.00  0.00    +0.202 A 
ATOM      9  C   UNL     1       8.113   1.516  23.176  0.00  0.00    +0.152 A 
ATOM     10  N   UNL     1       5.342   1.879  25.282  0.00  0.00    -0.312 N 
ATOM     11  N   UNL     1       8.298   0.162  23.199  0.00  0.00    -0.197 NA
ENDROOT
BRANCH   1  15
ATOM     12  C   UNL     1       8.811  -4.848  25.911  0.00  0.00    +0.051 C 
ATOM     13  C   UNL     1       8.608  -3.437  26.478  0.00  0.00    +0.020 C 
ATOM     14  C   UNL     1       7.218  -2.863  26.180  0.00  0.00    +0.024 C 
ATOM     15  C   UNL     1       6.895  -2.886  24.674  0.00  0.00    +0.073 C 
ATOM     16  C   UNL     1       7.047  -4.314  24.131  0.00  0.00    +0.024 C 
ATOM     17  C   UNL     1       8.421  -4.918  24.429  0.00  0.00    +0.020 C 
BRANCH  12  18
ATOM     18  N   UNL     1       8.056  -5.839  26.683  0.00  0.00    -0.327 NA
ATOM     19  H   UNL     1       7.816  -6.624  26.076  0.00  0.00    +0.118 HD
ATOM     20  H   UNL     1       8.626  -6.227  27.432  0.00  0.00    +0.118 HD
ENDBRANCH  12  18
ENDBRANCH   1  15
BRANCH  10  21
ATOM     21  C   UNL     1       4.341   1.407  26.210  0.00  0.00    +0.090 C 
ATOM     22  C   UNL     1       3.088   2.292  26.298  0.00  0.00    +0.025 C 
ATOM     23  C   UNL     1       2.610   2.207  27.748  0.00  0.00    +0.002 C 
ATOM     24  C   UNL     1       3.521   1.204  28.443  0.00  0.00    +0.002 C 
ATOM     25  C   UNL     1       4.820   1.264  27.656  0.00  0.00    +0.025 C 
ENDBRANCH  10  21
BRANCH   9  26
ATOM     26  N   UNL     1       8.961   2.381  22.492  0.00  0.00    -0.323 N 
ATOM     27  H   UNL     1       8.756   2.380  21.495  0.00  0.00    +0.148 HD
BRANCH  26  28
ATOM     28  C   UNL     1      10.364   2.412  22.837  0.00  0.00    +0.138 C 
BRANCH  28  29
ATOM     29  C   UNL     1      10.710   3.801  23.346  0.00  0.00    -0.030 A 
ATOM     30  C   UNL     1       9.734   4.610  23.949  0.00  0.00    +0.005 A 
ATOM     31  C   UNL     1      10.066   5.876  24.441  0.00  0.00    +0.000 A 
ATOM     32  C   UNL     1      11.372   6.349  24.341  0.00  0.00    +0.000 A 
ATOM     33  C   UNL     1      12.351   5.558  23.740  0.00  0.00    +0.000 A 
ATOM     34  C   UNL     1      12.021   4.293  23.244  0.00  0.00    +0.005 A 
ENDBRANCH  28  29
ENDBRANCH  26  28
ENDBRANCH   9  26
TORSDOF 6
ENDMDL
MODEL 8
REMARK VINA RESULT:      -6.6      1.730      2.346
REMARK  Name = 
REMARK  6 active torsions:
REMARK  status: ('A' for Active; 'I' for Inactive)
REMARK    1  A    between atoms: C_2  and  N_3
REMARK    2  A    between atoms: C_6  and  N_10
REMARK    3  A    between atoms: C_13  and  N_14
REMARK    4  A    between atoms: N_14  and  C_15
REMARK    5  A    between atoms: C_15  and  C_16
REMARK    6  A    between atoms: N_25  and  C_26
REMARK                            x       y       z     vdW  Elec       q    Type
REMARK                         _______ _______ _______ _____ _____    ______ ____
ROOT
ATOM      1  N   UNL     1       4.672  -2.158  27.708  0.00  0.00    -0.311 N 
ATOM      2  H   UNL     1       5.014  -1.914  28.630  0.00  0.00    +0.149 HD
ATOM      3  C   UNL     1       5.684  -1.904  26.794  0.00  0.00    +0.219 A 
ATOM      4  N   UNL     1       5.811  -2.724  25.740  0.00  0.00    -0.195 NA
ATOM      5  C   UNL     1       6.867  -2.431  24.977  0.00  0.00    +0.167 A 
ATOM      6  C   UNL     1       7.742  -1.380  25.140  0.00  0.00    +0.148 A 
ATOM      7  N   UNL     1       8.715  -1.396  24.160  0.00  0.00    -0.231 NA
ATOM      8  C   UNL     1       8.430  -2.451  23.426  0.00  0.00    +0.202 A 
ATOM      9  C   UNL     1       7.500  -0.516  26.222  0.00  0.00    +0.152 A 
ATOM     10  N   UNL     1       7.307  -3.098  23.868  0.00  0.00    -0.312 N 
ATOM     11  N   UNL     1       6.482  -0.845  27.072  0.00  0.00    -0.197 NA
ENDROOT
BRANCH   1  15
ATOM     12  C   UNL     1       2.693  -3.722  30.303  0.00  0.00    +0.051 C 
ATOM     13  C   UNL     1       2.165  -2.674  29.315  0.00  0.00    +0.020 C 
ATOM     14  C   UNL     1       2.392  -3.061  27.849  0.00  0.00    +0.024 C 
ATOM     15  C   UNL     1       3.872  -3.372  27.558  0.00  0.00    +0.073 C 
ATOM     16  C   UNL     1       4.373  -4.463  28.515  0.00  0.00    +0.024 C 
ATOM     17  C   UNL     1       4.143  -4.111  29.987  0.00  0.00    +0.020 C 
BRANCH  12  18
ATOM     18  N   UNL     1       1.839  -4.914  30.314  0.00  0.00    -0.327 NA
ATOM     19  H   UNL     1       1.139  -4.819  31.051  0.00  0.00    +0.118 HD
ATOM     20  H   UNL     1       1.319  -4.996  29.443  0.00  0.00    +0.118 HD
ENDBRANCH  12  18
ENDBRANCH   1  15
BRANCH  10  21
ATOM     21  C   UNL     1       6.711  -4.265  23.262  0.00  0.00    +0.090 C 
ATOM     22  C   UNL     1       7.652  -5.474  23.148  0.00  0.00    +0.025 C 
ATOM     23  C   UNL     1       7.257  -6.201  21.862  0.00  0.00    +0.002 C 
ATOM     24  C   UNL     1       6.038  -5.470  21.313  0.00  0.00    +0.002 C 
ATOM     25  C   UNL     1       6.177  -4.052  21.844  0.00  0.00    +0.025 C 
ENDBRANCH  10  21
BRANCH   9  26
ATOM     26  N   UNL     1       8.264   0.638  26.372  0.00  0.00    -0.323 N 
ATOM     27  H   UNL     1       8.571   0.748  27.336  0.00  0.00    +0.148 HD
BRANCH  26  28
ATOM     28  C   UNL     1       7.844   1.852  25.711  0.00  0.00    +0.138 C 
BRANCH  28  29
ATOM     29  C   UNL     1       8.472   1.896  24.328  0.00  0.00    -0.030 A 
ATOM     30  C   UNL     1       9.860   2.032  24.172  0.00  0.00    +0.005 A 
ATOM     31  C   UNL     1      10.434   2.043  22.896  0.00  0.00    +0.000 A 
ATOM     32  C   UNL     1       9.633   1.916  21.764  0.00  0.00    +0.000 A 
ATOM     33  C   UNL     1       8.252   1.784  21.904  0.00  0.00    +0.000 A 
ATOM     34  C   UNL     1       7.676   1.777  23.178  0.00  0.00    +0.005 A 
ENDBRANCH  28  29
ENDBRANCH  26  28
ENDBRANCH   9  26
TORSDOF 6
ENDMDL
MODEL 9
REMARK VINA RESULT:      -6.6      3.379      8.547
REMARK  Name = 
REMARK  6 active torsions:
REMARK  status: ('A' for Active; 'I' for Inactive)
REMARK    1  A    between atoms: C_2  and  N_3
REMARK    2  A    between atoms: C_6  and  N_10
REMARK    3  A    between atoms: C_13  and  N_14
REMARK    4  A    between atoms: N_14  and  C_15
REMARK    5  A    between atoms: C_15  and  C_16
REMARK    6  A    between atoms: N_25  and  C_26
REMARK                            x       y       z     vdW  Elec       q    Type
REMARK                         _______ _______ _______ _____ _____    ______ ____
ROOT
ATOM      1  N   UNL     1       4.945   1.960  23.938  0.00  0.00    -0.311 N 
ATOM      2  H   UNL     1       4.418   1.404  23.274  0.00  0.00    +0.149 HD
ATOM      3  C   UNL     1       6.260   1.522  23.915  0.00  0.00    +0.219 A 
ATOM      4  N   UNL     1       7.236   2.428  24.084  0.00  0.00    -0.195 NA
ATOM      5  C   UNL     1       8.458   1.905  23.961  0.00  0.00    +0.167 A 
ATOM      6  C   UNL     1       8.777   0.581  23.753  0.00  0.00    +0.148 A 
ATOM      7  N   UNL     1      10.145   0.413  23.675  0.00  0.00    -0.231 NA
ATOM      8  C   UNL     1      10.638   1.625  23.823  0.00  0.00    +0.202 A 
ATOM      9  C   UNL     1       7.704  -0.322  23.665  0.00  0.00    +0.152 A 
ATOM     10  N   UNL     1       9.657   2.559  24.020  0.00  0.00    -0.312 N 
ATOM     11  N   UNL     1       6.441   0.198  23.695  0.00  0.00    -0.197 NA
ENDROOT
BRANCH   1  15
ATOM     12  C   UNL     1       1.825   3.581  23.076  0.00  0.00    +0.051 C 
ATOM     13  C   UNL     1       2.193   3.086  24.481  0.00  0.00    +0.020 C 
ATOM     14  C   UNL     1       3.519   3.659  24.993  0.00  0.00    +0.024 C 
ATOM     15  C   UNL     1       4.677   3.395  24.013  0.00  0.00    +0.073 C 
ATOM     16  C   UNL     1       4.322   3.946  22.625  0.00  0.00    +0.024 C 
ATOM     17  C   UNL     1       2.993   3.404  22.096  0.00  0.00    +0.020 C 
BRANCH  12  18
ATOM     18  N   UNL     1       1.397   4.983  23.107  0.00  0.00    -0.327 NA
ATOM     19  H   UNL     1       1.852   5.456  23.889  0.00  0.00    +0.118 HD
ATOM     20  H   UNL     1       1.700   5.474  22.268  0.00  0.00    +0.118 HD
ENDBRANCH  12  18
ENDBRANCH   1  15
BRANCH  10  21
ATOM     21  C   UNL     1       9.867   3.970  24.251  0.00  0.00    +0.090 C 
ATOM     22  C   UNL     1       8.762   4.877  23.688  0.00  0.00    +0.025 C 
ATOM     23  C   UNL     1       9.455   6.167  23.249  0.00  0.00    +0.002 C 
ATOM     24  C   UNL     1      10.917   6.030  23.657  0.00  0.00    +0.002 C 
ATOM     25  C   UNL     1      11.166   4.531  23.670  0.00  0.00    +0.025 C 
ENDBRANCH  10  21
BRANCH   9  26
ATOM     26  N   UNL     1       7.955  -1.689  23.586  0.00  0.00    -0.323 N 
ATOM     27  H   UNL     1       8.790  -1.937  24.113  0.00  0.00    +0.148 HD
BRANCH  26  28
ATOM     28  C   UNL     1       7.798  -2.363  22.318  0.00  0.00    +0.138 C 
BRANCH  28  29
ATOM     29  C   UNL     1       6.807  -3.502  22.491  0.00  0.00    -0.030 A 
ATOM     30  C   UNL     1       5.497  -3.256  22.929  0.00  0.00    +0.005 A 
ATOM     31  C   UNL     1       4.582  -4.306  23.059  0.00  0.00    +0.000 A 
ATOM     32  C   UNL     1       4.962  -5.610  22.752  0.00  0.00    +0.000 A 
ATOM     33  C   UNL     1       6.262  -5.870  22.320  0.00  0.00    +0.000 A 
ATOM     34  C   UNL     1       7.179  -4.823  22.193  0.00  0.00    +0.005 A 
ENDBRANCH  28  29
ENDBRANCH  26  28
ENDBRANCH   9  26
TORSDOF 6
ENDMDL
