MODEL 1
REMARK VINA RESULT:      -7.0      0.000      0.000
REMARK  Name = 
REMARK  10 active torsions:
REMARK  status: ('A' for Active; 'I' for Inactive)
REMARK    1  A    between atoms: C_5  and  C_6
REMARK    2  A    between atoms: C_6  and  O_7
REMARK    3  A    between atoms: O_7  and  C_8
REMARK    4  A    between atoms: C_8  and  C_9
REMARK    5  A    between atoms: CA_11  and  C_28
REMARK    6  A    between atoms: CA_15  and  N_17
REMARK    7  A    between atoms: C_18  and  C_20
REMARK    8  A    between atoms: C_20  and  S_21
REMARK    9  A    between atoms: S_21  and  C_22
REMARK   10  A    between atoms: C_28  and  O_29
REMARK                            x       y       z     vdW  Elec       q    Type
REMARK                         _______ _______ _______ _____ _____    ______ ____
ROOT
ATOM      1  C   UNL     1       8.760  -1.337  25.700  0.00  0.00    +0.169 C 
ATOM      2  CA  UNL     1       9.464  -0.630  24.495  0.00  0.00    +0.191 C 
ATOM      3  C   UNL     1       9.824  -2.101  24.075  0.00  0.00    +0.244 C 
ATOM      4  O   UNL     1      10.483  -2.691  23.254  0.00  0.00    -0.273 OA
ATOM      5  N   UNL     1       8.988  -2.594  25.013  0.00  0.00    -0.249 N 
ATOM      6  CA  UNL     1       8.416  -3.793  25.343  0.00  0.00    +0.125 C 
ATOM      7  C   UNL     1       7.344  -3.810  26.188  0.00  0.00    +0.006 C 
ATOM      8  C   UNL     1       6.688  -2.564  26.761  0.00  0.00    +0.107 C 
ATOM      9  S   UNL     1       6.982  -1.047  25.832  0.00  0.00    -0.131 S 
ENDROOT
BRANCH   2  10
ATOM     10  N   UNL     1       8.565   0.123  23.576  0.00  0.00    -0.301 N 
ATOM     11  H   UNL     1       7.566   0.151  23.774  0.00  0.00    +0.150 HD
ATOM     12  C   UNL     1       9.016   0.803  22.467  0.00  0.00    +0.224 C 
ATOM     13  O   UNL     1      10.199   0.836  22.148  0.00  0.00    -0.275 OA
BRANCH  12  14
ATOM     14  C   UNL     1       7.922   1.472  21.649  0.00  0.00    +0.170 C 
BRANCH  14  15
ATOM     15  S   UNL     1       6.854   2.438  22.772  0.00  0.00    -0.116 S 
BRANCH  15  16
ATOM     16  C   UNL     1       7.723   3.983  22.982  0.00  0.00    +0.011 A 
ATOM     17  C   UNL     1       7.191   5.084  22.305  0.00  0.00    +0.034 A 
ATOM     18  C   UNL     1       7.823   6.310  22.419  0.00  0.00    +0.112 A 
ATOM     19  N   UNL     1       8.935   6.509  23.150  0.00  0.00    -0.263 NA
ATOM     20  C   UNL     1       9.435   5.435  23.796  0.00  0.00    +0.112 A 
ATOM     21  C   UNL     1       8.876   4.167  23.744  0.00  0.00    +0.034 A 
ENDBRANCH  15  16
ENDBRANCH  14  15
ENDBRANCH  12  14
ENDBRANCH   2  10
BRANCH   6  22
ATOM     22  C   UNL     1       8.912  -5.088  24.716  0.00  0.00    +0.351 C 
ATOM     23  OXT UNL     1       8.488  -5.524  23.655  0.00  0.00    -0.244 OA
BRANCH  22  24
ATOM     24  O   UNL     1       9.807  -5.811  25.412  0.00  0.00    -0.476 OA
ATOM     25  H   UNL     1       9.463  -6.502  26.021  0.00  0.00    +0.295 HD
ENDBRANCH  22  24
ENDBRANCH   6  22
BRANCH   7  26
ATOM     26  C   UNL     1       6.598  -5.079  26.604  0.00  0.00    +0.266 C 
BRANCH  26  27
ATOM     27  O   UNL     1       7.206  -5.656  27.780  0.00  0.00    -0.460 OA
BRANCH  27  28
ATOM     28  C   UNL     1       6.361  -6.217  28.687  0.00  0.00    +0.304 C 
ATOM     29  O   UNL     1       6.321  -7.399  28.992  0.00  0.00    -0.251 OA
ATOM     30  C   UNL     1       5.419  -5.188  29.235  0.00  0.00    +0.136 C 
ENDBRANCH  27  28
ENDBRANCH  26  27
ENDBRANCH   7  26
TORSDOF 9
ENDMDL
MODEL 2
REMARK VINA RESULT:      -6.9      3.037      3.804
REMARK  Name = 
REMARK  10 active torsions:
REMARK  status: ('A' for Active; 'I' for Inactive)
REMARK    1  A    between atoms: C_5  and  C_6
REMARK    2  A    between atoms: C_6  and  O_7
REMARK    3  A    between atoms: O_7  and  C_8
REMARK    4  A    between atoms: C_8  and  C_9
REMARK    5  A    between atoms: CA_11  and  C_28
REMARK    6  A    between atoms: CA_15  and  N_17
REMARK    7  A    between atoms: C_18  and  C_20
REMARK    8  A    between atoms: C_20  and  S_21
REMARK    9  A    between atoms: S_21  and  C_22
REMARK   10  A    between atoms: C_28  and  O_29
REMARK                            x       y       z     vdW  Elec       q    Type
REMARK                         _______ _______ _______ _____ _____    ______ ____
ROOT
ATOM      1  C   UNL     1       8.273  -4.880  24.978  0.00  0.00    +0.169 C 
ATOM      2  CA  UNL     1       9.046  -3.789  24.166  0.00  0.00    +0.191 C 
ATOM      3  C   UNL     1       7.891  -4.003  23.124  0.00  0.00    +0.244 C 
ATOM      4  O   UNL     1       7.580  -3.662  22.008  0.00  0.00    -0.273 OA
ATOM      5  N   UNL     1       7.199  -4.744  24.014  0.00  0.00    -0.249 N 
ATOM      6  CA  UNL     1       5.936  -5.254  24.157  0.00  0.00    +0.125 C 
ATOM      7  C   UNL     1       5.526  -5.685  25.386  0.00  0.00    +0.006 C 
ATOM      8  C   UNL     1       6.367  -5.590  26.648  0.00  0.00    +0.107 C 
ATOM      9  S   UNL     1       7.682  -4.357  26.603  0.00  0.00    -0.131 S 
ENDROOT
BRANCH   2  10
ATOM     10  N   UNL     1       9.125  -2.446  24.807  0.00  0.00    -0.301 N 
ATOM     11  H   UNL     1       8.743  -2.320  25.742  0.00  0.00    +0.150 HD
ATOM     12  C   UNL     1       9.707  -1.354  24.202  0.00  0.00    +0.224 C 
ATOM     13  O   UNL     1      10.203  -1.404  23.082  0.00  0.00    -0.275 OA
BRANCH  12  14
ATOM     14  C   UNL     1       9.645  -0.073  25.020  0.00  0.00    +0.170 C 
BRANCH  14  15
ATOM     15  S   UNL     1      10.576   1.232  24.144  0.00  0.00    -0.116 S 
BRANCH  15  16
ATOM     16  C   UNL     1       9.311   2.303  23.483  0.00  0.00    +0.011 A 
ATOM     17  C   UNL     1       8.599   1.809  22.386  0.00  0.00    +0.034 A 
ATOM     18  C   UNL     1       7.610   2.594  21.820  0.00  0.00    +0.112 A 
ATOM     19  N   UNL     1       7.287   3.822  22.267  0.00  0.00    -0.263 NA
ATOM     20  C   UNL     1       7.983   4.282  23.328  0.00  0.00    +0.112 A 
ATOM     21  C   UNL     1       8.993   3.573  23.962  0.00  0.00    +0.034 A 
ENDBRANCH  15  16
ENDBRANCH  14  15
ENDBRANCH  12  14
ENDBRANCH   2  10
BRANCH   6  22
ATOM     22  C   UNL     1       4.967  -5.266  22.983  0.00  0.00    +0.351 C 
ATOM     23  OXT UNL     1       4.253  -4.316  22.693  0.00  0.00    -0.244 OA
BRANCH  22  24
ATOM     24  O   UNL     1       4.850  -6.412  22.288  0.00  0.00    -0.476 OA
ATOM     25  H   UNL     1       5.590  -7.057  22.341  0.00  0.00    +0.295 HD
ENDBRANCH  22  24
ENDBRANCH   6  22
BRANCH   7  26
ATOM     26  C   UNL     1       4.132  -6.240  25.680  0.00  0.00    +0.266 C 
BRANCH  26  27
ATOM     27  O   UNL     1       3.973  -7.543  25.077  0.00  0.00    -0.460 OA
BRANCH  27  28
ATOM     28  C   UNL     1       2.713  -7.885  24.693  0.00  0.00    +0.304 C 
ATOM     29  O   UNL     1       2.314  -9.019  24.475  0.00  0.00    -0.251 OA
ATOM     30  C   UNL     1       1.872  -6.659  24.503  0.00  0.00    +0.136 C 
ENDBRANCH  27  28
ENDBRANCH  26  27
ENDBRANCH   7  26
TORSDOF 9
ENDMDL
MODEL 3
REMARK VINA RESULT:      -6.8      2.232      2.750
REMARK  Name = 
REMARK  10 active torsions:
REMARK  status: ('A' for Active; 'I' for Inactive)
REMARK    1  A    between atoms: C_5  and  C_6
REMARK    2  A    between atoms: C_6  and  O_7
REMARK    3  A    between atoms: O_7  and  C_8
REMARK    4  A    between atoms: C_8  and  C_9
REMARK    5  A    between atoms: CA_11  and  C_28
REMARK    6  A    between atoms: CA_15  and  N_17
REMARK    7  A    between atoms: C_18  and  C_20
REMARK    8  A    between atoms: C_20  and  S_21
REMARK    9  A    between atoms: S_21  and  C_22
REMARK   10  A    between atoms: C_28  and  O_29
REMARK                            x       y       z     vdW  Elec       q    Type
REMARK                         _______ _______ _______ _____ _____    ______ ____
ROOT
ATOM      1  C   UNL     1       8.863  -4.057  24.630  0.00  0.00    +0.169 C 
ATOM      2  CA  UNL     1       9.181  -2.800  23.754  0.00  0.00    +0.191 C 
ATOM      3  C   UNL     1       7.906  -3.257  22.956  0.00  0.00    +0.244 C 
ATOM      4  O   UNL     1       7.295  -2.977  21.953  0.00  0.00    -0.273 OA
ATOM      5  N   UNL     1       7.604  -4.156  23.917  0.00  0.00    -0.249 N 
ATOM      6  CA  UNL     1       6.548  -4.948  24.279  0.00  0.00    +0.125 C 
ATOM      7  C   UNL     1       6.518  -5.486  25.534  0.00  0.00    +0.006 C 
ATOM      8  C   UNL     1       7.567  -5.222  26.601  0.00  0.00    +0.107 C 
ATOM      9  S   UNL     1       8.532  -3.716  26.373  0.00  0.00    -0.131 S 
ENDROOT
BRANCH   2  10
ATOM     10  N   UNL     1       9.093  -1.488  24.454  0.00  0.00    -0.301 N 
ATOM     11  H   UNL     1       8.595  -1.432  25.341  0.00  0.00    +0.150 HD
ATOM     12  C   UNL     1       9.667  -0.333  23.970  0.00  0.00    +0.224 C 
ATOM     13  O   UNL     1      10.293  -0.297  22.917  0.00  0.00    -0.275 OA
BRANCH  12  14
ATOM     14  C   UNL     1       9.423   0.900  24.827  0.00  0.00    +0.170 C 
BRANCH  14  15
ATOM     15  S   UNL     1       8.613   2.177  23.804  0.00  0.00    -0.116 S 
BRANCH  15  16
ATOM     16  C   UNL     1       9.812   3.496  23.721  0.00  0.00    +0.011 A 
ATOM     17  C   UNL     1       9.353   4.767  24.080  0.00  0.00    +0.034 A 
ATOM     18  C   UNL     1      10.231   5.836  24.029  0.00  0.00    +0.112 A 
ATOM     19  N   UNL     1      11.518   5.725  23.649  0.00  0.00    -0.263 NA
ATOM     20  C   UNL     1      11.943   4.491  23.307  0.00  0.00    +0.112 A 
ATOM     21  C   UNL     1      11.141   3.359  23.324  0.00  0.00    +0.034 A 
ENDBRANCH  15  16
ENDBRANCH  14  15
ENDBRANCH  12  14
ENDBRANCH   2  10
BRANCH   6  22
ATOM     22  C   UNL     1       5.378  -5.163  23.331  0.00  0.00    +0.351 C 
ATOM     23  OXT UNL     1       4.440  -4.384  23.235  0.00  0.00    -0.244 OA
BRANCH  22  24
ATOM     24  O   UNL     1       5.355  -6.307  22.623  0.00  0.00    -0.476 OA
ATOM     25  H   UNL     1       4.482  -6.728  22.462  0.00  0.00    +0.295 HD
ENDBRANCH  22  24
ENDBRANCH   6  22
BRANCH   7  26
ATOM     26  C   UNL     1       5.379  -6.355  26.068  0.00  0.00    +0.266 C 
BRANCH  26  27
ATOM     27  O   UNL     1       4.939  -5.871  27.355  0.00  0.00    -0.460 OA
BRANCH  27  28
ATOM     28  C   UNL     1       4.904  -6.780  28.367  0.00  0.00    +0.304 C 
ATOM     29  O   UNL     1       5.789  -7.574  28.647  0.00  0.00    -0.251 OA
ATOM     30  C   UNL     1       3.584  -6.727  29.075  0.00  0.00    +0.136 C 
ENDBRANCH  27  28
ENDBRANCH  26  27
ENDBRANCH   7  26
TORSDOF 9
ENDMDL
MODEL 4
REMARK VINA RESULT:      -6.8      2.828      8.707
REMARK  Name = 
REMARK  10 active torsions:
REMARK  status: ('A' for Active; 'I' for Inactive)
REMARK    1  A    between atoms: C_5  and  C_6
REMARK    2  A    between atoms: C_6  and  O_7
REMARK    3  A    between atoms: O_7  and  C_8
REMARK    4  A    between atoms: C_8  and  C_9
REMARK    5  A    between atoms: CA_11  and  C_28
REMARK    6  A    between atoms: CA_15  and  N_17
REMARK    7  A    between atoms: C_18  and  C_20
REMARK    8  A    between atoms: C_20  and  S_21
REMARK    9  A    between atoms: S_21  and  C_22
REMARK   10  A    between atoms: C_28  and  O_29
REMARK                            x       y       z     vdW  Elec       q    Type
REMARK                         _______ _______ _______ _____ _____    ______ ____
ROOT
ATOM      1  C   UNL     1       8.691   0.013  22.715  0.00  0.00    +0.169 C 
ATOM      2  CA  UNL     1       9.646  -0.861  23.595  0.00  0.00    +0.191 C 
ATOM      3  C   UNL     1      10.236   0.531  24.019  0.00  0.00    +0.244 C 
ATOM      4  O   UNL     1      11.150   0.990  24.661  0.00  0.00    -0.273 OA
ATOM      5  N   UNL     1       9.213   1.171  23.414  0.00  0.00    -0.249 N 
ATOM      6  CA  UNL     1       8.677   2.430  23.373  0.00  0.00    +0.125 C 
ATOM      7  C   UNL     1       7.414   2.601  22.883  0.00  0.00    +0.006 C 
ATOM      8  C   UNL     1       6.517   1.465  22.420  0.00  0.00    +0.107 C 
ATOM      9  S   UNL     1       6.931  -0.159  23.084  0.00  0.00    -0.131 S 
ENDROOT
BRANCH   2  10
ATOM     10  N   UNL     1       8.984  -1.658  24.666  0.00  0.00    -0.301 N 
ATOM     11  H   UNL     1       8.297  -1.206  25.266  0.00  0.00    +0.150 HD
ATOM     12  C   UNL     1       9.243  -2.993  24.884  0.00  0.00    +0.224 C 
ATOM     13  O   UNL     1      10.047  -3.629  24.212  0.00  0.00    -0.275 OA
BRANCH  12  14
ATOM     14  C   UNL     1       8.483  -3.600  26.054  0.00  0.00    +0.170 C 
BRANCH  14  15
ATOM     15  S   UNL     1       7.724  -5.170  25.513  0.00  0.00    -0.116 S 
BRANCH  15  16
ATOM     16  C   UNL     1       6.847  -4.740  24.019  0.00  0.00    +0.011 A 
ATOM     17  C   UNL     1       7.263  -5.389  22.853  0.00  0.00    +0.034 A 
ATOM     18  C   UNL     1       6.630  -5.094  21.659  0.00  0.00    +0.112 A 
ATOM     19  N   UNL     1       5.624  -4.206  21.549  0.00  0.00    -0.263 NA
ATOM     20  C   UNL     1       5.235  -3.589  22.684  0.00  0.00    +0.112 A 
ATOM     21  C   UNL     1       5.808  -3.815  23.928  0.00  0.00    +0.034 A 
ENDBRANCH  15  16
ENDBRANCH  14  15
ENDBRANCH  12  14
ENDBRANCH   2  10
BRANCH   6  22
ATOM     22  C   UNL     1       9.441   3.618  23.940  0.00  0.00    +0.351 C 
ATOM     23  OXT UNL     1       9.217   4.095  25.043  0.00  0.00    -0.244 OA
BRANCH  22  24
ATOM     24  O   UNL     1      10.354   4.205  23.145  0.00  0.00    -0.476 OA
ATOM     25  H   UNL     1      11.282   3.883  23.198  0.00  0.00    +0.295 HD
ENDBRANCH  22  24
ENDBRANCH   6  22
BRANCH   7  26
ATOM     26  C   UNL     1       6.694   3.948  22.818  0.00  0.00    +0.266 C 
BRANCH  26  27
ATOM     27  O   UNL     1       7.354   4.826  21.880  0.00  0.00    -0.460 OA
BRANCH  27  28
ATOM     28  C   UNL     1       7.497   6.125  22.259  0.00  0.00    +0.304 C 
ATOM     29  O   UNL     1       8.513   6.631  22.708  0.00  0.00    -0.251 OA
ATOM     30  C   UNL     1       6.199   6.860  22.112  0.00  0.00    +0.136 C 
ENDBRANCH  27  28
ENDBRANCH  26  27
ENDBRANCH   7  26
TORSDOF 9
ENDMDL
MODEL 5
REMARK VINA RESULT:      -6.7      3.914      7.749
REMARK  Name = 
REMARK  10 active torsions:
REMARK  status: ('A' for Active; 'I' for Inactive)
REMARK    1  A    between atoms: C_5  and  C_6
REMARK    2  A    between atoms: C_6  and  O_7
REMARK    3  A    between atoms: O_7  and  C_8
REMARK    4  A    between atoms: C_8  and  C_9
REMARK    5  A    between atoms: CA_11  and  C_28
REMARK    6  A    between atoms: CA_15  and  N_17
REMARK    7  A    between atoms: C_18  and  C_20
REMARK    8  A    between atoms: C_20  and  S_21
REMARK    9  A    between atoms: S_21  and  C_22
REMARK   10  A    between atoms: C_28  and  O_29
REMARK                            x       y       z     vdW  Elec       q    Type
REMARK                         _______ _______ _______ _____ _____    ______ ____
ROOT
ATOM      1  C   UNL     1       8.135  -4.614  26.490  0.00  0.00    +0.169 C 
ATOM      2  CA  UNL     1       6.798  -5.244  27.004  0.00  0.00    +0.191 C 
ATOM      3  C   UNL     1       6.350  -3.744  27.131  0.00  0.00    +0.244 C 
ATOM      4  O   UNL     1       5.428  -3.088  27.554  0.00  0.00    -0.273 OA
ATOM      5  N   UNL     1       7.445  -3.339  26.455  0.00  0.00    -0.249 N 
ATOM      6  CA  UNL     1       7.910  -2.203  25.848  0.00  0.00    +0.125 C 
ATOM      7  C   UNL     1       8.950  -2.294  24.968  0.00  0.00    +0.006 C 
ATOM      8  C   UNL     1       9.612  -3.601  24.562  0.00  0.00    +0.107 C 
ATOM      9  S   UNL     1       8.608  -5.079  24.809  0.00  0.00    -0.131 S 
ENDROOT
BRANCH   2  10
ATOM     10  N   UNL     1       6.058  -6.078  26.016  0.00  0.00    -0.301 N 
ATOM     11  H   UNL     1       6.548  -6.423  25.193  0.00  0.00    +0.150 HD
ATOM     12  C   UNL     1       4.733  -6.426  26.163  0.00  0.00    +0.224 C 
ATOM     13  O   UNL     1       4.058  -6.068  27.122  0.00  0.00    -0.275 OA
BRANCH  12  14
ATOM     14  C   UNL     1       4.167  -7.253  25.018  0.00  0.00    +0.170 C 
BRANCH  14  15
ATOM     15  S   UNL     1       3.316  -6.136  23.850  0.00  0.00    -0.116 S 
BRANCH  15  16
ATOM     16  C   UNL     1       4.638  -5.214  23.084  0.00  0.00    +0.011 A 
ATOM     17  C   UNL     1       4.746  -3.871  23.456  0.00  0.00    +0.034 A 
ATOM     18  C   UNL     1       5.744  -3.098  22.891  0.00  0.00    +0.112 A 
ATOM     19  N   UNL     1       6.631  -3.566  21.993  0.00  0.00    -0.263 NA
ATOM     20  C   UNL     1       6.512  -4.865  21.646  0.00  0.00    +0.112 A 
ATOM     21  C   UNL     1       5.544  -5.719  22.154  0.00  0.00    +0.034 A 
ENDBRANCH  15  16
ENDBRANCH  14  15
ENDBRANCH  12  14
ENDBRANCH   2  10
BRANCH   6  22
ATOM     22  C   UNL     1       7.227  -0.863  26.083  0.00  0.00    +0.351 C 
ATOM     23  OXT UNL     1       7.654  -0.019  26.857  0.00  0.00    -0.244 OA
BRANCH  22  24
ATOM     24  O   UNL     1       6.057  -0.645  25.455  0.00  0.00    -0.476 OA
ATOM     25  H   UNL     1       5.231  -0.750  25.977  0.00  0.00    +0.295 HD
ENDBRANCH  22  24
ENDBRANCH   6  22
BRANCH   7  26
ATOM     26  C   UNL     1       9.534  -1.107  24.203  0.00  0.00    +0.266 C 
BRANCH  26  27
ATOM     27  O   UNL     1       9.042  -1.094  22.845  0.00  0.00    -0.460 OA
BRANCH  27  28
ATOM     28  C   UNL     1       8.311  -0.008  22.473  0.00  0.00    +0.304 C 
ATOM     29  O   UNL     1       7.139   0.193  22.747  0.00  0.00    -0.251 OA
ATOM     30  C   UNL     1       9.130   0.905  21.610  0.00  0.00    +0.136 C 
ENDBRANCH  27  28
ENDBRANCH  26  27
ENDBRANCH   7  26
TORSDOF 9
ENDMDL
MODEL 6
REMARK VINA RESULT:      -6.7      1.022      1.281
REMARK  Name = 
REMARK  10 active torsions:
REMARK  status: ('A' for Active; 'I' for Inactive)
REMARK    1  A    between atoms: C_5  and  C_6
REMARK    2  A    between atoms: C_6  and  O_7
REMARK    3  A    between atoms: O_7  and  C_8
REMARK    4  A    between atoms: C_8  and  C_9
REMARK    5  A    between atoms: CA_11  and  C_28
REMARK    6  A    between atoms: CA_15  and  N_17
REMARK    7  A    between atoms: C_18  and  C_20
REMARK    8  A    between atoms: C_20  and  S_21
REMARK    9  A    between atoms: S_21  and  C_22
REMARK   10  A    between atoms: C_28  and  O_29
REMARK                            x       y       z     vdW  Elec       q    Type
REMARK                         _______ _______ _______ _____ _____    ______ ____
ROOT
ATOM      1  C   UNL     1       8.839  -1.088  25.611  0.00  0.00    +0.169 C 
ATOM      2  CA  UNL     1       9.512  -0.409  24.373  0.00  0.00    +0.191 C 
ATOM      3  C   UNL     1       9.903  -1.885  24.002  0.00  0.00    +0.244 C 
ATOM      4  O   UNL     1      10.566  -2.489  23.194  0.00  0.00    -0.273 OA
ATOM      5  N   UNL     1       9.088  -2.363  24.966  0.00  0.00    -0.249 N 
ATOM      6  CA  UNL     1       8.548  -3.563  25.346  0.00  0.00    +0.125 C 
ATOM      7  C   UNL     1       7.486  -3.574  26.204  0.00  0.00    +0.006 C 
ATOM      8  C   UNL     1       6.808  -2.324  26.739  0.00  0.00    +0.107 C 
ATOM      9  S   UNL     1       7.055  -0.835  25.753  0.00  0.00    -0.131 S 
ENDROOT
BRANCH   2  10
ATOM     10  N   UNL     1       8.586   0.289  23.439  0.00  0.00    -0.301 N 
ATOM     11  H   UNL     1       7.587   0.286  23.637  0.00  0.00    +0.150 HD
ATOM     12  C   UNL     1       9.011   0.961  22.314  0.00  0.00    +0.224 C 
ATOM     13  O   UNL     1      10.192   1.030  21.992  0.00  0.00    -0.275 OA
BRANCH  12  14
ATOM     14  C   UNL     1       7.893   1.571  21.482  0.00  0.00    +0.170 C 
BRANCH  14  15
ATOM     15  S   UNL     1       6.784   2.512  22.587  0.00  0.00    -0.116 S 
BRANCH  15  16
ATOM     16  C   UNL     1       7.694   4.004  22.951  0.00  0.00    +0.011 A 
ATOM     17  C   UNL     1       7.274   5.158  22.283  0.00  0.00    +0.034 A 
ATOM     18  C   UNL     1       7.944   6.347  22.513  0.00  0.00    +0.112 A 
ATOM     19  N   UNL     1       8.989   6.462  23.354  0.00  0.00    -0.263 NA
ATOM     20  C   UNL     1       9.380   5.338  23.990  0.00  0.00    +0.112 A 
ATOM     21  C   UNL     1       8.776   4.100  23.824  0.00  0.00    +0.034 A 
ENDBRANCH  15  16
ENDBRANCH  14  15
ENDBRANCH  12  14
ENDBRANCH   2  10
BRANCH   6  22
ATOM     22  C   UNL     1       9.067  -4.867  24.759  0.00  0.00    +0.351 C 
ATOM     23  OXT UNL     1       8.627  -5.363  23.731  0.00  0.00    -0.244 OA
BRANCH  22  24
ATOM     24  O   UNL     1      10.006  -5.532  25.458  0.00  0.00    -0.476 OA
ATOM     25  H   UNL     1      10.829  -5.792  24.987  0.00  0.00    +0.295 HD
ENDBRANCH  22  24
ENDBRANCH   6  22
BRANCH   7  26
ATOM     26  C   UNL     1       6.776  -4.844  26.673  0.00  0.00    +0.266 C 
BRANCH  26  27
ATOM     27  O   UNL     1       5.771  -5.242  25.714  0.00  0.00    -0.460 OA
BRANCH  27  28
ATOM     28  C   UNL     1       5.150  -6.431  25.942  0.00  0.00    +0.304 C 
ATOM     29  O   UNL     1       5.309  -7.145  26.919  0.00  0.00    -0.251 OA
ATOM     30  C   UNL     1       4.271  -6.794  24.783  0.00  0.00    +0.136 C 
ENDBRANCH  27  28
ENDBRANCH  26  27
ENDBRANCH   7  26
TORSDOF 9
ENDMDL
MODEL 7
REMARK VINA RESULT:      -6.7      2.726      3.378
REMARK  Name = 
REMARK  10 active torsions:
REMARK  status: ('A' for Active; 'I' for Inactive)
REMARK    1  A    between atoms: C_5  and  C_6
REMARK    2  A    between atoms: C_6  and  O_7
REMARK    3  A    between atoms: O_7  and  C_8
REMARK    4  A    between atoms: C_8  and  C_9
REMARK    5  A    between atoms: CA_11  and  C_28
REMARK    6  A    between atoms: CA_15  and  N_17
REMARK    7  A    between atoms: C_18  and  C_20
REMARK    8  A    between atoms: C_20  and  S_21
REMARK    9  A    between atoms: S_21  and  C_22
REMARK   10  A    between atoms: C_28  and  O_29
REMARK                            x       y       z     vdW  Elec       q    Type
REMARK                         _______ _______ _______ _____ _____    ______ ____
ROOT
ATOM      1  C   UNL     1       9.134  -3.565  24.493  0.00  0.00    +0.169 C 
ATOM      2  CA  UNL     1       9.743  -2.278  23.847  0.00  0.00    +0.191 C 
ATOM      3  C   UNL     1       8.769  -2.627  22.665  0.00  0.00    +0.244 C 
ATOM      4  O   UNL     1       8.508  -2.262  21.544  0.00  0.00    -0.273 OA
ATOM      5  N   UNL     1       8.158  -3.564  23.421  0.00  0.00    -0.249 N 
ATOM      6  CA  UNL     1       7.020  -4.325  23.384  0.00  0.00    +0.125 C 
ATOM      7  C   UNL     1       6.586  -4.931  24.527  0.00  0.00    +0.006 C 
ATOM      8  C   UNL     1       7.257  -4.778  25.882  0.00  0.00    +0.107 C 
ATOM      9  S   UNL     1       8.286  -3.309  26.068  0.00  0.00    -0.131 S 
ENDROOT
BRANCH   2  10
ATOM     10  N   UNL     1       9.478  -1.005  24.574  0.00  0.00    -0.301 N 
ATOM     11  H   UNL     1       9.137  -1.044  25.533  0.00  0.00    +0.150 HD
ATOM     12  C   UNL     1       9.683   0.239  24.020  0.00  0.00    +0.224 C 
ATOM     13  O   UNL     1      10.099   0.394  22.877  0.00  0.00    -0.275 OA
BRANCH  12  14
ATOM     14  C   UNL     1       9.312   1.403  24.927  0.00  0.00    +0.170 C 
BRANCH  14  15
ATOM     15  S   UNL     1       8.650   2.762  23.902  0.00  0.00    -0.116 S 
BRANCH  15  16
ATOM     16  C   UNL     1      10.000   3.925  23.793  0.00  0.00    +0.011 A 
ATOM     17  C   UNL     1       9.719   5.231  24.204  0.00  0.00    +0.034 A 
ATOM     18  C   UNL     1      10.720   6.184  24.137  0.00  0.00    +0.112 A 
ATOM     19  N   UNL     1      11.965   5.927  23.693  0.00  0.00    -0.263 NA
ATOM     20  C   UNL     1      12.217   4.661  23.301  0.00  0.00    +0.112 A 
ATOM     21  C   UNL     1      11.282   3.637  23.328  0.00  0.00    +0.034 A 
ENDBRANCH  15  16
ENDBRANCH  14  15
ENDBRANCH  12  14
ENDBRANCH   2  10
BRANCH   6  22
ATOM     22  C   UNL     1       6.198  -4.429  22.107  0.00  0.00    +0.351 C 
ATOM     23  OXT UNL     1       6.248  -5.392  21.354  0.00  0.00    -0.244 OA
BRANCH  22  24
ATOM     24  O   UNL     1       5.441  -3.370  21.768  0.00  0.00    -0.476 OA
ATOM     25  H   UNL     1       4.767  -3.496  21.064  0.00  0.00    +0.295 HD
ENDBRANCH  22  24
ENDBRANCH   6  22
BRANCH   7  26
ATOM     26  C   UNL     1       5.315  -5.775  24.622  0.00  0.00    +0.266 C 
BRANCH  26  27
ATOM     27  O   UNL     1       4.308  -5.082  25.391  0.00  0.00    -0.460 OA
BRANCH  27  28
ATOM     28  C   UNL     1       3.418  -4.328  24.689  0.00  0.00    +0.304 C 
ATOM     29  O   UNL     1       3.076  -3.188  24.960  0.00  0.00    -0.251 OA
ATOM     30  C   UNL     1       2.848  -5.117  23.549  0.00  0.00    +0.136 C 
ENDBRANCH  27  28
ENDBRANCH  26  27
ENDBRANCH   7  26
TORSDOF 9
ENDMDL
MODEL 8
REMARK VINA RESULT:      -6.6      3.214      7.560
REMARK  Name = 
REMARK  10 active torsions:
REMARK  status: ('A' for Active; 'I' for Inactive)
REMARK    1  A    between atoms: C_5  and  C_6
REMARK    2  A    between atoms: C_6  and  O_7
REMARK    3  A    between atoms: O_7  and  C_8
REMARK    4  A    between atoms: C_8  and  C_9
REMARK    5  A    between atoms: CA_11  and  C_28
REMARK    6  A    between atoms: CA_15  and  N_17
REMARK    7  A    between atoms: C_18  and  C_20
REMARK    8  A    between atoms: C_20  and  S_21
REMARK    9  A    between atoms: S_21  and  C_22
REMARK   10  A    between atoms: C_28  and  O_29
REMARK                            x       y       z     vdW  Elec       q    Type
REMARK                         _______ _______ _______ _____ _____    ______ ____
ROOT
ATOM      1  C   UNL     1       6.268  -1.310  23.053  0.00  0.00    +0.169 C 
ATOM      2  CA  UNL     1       5.617  -2.671  22.640  0.00  0.00    +0.191 C 
ATOM      3  C   UNL     1       7.104  -3.091  22.357  0.00  0.00    +0.244 C 
ATOM      4  O   UNL     1       7.731  -4.008  21.884  0.00  0.00    -0.273 OA
ATOM      5  N   UNL     1       7.555  -1.971  22.961  0.00  0.00    -0.249 N 
ATOM      6  CA  UNL     1       8.741  -1.469  23.429  0.00  0.00    +0.125 C 
ATOM      7  C   UNL     1       8.722  -0.410  24.291  0.00  0.00    +0.006 C 
ATOM      8  C   UNL     1       7.453   0.233  24.826  0.00  0.00    +0.107 C 
ATOM      9  S   UNL     1       5.981  -0.807  24.765  0.00  0.00    -0.131 S 
ENDROOT
BRANCH   2  10
ATOM     10  N   UNL     1       4.914  -3.405  23.730  0.00  0.00    -0.301 N 
ATOM     11  H   UNL     1       4.791  -2.952  24.633  0.00  0.00    +0.150 HD
ATOM     12  C   UNL     1       4.402  -4.675  23.576  0.00  0.00    +0.224 C 
ATOM     13  O   UNL     1       4.490  -5.302  22.527  0.00  0.00    -0.275 OA
BRANCH  12  14
ATOM     14  C   UNL     1       3.756  -5.249  24.829  0.00  0.00    +0.170 C 
BRANCH  14  15
ATOM     15  S   UNL     1       4.963  -6.331  25.671  0.00  0.00    -0.116 S 
BRANCH  15  16
ATOM     16  C   UNL     1       6.362  -5.267  25.979  0.00  0.00    +0.011 A 
ATOM     17  C   UNL     1       7.564  -5.642  25.372  0.00  0.00    +0.034 A 
ATOM     18  C   UNL     1       8.690  -4.864  25.578  0.00  0.00    +0.112 A 
ATOM     19  N   UNL     1       8.699  -3.754  26.339  0.00  0.00    -0.263 NA
ATOM     20  C   UNL     1       7.530  -3.407  26.917  0.00  0.00    +0.112 A 
ATOM     21  C   UNL     1       6.350  -4.121  26.773  0.00  0.00    +0.034 A 
ENDBRANCH  15  16
ENDBRANCH  14  15
ENDBRANCH  12  14
ENDBRANCH   2  10
BRANCH   6  22
ATOM     22  C   UNL     1      10.061  -2.129  23.062  0.00  0.00    +0.351 C 
ATOM     23  OXT UNL     1      10.575  -3.018  23.727  0.00  0.00    -0.244 OA
BRANCH  22  24
ATOM     24  O   UNL     1      10.718  -1.649  21.991  0.00  0.00    -0.476 OA
ATOM     25  H   UNL     1      11.091  -2.298  21.353  0.00  0.00    +0.295 HD
ENDBRANCH  22  24
ENDBRANCH   6  22
BRANCH   7  26
ATOM     26  C   UNL     1       9.972   0.216  24.908  0.00  0.00    +0.266 C 
BRANCH  26  27
ATOM     27  O   UNL     1      10.845   0.719  23.873  0.00  0.00    -0.460 OA
BRANCH  27  28
ATOM     28  C   UNL     1      10.317   1.648  23.030  0.00  0.00    +0.304 C 
ATOM     29  O   UNL     1      10.069   1.480  21.846  0.00  0.00    -0.251 OA
ATOM     30  C   UNL     1      10.130   2.954  23.740  0.00  0.00    +0.136 C 
ENDBRANCH  27  28
ENDBRANCH  26  27
ENDBRANCH   7  26
TORSDOF 9
ENDMDL
MODEL 9
REMARK VINA RESULT:      -6.6      2.669      8.648
REMARK  Name = 
REMARK  10 active torsions:
REMARK  status: ('A' for Active; 'I' for Inactive)
REMARK    1  A    between atoms: C_5  and  C_6
REMARK    2  A    between atoms: C_6  and  O_7
REMARK    3  A    between atoms: O_7  and  C_8
REMARK    4  A    between atoms: C_8  and  C_9
REMARK    5  A    between atoms: CA_11  and  C_28
REMARK    6  A    between atoms: CA_15  and  N_17
REMARK    7  A    between atoms: C_18  and  C_20
REMARK    8  A    between atoms: C_20  and  S_21
REMARK    9  A    between atoms: S_21  and  C_22
REMARK   10  A    between atoms: C_28  and  O_29
REMARK                            x       y       z     vdW  Elec       q    Type
REMARK                         _______ _______ _______ _____ _____    ______ ____
ROOT
ATOM      1  C   UNL     1       7.289  -1.444  22.863  0.00  0.00    +0.169 C 
ATOM      2  CA  UNL     1       8.202  -2.714  22.909  0.00  0.00    +0.191 C 
ATOM      3  C   UNL     1       9.345  -1.684  22.592  0.00  0.00    +0.244 C 
ATOM      4  O   UNL     1      10.521  -1.664  22.323  0.00  0.00    -0.273 OA
ATOM      5  N   UNL     1       8.503  -0.652  22.816  0.00  0.00    -0.249 N 
ATOM      6  CA  UNL     1       8.574   0.703  22.997  0.00  0.00    +0.125 C 
ATOM      7  C   UNL     1       7.504   1.360  23.535  0.00  0.00    +0.006 C 
ATOM      8  C   UNL     1       6.232   0.676  24.008  0.00  0.00    +0.107 C 
ATOM      9  S   UNL     1       6.401  -1.077  24.393  0.00  0.00    -0.131 S 
ENDROOT
BRANCH   2  10
ATOM     10  N   UNL     1       8.276  -3.405  24.227  0.00  0.00    -0.301 N 
ATOM     11  H   UNL     1       8.309  -2.847  25.078  0.00  0.00    +0.150 HD
ATOM     12  C   UNL     1       8.288  -4.776  24.362  0.00  0.00    +0.224 C 
ATOM     13  O   UNL     1       8.243  -5.535  23.401  0.00  0.00    -0.275 OA
BRANCH  12  14
ATOM     14  C   UNL     1       8.404  -5.268  25.797  0.00  0.00    +0.170 C 
BRANCH  14  15
ATOM     15  S   UNL     1       7.122  -4.449  26.806  0.00  0.00    -0.116 S 
BRANCH  15  16
ATOM     16  C   UNL     1       5.587  -5.121  26.191  0.00  0.00    +0.011 A 
ATOM     17  C   UNL     1       4.615  -4.188  25.816  0.00  0.00    +0.034 A 
ATOM     18  C   UNL     1       3.399  -4.644  25.339  0.00  0.00    +0.112 A 
ATOM     19  N   UNL     1       3.089  -5.948  25.213  0.00  0.00    -0.263 NA
ATOM     20  C   UNL     1       4.039  -6.833  25.580  0.00  0.00    +0.112 A 
ATOM     21  C   UNL     1       5.286  -6.476  26.071  0.00  0.00    +0.034 A 
ENDBRANCH  15  16
ENDBRANCH  14  15
ENDBRANCH  12  14
ENDBRANCH   2  10
BRANCH   6  22
ATOM     22  C   UNL     1       9.854   1.462  22.683  0.00  0.00    +0.351 C 
ATOM     23  OXT UNL     1      10.786   1.560  23.469  0.00  0.00    -0.244 OA
BRANCH  22  24
ATOM     24  O   UNL     1       9.917   2.113  21.507  0.00  0.00    -0.476 OA
ATOM     25  H   UNL     1      10.642   1.872  20.889  0.00  0.00    +0.295 HD
ENDBRANCH  22  24
ENDBRANCH   6  22
BRANCH   7  26
ATOM     26  C   UNL     1       7.473   2.862  23.818  0.00  0.00    +0.266 C 
BRANCH  26  27
ATOM     27  O   UNL     1       7.257   3.600  22.596  0.00  0.00    -0.460 OA
BRANCH  27  28
ATOM     28  C   UNL     1       7.696   4.888  22.577  0.00  0.00    +0.304 C 
ATOM     29  O   UNL     1       7.340   5.753  21.793  0.00  0.00    -0.251 OA
ATOM     30  C   UNL     1       8.743   5.101  23.628  0.00  0.00    +0.136 C 
ENDBRANCH  27  28
ENDBRANCH  26  27
ENDBRANCH   7  26
TORSDOF 9
ENDMDL
