MODEL 1
REMARK VINA RESULT:      -7.5      0.000      0.000
REMARK  Name = 
REMARK  10 active torsions:
REMARK  status: ('A' for Active; 'I' for Inactive)
REMARK    1  A    between atoms: C_2  and  O_7
REMARK    2  A    between atoms: O_7  and  C_8
REMARK    3  A    between atoms: C_11  and  C_12
REMARK    4  A    between atoms: C_12  and  C_13
REMARK    5  A    between atoms: C_18  and  C_20
REMARK    6  A    between atoms: C_23  and  C_25
REMARK    7  A    between atoms: C_25  and  O_26
REMARK    8  A    between atoms: C_27  and  O_29
REMARK    9  A    between atoms: C_30  and  O_32
REMARK   10  A    between atoms: C_33  and  O_35
REMARK                            x       y       z     vdW  Elec       q    Type
REMARK                         _______ _______ _______ _____ _____    ______ ____
ROOT
ATOM      1  C   UNL     1       7.910  -0.735  23.212  0.00  0.00    -0.024 A 
ATOM      2  C   UNL     1       7.531  -1.745  24.118  0.00  0.00    +0.011 A 
ATOM      3  C   UNL     1       8.356  -2.849  24.385  0.00  0.00    -0.016 A 
ATOM      4  C   UNL     1       9.653  -2.849  23.861  0.00  0.00    +0.008 A 
ATOM      5  C   UNL     1      10.076  -1.818  23.017  0.00  0.00    +0.020 A 
ATOM      6  C   UNL     1       9.200  -0.788  22.666  0.00  0.00    +0.044 A 
ATOM      7 CL   UNL     1       9.762   0.366  21.508  0.00  0.00    -0.083 Cl
ENDROOT
BRANCH   3   8
ATOM      8  C   UNL     1       7.796  -4.108  25.038  0.00  0.00    +0.180 C 
ATOM      9  C   UNL     1       7.711  -4.111  26.580  0.00  0.00    +0.179 C 
ATOM     10  C   UNL     1       7.096  -5.457  27.032  0.00  0.00    +0.177 C 
ATOM     11  C   UNL     1       5.783  -5.766  26.299  0.00  0.00    +0.176 C 
ATOM     12  C   UNL     1       6.004  -5.679  24.789  0.00  0.00    +0.175 C 
ATOM     13  O   UNL     1       6.509  -4.382  24.454  0.00  0.00    -0.361 OA
BRANCH   9  14
ATOM     14  O   UNL     1       9.010  -3.938  27.168  0.00  0.00    -0.386 OA
ATOM     15  H   UNL     1       8.996  -4.287  28.074  0.00  0.00    +0.210 HD
ENDBRANCH   9  14
BRANCH  10  16
ATOM     16  O   UNL     1       6.868  -5.470  28.445  0.00  0.00    -0.386 OA
ATOM     17  H   UNL     1       7.646  -5.903  28.849  0.00  0.00    +0.210 HD
ENDBRANCH  10  16
BRANCH  11  18
ATOM     18  O   UNL     1       5.316  -7.057  26.707  0.00  0.00    -0.386 OA
ATOM     19  H   UNL     1       5.518  -7.184  27.652  0.00  0.00    +0.210 HD
ENDBRANCH  11  18
BRANCH  12  20
ATOM     20  C   UNL     1       4.707  -5.886  24.001  0.00  0.00    +0.190 C 
BRANCH  20  21
ATOM     21  O   UNL     1       4.455  -7.286  23.852  0.00  0.00    -0.392 OA
ATOM     22  H   UNL     1       4.222  -7.421  22.913  0.00  0.00    +0.210 HD
ENDBRANCH  20  21
ENDBRANCH  12  20
ENDBRANCH   3   8
BRANCH   1  23
ATOM     23  C   UNL     1       6.845   0.258  22.780  0.00  0.00    +0.071 C 
BRANCH  23  27
ATOM     24  C   UNL     1       8.153   4.308  23.626  0.00  0.00    +0.121 A 
ATOM     25  C   UNL     1       8.312   3.293  24.570  0.00  0.00    +0.046 A 
ATOM     26  C   UNL     1       7.860   1.998  24.314  0.00  0.00    +0.007 A 
ATOM     27  C   UNL     1       7.235   1.692  23.098  0.00  0.00    -0.043 A 
ATOM     28  C   UNL     1       7.062   2.723  22.160  0.00  0.00    +0.007 A 
ATOM     29  C   UNL     1       7.515   4.025  22.419  0.00  0.00    +0.046 A 
BRANCH  24  30
ATOM     30  O   UNL     1       8.722   5.499  23.969  0.00  0.00    -0.486 OA
BRANCH  30  31
ATOM     31  C   UNL     1       9.967   5.492  24.656  0.00  0.00    +0.201 C 
ATOM     32  C   UNL     1      10.242   6.763  25.450  0.00  0.00    +0.204 C 
ATOM     33  O   UNL     1      11.629   7.108  25.273  0.00  0.00    -0.376 OA
ATOM     34  C   UNL     1      12.213   6.164  24.369  0.00  0.00    +0.163 C 
ATOM     35  C   UNL     1      11.068   5.544  23.611  0.00  0.00    +0.075 C 
ENDBRANCH  30  31
ENDBRANCH  24  30
ENDBRANCH  23  27
ENDBRANCH   1  23
TORSDOF 10
ENDMDL
MODEL 2
REMARK VINA RESULT:      -7.2      1.503      2.655
REMARK  Name = 
REMARK  10 active torsions:
REMARK  status: ('A' for Active; 'I' for Inactive)
REMARK    1  A    between atoms: C_2  and  O_7
REMARK    2  A    between atoms: O_7  and  C_8
REMARK    3  A    between atoms: C_11  and  C_12
REMARK    4  A    between atoms: C_12  and  C_13
REMARK    5  A    between atoms: C_18  and  C_20
REMARK    6  A    between atoms: C_23  and  C_25
REMARK    7  A    between atoms: C_25  and  O_26
REMARK    8  A    between atoms: C_27  and  O_29
REMARK    9  A    between atoms: C_30  and  O_32
REMARK   10  A    between atoms: C_33  and  O_35
REMARK                            x       y       z     vdW  Elec       q    Type
REMARK                         _______ _______ _______ _____ _____    ______ ____
ROOT
ATOM      1  C   UNL     1       7.876  -1.798  23.355  0.00  0.00    -0.024 A 
ATOM      2  C   UNL     1       6.835  -2.456  24.040  0.00  0.00    +0.011 A 
ATOM      3  C   UNL     1       7.052  -3.650  24.747  0.00  0.00    -0.016 A 
ATOM      4  C   UNL     1       8.369  -4.095  24.906  0.00  0.00    +0.008 A 
ATOM      5  C   UNL     1       9.426  -3.415  24.294  0.00  0.00    +0.020 A 
ATOM      6  C   UNL     1       9.179  -2.297  23.495  0.00  0.00    +0.044 A 
ATOM      7 CL   UNL     1      10.527  -1.605  22.666  0.00  0.00    -0.083 Cl
ENDROOT
BRANCH   3   8
ATOM      8  C   UNL     1       5.888  -4.550  25.142  0.00  0.00    +0.180 C 
ATOM      9  C   UNL     1       5.509  -5.670  24.148  0.00  0.00    +0.179 C 
ATOM     10  C   UNL     1       4.331  -6.476  24.748  0.00  0.00    +0.177 C 
ATOM     11  C   UNL     1       4.622  -6.940  26.183  0.00  0.00    +0.176 C 
ATOM     12  C   UNL     1       5.031  -5.740  27.037  0.00  0.00    +0.175 C 
ATOM     13  O   UNL     1       6.164  -5.096  26.446  0.00  0.00    -0.361 OA
BRANCH   9  14
ATOM     14  O   UNL     1       5.135  -5.123  22.874  0.00  0.00    -0.386 OA
ATOM     15  H   UNL     1       4.181  -4.941  22.874  0.00  0.00    +0.210 HD
ENDBRANCH   9  14
BRANCH  10  16
ATOM     16  O   UNL     1       4.018  -7.612  23.934  0.00  0.00    -0.386 OA
ATOM     17  H   UNL     1       3.349  -7.314  23.286  0.00  0.00    +0.210 HD
ENDBRANCH  10  16
BRANCH  11  18
ATOM     18  O   UNL     1       3.464  -7.606  26.698  0.00  0.00    -0.386 OA
ATOM     19  H   UNL     1       3.066  -7.056  27.397  0.00  0.00    +0.210 HD
ENDBRANCH  11  18
BRANCH  12  20
ATOM     20  C   UNL     1       5.424  -6.150  28.460  0.00  0.00    +0.190 C 
BRANCH  20  21
ATOM     21  O   UNL     1       5.616  -7.566  28.515  0.00  0.00    -0.392 OA
ATOM     22  H   UNL     1       6.153  -7.735  29.314  0.00  0.00    +0.210 HD
ENDBRANCH  20  21
ENDBRANCH  12  20
ENDBRANCH   3   8
BRANCH   1  23
ATOM     23  C   UNL     1       7.493  -0.683  22.398  0.00  0.00    +0.071 C 
BRANCH  23  27
ATOM     24  C   UNL     1       8.754   3.194  23.883  0.00  0.00    +0.121 A 
ATOM     25  C   UNL     1       8.822   2.060  24.695  0.00  0.00    +0.046 A 
ATOM     26  C   UNL     1       8.383   0.819  24.230  0.00  0.00    +0.007 A 
ATOM     27  C   UNL     1       7.864   0.689  22.935  0.00  0.00    -0.043 A 
ATOM     28  C   UNL     1       7.783   1.838  22.132  0.00  0.00    +0.007 A 
ATOM     29  C   UNL     1       8.222   3.085  22.600  0.00  0.00    +0.046 A 
BRANCH  24  30
ATOM     30  O   UNL     1       9.301   4.317  24.430  0.00  0.00    -0.486 OA
BRANCH  30  31
ATOM     31  C   UNL     1      10.324   5.001  23.716  0.00  0.00    +0.201 C 
ATOM     32  C   UNL     1      11.546   4.143  23.415  0.00  0.00    +0.204 C 
ATOM     33  O   UNL     1      12.720   4.952  23.624  0.00  0.00    -0.376 OA
ATOM     34  C   UNL     1      12.300   6.236  24.096  0.00  0.00    +0.163 C 
ATOM     35  C   UNL     1      10.911   6.049  24.645  0.00  0.00    +0.075 C 
ENDBRANCH  30  31
ENDBRANCH  24  30
ENDBRANCH  23  27
ENDBRANCH   1  23
TORSDOF 10
ENDMDL
MODEL 3
REMARK VINA RESULT:      -7.2      1.816      3.391
REMARK  Name = 
REMARK  10 active torsions:
REMARK  status: ('A' for Active; 'I' for Inactive)
REMARK    1  A    between atoms: C_2  and  O_7
REMARK    2  A    between atoms: O_7  and  C_8
REMARK    3  A    between atoms: C_11  and  C_12
REMARK    4  A    between atoms: C_12  and  C_13
REMARK    5  A    between atoms: C_18  and  C_20
REMARK    6  A    between atoms: C_23  and  C_25
REMARK    7  A    between atoms: C_25  and  O_26
REMARK    8  A    between atoms: C_27  and  O_29
REMARK    9  A    between atoms: C_30  and  O_32
REMARK   10  A    between atoms: C_33  and  O_35
REMARK                            x       y       z     vdW  Elec       q    Type
REMARK                         _______ _______ _______ _____ _____    ______ ____
ROOT
ATOM      1  C   UNL     1       8.839  -2.420  23.666  0.00  0.00    -0.024 A 
ATOM      2  C   UNL     1       8.056  -3.405  24.299  0.00  0.00    +0.011 A 
ATOM      3  C   UNL     1       6.939  -3.980  23.673  0.00  0.00    -0.016 A 
ATOM      4  C   UNL     1       6.707  -3.679  22.327  0.00  0.00    +0.008 A 
ATOM      5  C   UNL     1       7.517  -2.758  21.657  0.00  0.00    +0.020 A 
ATOM      6  C   UNL     1       8.552  -2.105  22.330  0.00  0.00    +0.044 A 
ATOM      7 CL   UNL     1       9.410  -0.881  21.464  0.00  0.00    -0.083 Cl
ENDROOT
BRANCH   3   8
ATOM      8  C   UNL     1       5.886  -4.730  24.481  0.00  0.00    +0.180 C 
ATOM      9  C   UNL     1       5.248  -5.966  23.810  0.00  0.00    +0.179 C 
ATOM     10  C   UNL     1       4.235  -6.591  24.801  0.00  0.00    +0.177 C 
ATOM     11  C   UNL     1       4.859  -6.839  26.182  0.00  0.00    +0.176 C 
ATOM     12  C   UNL     1       5.494  -5.548  26.699  0.00  0.00    +0.175 C 
ATOM     13  O   UNL     1       6.461  -5.079  25.754  0.00  0.00    -0.361 OA
BRANCH   9  14
ATOM     14  O   UNL     1       4.585  -5.604  22.588  0.00  0.00    -0.386 OA
ATOM     15  H   UNL     1       3.950  -4.893  22.770  0.00  0.00    +0.210 HD
ENDBRANCH   9  14
BRANCH  10  16
ATOM     16  O   UNL     1       3.705  -7.818  24.289  0.00  0.00    -0.386 OA
ATOM     17  H   UNL     1       4.465  -8.328  23.946  0.00  0.00    +0.210 HD
ENDBRANCH  10  16
BRANCH  11  18
ATOM     18  O   UNL     1       3.849  -7.340  27.064  0.00  0.00    -0.386 OA
ATOM     19  H   UNL     1       2.979  -7.011  26.771  0.00  0.00    +0.210 HD
ENDBRANCH  11  18
BRANCH  12  20
ATOM     20  C   UNL     1       6.215  -5.753  28.035  0.00  0.00    +0.190 C 
BRANCH  20  21
ATOM     21  O   UNL     1       7.586  -6.078  27.795  0.00  0.00    -0.392 OA
ATOM     22  H   UNL     1       7.881  -6.597  28.569  0.00  0.00    +0.210 HD
ENDBRANCH  20  21
ENDBRANCH  12  20
ENDBRANCH   3   8
BRANCH   1  23
ATOM     23  C   UNL     1       9.845  -1.665  24.518  0.00  0.00    +0.071 C 
BRANCH  23  27
ATOM     24  C   UNL     1       8.692   2.506  24.828  0.00  0.00    +0.121 A 
ATOM     25  C   UNL     1       9.930   2.144  24.295  0.00  0.00    +0.046 A 
ATOM     26  C   UNL     1      10.317   0.804  24.227  0.00  0.00    +0.007 A 
ATOM     27  C   UNL     1       9.466  -0.205  24.696  0.00  0.00    -0.043 A 
ATOM     28  C   UNL     1       8.230   0.170  25.248  0.00  0.00    +0.007 A 
ATOM     29  C   UNL     1       7.842   1.516  25.318  0.00  0.00    +0.046 A 
BRANCH  24  30
ATOM     30  O   UNL     1       8.407   3.838  24.748  0.00  0.00    -0.486 OA
BRANCH  30  31
ATOM     31  C   UNL     1       8.545   4.496  23.495  0.00  0.00    +0.201 C 
ATOM     32  C   UNL     1       9.048   5.930  23.602  0.00  0.00    +0.204 C 
ATOM     33  O   UNL     1       8.309   6.732  22.662  0.00  0.00    -0.376 OA
ATOM     34  C   UNL     1       7.338   5.896  22.026  0.00  0.00    +0.163 C 
ATOM     35  C   UNL     1       7.151   4.706  22.930  0.00  0.00    +0.075 C 
ENDBRANCH  30  31
ENDBRANCH  24  30
ENDBRANCH  23  27
ENDBRANCH   1  23
TORSDOF 10
ENDMDL
MODEL 4
REMARK VINA RESULT:      -7.1      2.800     10.040
REMARK  Name = 
REMARK  10 active torsions:
REMARK  status: ('A' for Active; 'I' for Inactive)
REMARK    1  A    between atoms: C_2  and  O_7
REMARK    2  A    between atoms: O_7  and  C_8
REMARK    3  A    between atoms: C_11  and  C_12
REMARK    4  A    between atoms: C_12  and  C_13
REMARK    5  A    between atoms: C_18  and  C_20
REMARK    6  A    between atoms: C_23  and  C_25
REMARK    7  A    between atoms: C_25  and  O_26
REMARK    8  A    between atoms: C_27  and  O_29
REMARK    9  A    between atoms: C_30  and  O_32
REMARK   10  A    between atoms: C_33  and  O_35
REMARK                            x       y       z     vdW  Elec       q    Type
REMARK                         _______ _______ _______ _____ _____    ______ ____
ROOT
ATOM      1  C   UNL     1       8.788  -2.061  24.451  0.00  0.00    -0.024 A 
ATOM      2  C   UNL     1       8.921  -0.855  23.735  0.00  0.00    +0.011 A 
ATOM      3  C   UNL     1       8.605   0.387  24.308  0.00  0.00    -0.016 A 
ATOM      4  C   UNL     1       8.313   0.429  25.676  0.00  0.00    +0.008 A 
ATOM      5  C   UNL     1       8.247  -0.751  26.423  0.00  0.00    +0.020 A 
ATOM      6  C   UNL     1       8.447  -1.989  25.808  0.00  0.00    +0.044 A 
ATOM      7 CL   UNL     1       8.207  -3.399  26.777  0.00  0.00    -0.083 Cl
ENDROOT
BRANCH   3   8
ATOM      8  C   UNL     1       8.372   1.617  23.439  0.00  0.00    +0.180 C 
ATOM      9  C   UNL     1       6.905   1.955  23.095  0.00  0.00    +0.179 C 
ATOM     10  C   UNL     1       6.890   3.242  22.236  0.00  0.00    +0.177 C 
ATOM     11  C   UNL     1       7.693   4.378  22.885  0.00  0.00    +0.176 C 
ATOM     12  C   UNL     1       9.103   3.887  23.214  0.00  0.00    +0.175 C 
ATOM     13  O   UNL     1       9.023   2.739  24.064  0.00  0.00    -0.361 OA
BRANCH   9  14
ATOM     14  O   UNL     1       6.281   0.876  22.382  0.00  0.00    -0.386 OA
ATOM     15  H   UNL     1       5.329   1.053  22.310  0.00  0.00    +0.210 HD
ENDBRANCH   9  14
BRANCH  10  16
ATOM     16  O   UNL     1       5.550   3.683  21.994  0.00  0.00    -0.386 OA
ATOM     17  H   UNL     1       5.016   2.879  21.836  0.00  0.00    +0.210 HD
ENDBRANCH  10  16
BRANCH  11  18
ATOM     18  O   UNL     1       7.702   5.504  22.000  0.00  0.00    -0.386 OA
ATOM     19  H   UNL     1       6.895   6.031  22.148  0.00  0.00    +0.210 HD
ENDBRANCH  11  18
BRANCH  12  20
ATOM     20  C   UNL     1       9.928   4.949  23.949  0.00  0.00    +0.190 C 
BRANCH  20  21
ATOM     21  O   UNL     1      10.364   5.945  23.021  0.00  0.00    -0.392 OA
ATOM     22  H   UNL     1      10.053   6.801  23.376  0.00  0.00    +0.210 HD
ENDBRANCH  20  21
ENDBRANCH  12  20
ENDBRANCH   3   8
BRANCH   1  23
ATOM     23  C   UNL     1       8.882  -3.359  23.667  0.00  0.00    +0.071 C 
BRANCH  23  27
ATOM     24  C   UNL     1       4.979  -5.015  22.750  0.00  0.00    +0.121 A 
ATOM     25  C   UNL     1       6.146  -5.702  22.409  0.00  0.00    +0.046 A 
ATOM     26  C   UNL     1       7.402  -5.154  22.671  0.00  0.00    +0.007 A 
ATOM     27  C   UNL     1       7.515  -3.899  23.284  0.00  0.00    -0.043 A 
ATOM     28  C   UNL     1       6.337  -3.207  23.607  0.00  0.00    +0.007 A 
ATOM     29  C   UNL     1       5.074  -3.757  23.342  0.00  0.00    +0.046 A 
BRANCH  24  30
ATOM     30  O   UNL     1       3.825  -5.706  22.521  0.00  0.00    -0.486 OA
BRANCH  30  31
ATOM     31  C   UNL     1       3.105  -6.228  23.631  0.00  0.00    +0.201 C 
ATOM     32  C   UNL     1       3.915  -7.184  24.499  0.00  0.00    +0.204 C 
ATOM     33  O   UNL     1       3.059  -8.280  24.872  0.00  0.00    -0.376 OA
ATOM     34  C   UNL     1       1.790  -8.093  24.238  0.00  0.00    +0.163 C 
ATOM     35  C   UNL     1       2.029  -7.152  23.087  0.00  0.00    +0.075 C 
ENDBRANCH  30  31
ENDBRANCH  24  30
ENDBRANCH  23  27
ENDBRANCH   1  23
TORSDOF 10
ENDMDL
MODEL 5
REMARK VINA RESULT:      -7.1      1.797      2.597
REMARK  Name = 
REMARK  10 active torsions:
REMARK  status: ('A' for Active; 'I' for Inactive)
REMARK    1  A    between atoms: C_2  and  O_7
REMARK    2  A    between atoms: O_7  and  C_8
REMARK    3  A    between atoms: C_11  and  C_12
REMARK    4  A    between atoms: C_12  and  C_13
REMARK    5  A    between atoms: C_18  and  C_20
REMARK    6  A    between atoms: C_23  and  C_25
REMARK    7  A    between atoms: C_25  and  O_26
REMARK    8  A    between atoms: C_27  and  O_29
REMARK    9  A    between atoms: C_30  and  O_32
REMARK   10  A    between atoms: C_33  and  O_35
REMARK                            x       y       z     vdW  Elec       q    Type
REMARK                         _______ _______ _______ _____ _____    ______ ____
ROOT
ATOM      1  C   UNL     1       9.338  -2.374  23.684  0.00  0.00    -0.024 A 
ATOM      2  C   UNL     1       8.957  -3.475  24.478  0.00  0.00    +0.011 A 
ATOM      3  C   UNL     1       7.843  -4.268  24.160  0.00  0.00    -0.016 A 
ATOM      4  C   UNL     1       7.205  -4.051  22.934  0.00  0.00    +0.008 A 
ATOM      5  C   UNL     1       7.613  -3.009  22.096  0.00  0.00    +0.020 A 
ATOM      6  C   UNL     1       8.648  -2.154  22.484  0.00  0.00    +0.044 A 
ATOM      7 CL   UNL     1       8.991  -0.812  21.453  0.00  0.00    -0.083 Cl
ENDROOT
BRANCH   3   8
ATOM      8  C   UNL     1       7.209  -5.184  25.200  0.00  0.00    +0.180 C 
ATOM      9  C   UNL     1       7.253  -4.704  26.666  0.00  0.00    +0.179 C 
ATOM     10  C   UNL     1       6.539  -5.758  27.547  0.00  0.00    +0.177 C 
ATOM     11  C   UNL     1       5.144  -6.107  27.009  0.00  0.00    +0.176 C 
ATOM     12  C   UNL     1       5.247  -6.516  25.540  0.00  0.00    +0.175 C 
ATOM     13  O   UNL     1       5.856  -5.459  24.791  0.00  0.00    -0.361 OA
BRANCH   9  14
ATOM     14  O   UNL     1       8.607  -4.525  27.110  0.00  0.00    -0.386 OA
ATOM     15  H   UNL     1       8.955  -5.377  27.420  0.00  0.00    +0.210 HD
ENDBRANCH   9  14
BRANCH  10  16
ATOM     16  O   UNL     1       6.429  -5.308  28.901  0.00  0.00    -0.386 OA
ATOM     17  H   UNL     1       5.528  -5.543  29.200  0.00  0.00    +0.210 HD
ENDBRANCH  10  16
BRANCH  11  18
ATOM     18  O   UNL     1       4.579  -7.141  27.823  0.00  0.00    -0.386 OA
ATOM     19  H   UNL     1       4.061  -6.734  28.541  0.00  0.00    +0.210 HD
ENDBRANCH  11  18
BRANCH  12  20
ATOM     20  C   UNL     1       3.874  -6.789  24.918  0.00  0.00    +0.190 C 
BRANCH  20  21
ATOM     21  O   UNL     1       3.453  -8.115  25.248  0.00  0.00    -0.392 OA
ATOM     22  H   UNL     1       2.583  -8.238  24.820  0.00  0.00    +0.210 HD
ENDBRANCH  20  21
ENDBRANCH  12  20
ENDBRANCH   3   8
BRANCH   1  23
ATOM     23  C   UNL     1      10.372  -1.420  24.256  0.00  0.00    +0.071 C 
BRANCH  23  27
ATOM     24  C   UNL     1       8.699   2.562  24.661  0.00  0.00    +0.121 A 
ATOM     25  C   UNL     1       9.961   2.371  24.097  0.00  0.00    +0.046 A 
ATOM     26  C   UNL     1      10.516   1.094  23.998  0.00  0.00    +0.007 A 
ATOM     27  C   UNL     1       9.812  -0.024  24.466  0.00  0.00    -0.043 A 
ATOM     28  C   UNL     1       8.551   0.180  25.049  0.00  0.00    +0.007 A 
ATOM     29  C   UNL     1       7.994   1.463  25.149  0.00  0.00    +0.046 A 
BRANCH  24  30
ATOM     30  O   UNL     1       8.242   3.846  24.609  0.00  0.00    -0.486 OA
BRANCH  30  31
ATOM     31  C   UNL     1       8.432   4.596  23.415  0.00  0.00    +0.201 C 
ATOM     32  C   UNL     1       8.685   6.079  23.650  0.00  0.00    +0.204 C 
ATOM     33  O   UNL     1       7.952   6.819  22.655  0.00  0.00    -0.376 OA
ATOM     34  C   UNL     1       7.213   5.888  21.859  0.00  0.00    +0.163 C 
ATOM     35  C   UNL     1       7.104   4.628  22.678  0.00  0.00    +0.075 C 
ENDBRANCH  30  31
ENDBRANCH  24  30
ENDBRANCH  23  27
ENDBRANCH   1  23
TORSDOF 10
ENDMDL
MODEL 6
REMARK VINA RESULT:      -7.1      3.091      8.426
REMARK  Name = 
REMARK  10 active torsions:
REMARK  status: ('A' for Active; 'I' for Inactive)
REMARK    1  A    between atoms: C_2  and  O_7
REMARK    2  A    between atoms: O_7  and  C_8
REMARK    3  A    between atoms: C_11  and  C_12
REMARK    4  A    between atoms: C_12  and  C_13
REMARK    5  A    between atoms: C_18  and  C_20
REMARK    6  A    between atoms: C_23  and  C_25
REMARK    7  A    between atoms: C_25  and  O_26
REMARK    8  A    between atoms: C_27  and  O_29
REMARK    9  A    between atoms: C_30  and  O_32
REMARK   10  A    between atoms: C_33  and  O_35
REMARK                            x       y       z     vdW  Elec       q    Type
REMARK                         _______ _______ _______ _____ _____    ______ ____
ROOT
ATOM      1  C   UNL     1      10.314   4.692  23.635  0.00  0.00    -0.024 A 
ATOM      2  C   UNL     1       8.958   4.407  23.374  0.00  0.00    +0.011 A 
ATOM      3  C   UNL     1       7.929   5.274  23.772  0.00  0.00    -0.016 A 
ATOM      4  C   UNL     1       8.280   6.526  24.289  0.00  0.00    +0.008 A 
ATOM      5  C   UNL     1       9.623   6.858  24.489  0.00  0.00    +0.020 A 
ATOM      6  C   UNL     1      10.631   5.936  24.199  0.00  0.00    +0.044 A 
ATOM      7 CL   UNL     1      12.249   6.380  24.608  0.00  0.00    -0.083 Cl
ENDROOT
BRANCH   3   8
ATOM      8  C   UNL     1       6.484   4.795  23.847  0.00  0.00    +0.180 C 
ATOM      9  C   UNL     1       5.661   4.866  22.542  0.00  0.00    +0.179 C 
ATOM     10  C   UNL     1       4.244   4.313  22.828  0.00  0.00    +0.177 C 
ATOM     11  C   UNL     1       4.290   2.934  23.503  0.00  0.00    +0.176 C 
ATOM     12  C   UNL     1       5.175   3.001  24.747  0.00  0.00    +0.175 C 
ATOM     13  O   UNL     1       6.481   3.457  24.380  0.00  0.00    -0.361 OA
BRANCH   9  14
ATOM     14  O   UNL     1       5.576   6.217  22.060  0.00  0.00    -0.386 OA
ATOM     15  H   UNL     1       6.455   6.505  21.767  0.00  0.00    +0.210 HD
ENDBRANCH   9  14
BRANCH  10  16
ATOM     16  O   UNL     1       3.472   4.229  21.625  0.00  0.00    -0.386 OA
ATOM     17  H   UNL     1       4.056   3.839  20.946  0.00  0.00    +0.210 HD
ENDBRANCH  10  16
BRANCH  11  18
ATOM     18  O   UNL     1       2.952   2.523  23.809  0.00  0.00    -0.386 OA
ATOM     19  H   UNL     1       2.326   3.123  23.365  0.00  0.00    +0.210 HD
ENDBRANCH  11  18
BRANCH  12  20
ATOM     20  C   UNL     1       5.337   1.632  25.416  0.00  0.00    +0.190 C 
BRANCH  20  21
ATOM     21  O   UNL     1       5.311   0.606  24.422  0.00  0.00    -0.392 OA
ATOM     22  H   UNL     1       5.753   0.980  23.635  0.00  0.00    +0.210 HD
ENDBRANCH  20  21
ENDBRANCH  12  20
ENDBRANCH   3   8
BRANCH   1  23
ATOM     23  C   UNL     1      11.321   3.576  23.421  0.00  0.00    +0.071 C 
BRANCH  23  27
ATOM     24  C   UNL     1       9.591  -0.366  22.881  0.00  0.00    +0.121 A 
ATOM     25  C   UNL     1       9.654   0.539  21.820  0.00  0.00    +0.046 A 
ATOM     26  C   UNL     1      10.178   1.820  22.001  0.00  0.00    +0.007 A 
ATOM     27  C   UNL     1      10.651   2.222  23.257  0.00  0.00    -0.043 A 
ATOM     28  C   UNL     1      10.566   1.312  24.323  0.00  0.00    +0.007 A 
ATOM     29  C   UNL     1      10.038   0.025  24.141  0.00  0.00    +0.046 A 
BRANCH  24  30
ATOM     30  O   UNL     1       9.143  -1.609  22.542  0.00  0.00    -0.486 OA
BRANCH  30  31
ATOM     31  C   UNL     1       8.319  -2.317  23.461  0.00  0.00    +0.201 C 
ATOM     32  C   UNL     1       9.041  -3.436  24.201  0.00  0.00    +0.204 C 
ATOM     33  O   UNL     1       8.149  -4.565  24.279  0.00  0.00    -0.376 OA
ATOM     34  C   UNL     1       6.947  -4.235  23.577  0.00  0.00    +0.163 C 
ATOM     35  C   UNL     1       7.297  -3.098  22.654  0.00  0.00    +0.075 C 
ENDBRANCH  30  31
ENDBRANCH  24  30
ENDBRANCH  23  27
ENDBRANCH   1  23
TORSDOF 10
ENDMDL
MODEL 7
REMARK VINA RESULT:      -6.9      3.040      7.321
REMARK  Name = 
REMARK  10 active torsions:
REMARK  status: ('A' for Active; 'I' for Inactive)
REMARK    1  A    between atoms: C_2  and  O_7
REMARK    2  A    between atoms: O_7  and  C_8
REMARK    3  A    between atoms: C_11  and  C_12
REMARK    4  A    between atoms: C_12  and  C_13
REMARK    5  A    between atoms: C_18  and  C_20
REMARK    6  A    between atoms: C_23  and  C_25
REMARK    7  A    between atoms: C_25  and  O_26
REMARK    8  A    between atoms: C_27  and  O_29
REMARK    9  A    between atoms: C_30  and  O_32
REMARK   10  A    between atoms: C_33  and  O_35
REMARK                            x       y       z     vdW  Elec       q    Type
REMARK                         _______ _______ _______ _____ _____    ______ ____
ROOT
ATOM      1  C   UNL     1       9.425   2.996  23.387  0.00  0.00    -0.024 A 
ATOM      2  C   UNL     1       8.262   2.414  23.930  0.00  0.00    +0.011 A 
ATOM      3  C   UNL     1       7.592   2.982  25.026  0.00  0.00    -0.016 A 
ATOM      4  C   UNL     1       8.003   4.243  25.472  0.00  0.00    +0.008 A 
ATOM      5  C   UNL     1       9.112   4.871  24.898  0.00  0.00    +0.020 A 
ATOM      6  C   UNL     1       9.839   4.237  23.888  0.00  0.00    +0.044 A 
ATOM      7 CL   UNL     1      11.275   5.024  23.336  0.00  0.00    -0.083 Cl
ENDROOT
BRANCH   3   8
ATOM      8  C   UNL     1       6.597   2.169  25.845  0.00  0.00    +0.180 C 
ATOM      9  C   UNL     1       6.021   0.901  25.177  0.00  0.00    +0.179 C 
ATOM     10  C   UNL     1       5.062   0.214  26.179  0.00  0.00    +0.177 C 
ATOM     11  C   UNL     1       5.720  -0.003  27.549  0.00  0.00    +0.176 C 
ATOM     12  C   UNL     1       6.286   1.320  28.064  0.00  0.00    +0.175 C 
ATOM     13  O   UNL     1       7.210   1.848  27.107  0.00  0.00    -0.361 OA
BRANCH   9  14
ATOM     14  O   UNL     1       5.320   1.229  23.967  0.00  0.00    -0.386 OA
ATOM     15  H   UNL     1       5.650   0.667  23.247  0.00  0.00    +0.210 HD
ENDBRANCH   9  14
BRANCH  10  16
ATOM     16  O   UNL     1       4.596  -1.039  25.669  0.00  0.00    -0.386 OA
ATOM     17  H   UNL     1       4.522  -1.642  26.436  0.00  0.00    +0.210 HD
ENDBRANCH  10  16
BRANCH  11  18
ATOM     18  O   UNL     1       4.753  -0.566  28.444  0.00  0.00    -0.386 OA
ATOM     19  H   UNL     1       4.840  -0.139  29.315  0.00  0.00    +0.210 HD
ENDBRANCH  11  18
BRANCH  12  20
ATOM     20  C   UNL     1       7.038   1.152  29.388  0.00  0.00    +0.190 C 
BRANCH  20  21
ATOM     21  O   UNL     1       8.375   0.716  29.129  0.00  0.00    -0.392 OA
ATOM     22  H   UNL     1       8.428   0.565  28.165  0.00  0.00    +0.210 HD
ENDBRANCH  20  21
ENDBRANCH  12  20
ENDBRANCH   3   8
BRANCH   1  23
ATOM     23  C   UNL     1      10.228   2.168  22.398  0.00  0.00    +0.071 C 
BRANCH  23  27
ATOM     24  C   UNL     1       9.467  -2.050  23.070  0.00  0.00    +0.121 A 
ATOM     25  C   UNL     1      10.093  -1.271  24.045  0.00  0.00    +0.046 A 
ATOM     26  C   UNL     1      10.371   0.077  23.817  0.00  0.00    +0.007 A 
ATOM     27  C   UNL     1      10.024   0.676  22.598  0.00  0.00    -0.043 A 
ATOM     28  C   UNL     1       9.412  -0.119  21.616  0.00  0.00    +0.007 A 
ATOM     29  C   UNL     1       9.135  -1.474  21.845  0.00  0.00    +0.046 A 
BRANCH  24  30
ATOM     30  O   UNL     1       9.175  -3.324  23.461  0.00  0.00    -0.486 OA
BRANCH  30  31
ATOM     31  C   UNL     1       8.845  -3.566  24.823  0.00  0.00    +0.201 C 
ATOM     32  C   UNL     1       9.377  -4.887  25.363  0.00  0.00    +0.204 C 
ATOM     33  O   UNL     1       8.354  -5.476  26.187  0.00  0.00    -0.376 OA
ATOM     34  C   UNL     1       7.199  -4.631  26.140  0.00  0.00    +0.163 C 
ATOM     35  C   UNL     1       7.344  -3.791  24.899  0.00  0.00    +0.075 C 
ENDBRANCH  30  31
ENDBRANCH  24  30
ENDBRANCH  23  27
ENDBRANCH   1  23
TORSDOF 10
ENDMDL
MODEL 8
REMARK VINA RESULT:      -6.8      2.521      3.853
REMARK  Name = 
REMARK  10 active torsions:
REMARK  status: ('A' for Active; 'I' for Inactive)
REMARK    1  A    between atoms: C_2  and  O_7
REMARK    2  A    between atoms: O_7  and  C_8
REMARK    3  A    between atoms: C_11  and  C_12
REMARK    4  A    between atoms: C_12  and  C_13
REMARK    5  A    between atoms: C_18  and  C_20
REMARK    6  A    between atoms: C_23  and  C_25
REMARK    7  A    between atoms: C_25  and  O_26
REMARK    8  A    between atoms: C_27  and  O_29
REMARK    9  A    between atoms: C_30  and  O_32
REMARK   10  A    between atoms: C_33  and  O_35
REMARK                            x       y       z     vdW  Elec       q    Type
REMARK                         _______ _______ _______ _____ _____    ______ ____
ROOT
ATOM      1  C   UNL     1       9.758   0.051  23.796  0.00  0.00    -0.024 A 
ATOM      2  C   UNL     1       9.407  -1.248  24.213  0.00  0.00    +0.011 A 
ATOM      3  C   UNL     1       9.018  -2.240  23.298  0.00  0.00    -0.016 A 
ATOM      4  C   UNL     1       9.148  -1.968  21.932  0.00  0.00    +0.008 A 
ATOM      5  C   UNL     1       9.566  -0.707  21.497  0.00  0.00    +0.020 A 
ATOM      6  C   UNL     1       9.834   0.306  22.420  0.00  0.00    +0.044 A 
ATOM      7 CL   UNL     1      10.207   1.871  21.789  0.00  0.00    -0.083 Cl
ENDROOT
BRANCH   3   8
ATOM      8  C   UNL     1       8.274  -3.487  23.762  0.00  0.00    +0.180 C 
ATOM      9  C   UNL     1       8.769  -4.144  25.069  0.00  0.00    +0.179 C 
ATOM     10  C   UNL     1       7.870  -5.367  25.371  0.00  0.00    +0.177 C 
ATOM     11  C   UNL     1       6.377  -5.006  25.338  0.00  0.00    +0.176 C 
ATOM     12  C   UNL     1       6.043  -4.322  24.013  0.00  0.00    +0.175 C 
ATOM     13  O   UNL     1       6.873  -3.168  23.848  0.00  0.00    -0.361 OA
BRANCH   9  14
ATOM     14  O   UNL     1      10.140  -4.555  24.952  0.00  0.00    -0.386 OA
ATOM     15  H   UNL     1      10.421  -4.962  25.788  0.00  0.00    +0.210 HD
ENDBRANCH   9  14
BRANCH  10  16
ATOM     16  O   UNL     1       8.193  -5.943  26.641  0.00  0.00    -0.386 OA
ATOM     17  H   UNL     1       7.764  -6.821  26.666  0.00  0.00    +0.210 HD
ENDBRANCH  10  16
BRANCH  11  18
ATOM     18  O   UNL     1       5.608  -6.197  25.545  0.00  0.00    -0.386 OA
ATOM     19  H   UNL     1       6.213  -6.956  25.624  0.00  0.00    +0.210 HD
ENDBRANCH  11  18
BRANCH  12  20
ATOM     20  C   UNL     1       4.585  -3.854  23.955  0.00  0.00    +0.190 C 
BRANCH  20  21
ATOM     21  O   UNL     1       3.910  -4.520  22.885  0.00  0.00    -0.392 OA
ATOM     22  H   UNL     1       2.998  -4.678  23.197  0.00  0.00    +0.210 HD
ENDBRANCH  20  21
ENDBRANCH  12  20
ENDBRANCH   3   8
BRANCH   1  23
ATOM     23  C   UNL     1       9.890   1.121  24.866  0.00  0.00    +0.071 C 
BRANCH  23  27
ATOM     24  C   UNL     1       6.265   3.502  24.998  0.00  0.00    +0.121 A 
ATOM     25  C   UNL     1       7.424   3.995  24.396  0.00  0.00    +0.046 A 
ATOM     26  C   UNL     1       8.601   3.245  24.384  0.00  0.00    +0.007 A 
ATOM     27  C   UNL     1       8.640   1.977  24.979  0.00  0.00    -0.043 A 
ATOM     28  C   UNL     1       7.476   1.496  25.599  0.00  0.00    +0.007 A 
ATOM     29  C   UNL     1       6.294   2.251  25.612  0.00  0.00    +0.046 A 
BRANCH  24  30
ATOM     30  O   UNL     1       5.167   4.298  24.855  0.00  0.00    -0.486 OA
BRANCH  30  31
ATOM     31  C   UNL     1       4.696   4.590  23.545  0.00  0.00    +0.201 C 
ATOM     32  C   UNL     1       3.593   5.641  23.505  0.00  0.00    +0.204 C 
ATOM     33  O   UNL     1       2.611   5.218  22.541  0.00  0.00    -0.376 OA
ATOM     34  C   UNL     1       3.006   3.942  22.028  0.00  0.00    +0.163 C 
ATOM     35  C   UNL     1       3.961   3.362  23.037  0.00  0.00    +0.075 C 
ENDBRANCH  30  31
ENDBRANCH  24  30
ENDBRANCH  23  27
ENDBRANCH   1  23
TORSDOF 10
ENDMDL
MODEL 9
REMARK VINA RESULT:      -6.8      1.602      2.238
REMARK  Name = 
REMARK  10 active torsions:
REMARK  status: ('A' for Active; 'I' for Inactive)
REMARK    1  A    between atoms: C_2  and  O_7
REMARK    2  A    between atoms: O_7  and  C_8
REMARK    3  A    between atoms: C_11  and  C_12
REMARK    4  A    between atoms: C_12  and  C_13
REMARK    5  A    between atoms: C_18  and  C_20
REMARK    6  A    between atoms: C_23  and  C_25
REMARK    7  A    between atoms: C_25  and  O_26
REMARK    8  A    between atoms: C_27  and  O_29
REMARK    9  A    between atoms: C_30  and  O_32
REMARK   10  A    between atoms: C_33  and  O_35
REMARK                            x       y       z     vdW  Elec       q    Type
REMARK                         _______ _______ _______ _____ _____    ______ ____
ROOT
ATOM      1  C   UNL     1       8.031  -2.457  23.676  0.00  0.00    -0.024 A 
ATOM      2  C   UNL     1       7.129  -3.265  24.396  0.00  0.00    +0.011 A 
ATOM      3  C   UNL     1       7.554  -4.402  25.103  0.00  0.00    -0.016 A 
ATOM      4  C   UNL     1       8.929  -4.630  25.225  0.00  0.00    +0.008 A 
ATOM      5  C   UNL     1       9.845  -3.796  24.578  0.00  0.00    +0.020 A 
ATOM      6  C   UNL     1       9.400  -2.740  23.780  0.00  0.00    +0.044 A 
ATOM      7 CL   UNL     1      10.596  -1.850  22.907  0.00  0.00    -0.083 Cl
ENDROOT
BRANCH   3   8
ATOM      8  C   UNL     1       6.560  -5.472  25.538  0.00  0.00    +0.180 C 
ATOM      9  C   UNL     1       6.286  -5.590  27.053  0.00  0.00    +0.179 C 
ATOM     10  C   UNL     1       5.239  -6.708  27.274  0.00  0.00    +0.177 C 
ATOM     11  C   UNL     1       3.996  -6.515  26.393  0.00  0.00    +0.176 C 
ATOM     12  C   UNL     1       4.420  -6.364  24.932  0.00  0.00    +0.175 C 
ATOM     13  O   UNL     1       5.334  -5.269  24.811  0.00  0.00    -0.361 OA
BRANCH   9  14
ATOM     14  O   UNL     1       7.492  -5.893  27.773  0.00  0.00    -0.386 OA
ATOM     15  H   UNL     1       7.853  -6.734  27.447  0.00  0.00    +0.210 HD
ENDBRANCH   9  14
BRANCH  10  16
ATOM     16  O   UNL     1       4.843  -6.778  28.648  0.00  0.00    -0.386 OA
ATOM     17  H   UNL     1       3.888  -6.568  28.674  0.00  0.00    +0.210 HD
ENDBRANCH  10  16
BRANCH  11  18
ATOM     18  O   UNL     1       3.111  -7.624  26.590  0.00  0.00    -0.386 OA
ATOM     19  H   UNL     1       2.194  -7.296  26.623  0.00  0.00    +0.210 HD
ENDBRANCH  11  18
BRANCH  12  20
ATOM     20  C   UNL     1       3.231  -6.076  24.011  0.00  0.00    +0.190 C 
BRANCH  20  21
ATOM     21  O   UNL     1       3.018  -7.190  23.140  0.00  0.00    -0.392 OA
ATOM     22  H   UNL     1       2.192  -7.000  22.653  0.00  0.00    +0.210 HD
ENDBRANCH  20  21
ENDBRANCH  12  20
ENDBRANCH   3   8
BRANCH   1  23
ATOM     23  C   UNL     1       7.447  -1.427  22.725  0.00  0.00    +0.071 C 
BRANCH  23  27
ATOM     24  C   UNL     1       9.319   2.428  23.399  0.00  0.00    +0.121 A 
ATOM     25  C   UNL     1       8.701   1.740  24.445  0.00  0.00    +0.046 A 
ATOM     26  C   UNL     1       8.068   0.517  24.222  0.00  0.00    +0.007 A 
ATOM     27  C   UNL     1       8.040  -0.045  22.939  0.00  0.00    -0.043 A 
ATOM     28  C   UNL     1       8.648   0.663  21.889  0.00  0.00    +0.007 A 
ATOM     29  C   UNL     1       9.283   1.893  22.113  0.00  0.00    +0.046 A 
BRANCH  24  30
ATOM     30  O   UNL     1       9.977   3.562  23.775  0.00  0.00    -0.486 OA
BRANCH  30  31
ATOM     31  C   UNL     1       9.222   4.669  24.251  0.00  0.00    +0.201 C 
ATOM     32  C   UNL     1       8.178   5.176  23.263  0.00  0.00    +0.204 C 
ATOM     33  O   UNL     1       8.190   6.616  23.302  0.00  0.00    -0.376 OA
ATOM     34  C   UNL     1       9.219   7.030  24.206  0.00  0.00    +0.163 C 
ATOM     35  C   UNL     1      10.159   5.861  24.338  0.00  0.00    +0.075 C 
ENDBRANCH  30  31
ENDBRANCH  24  30
ENDBRANCH  23  27
ENDBRANCH   1  23
TORSDOF 10
ENDMDL
