MODEL 1
REMARK VINA RESULT:      -7.1      0.000      0.000
REMARK  Name = 
REMARK  15 active torsions:
REMARK  status: ('A' for Active; 'I' for Inactive)
REMARK    1  A    between atoms: C_4  and  C_5
REMARK    2  A    between atoms: C_4  and  C_6
REMARK    3  A    between atoms: C_7  and  C_26
REMARK    4  A    between atoms: C_12  and  N_14
REMARK    5  A    between atoms: C_15  and  C_17
REMARK    6  A    between atoms: C_17  and  N_19
REMARK    7  A    between atoms: C_17  and  C_20
REMARK    8  A    between atoms: C_26  and  O_28
REMARK    9  A    between atoms: O_28  and  C_29
REMARK   10  A    between atoms: C_29  and  C_30
REMARK   11  A    between atoms: C_29  and  O_31
REMARK   12  A    between atoms: O_31  and  C_32
REMARK   13  A    between atoms: C_32  and  O_34
REMARK   14  A    between atoms: O_34  and  C_35
REMARK   15  A    between atoms: C_35  and  C_36
REMARK                            x       y       z     vdW  Elec       q    Type
REMARK                         _______ _______ _______ _____ _____    ______ ____
ROOT
ATOM      1  C   UNL     1       8.604   1.200  21.543  0.00  0.00    +0.165 C 
ATOM      2  C   UNL     1       7.325   2.071  21.666  0.00  0.00    +0.190 C 
ATOM      3  C   UNL     1       6.960   1.111  22.820  0.00  0.00    +0.240 C 
ATOM      4  O   UNL     1       6.208   1.110  23.770  0.00  0.00    -0.273 OA
ATOM      5  N   UNL     1       8.009   0.285  22.530  0.00  0.00    -0.271 N 
ATOM      6  C   UNL     1       8.898  -0.232  23.567  0.00  0.00    +0.201 C 
ATOM      7  C   UNL     1       9.862   0.918  23.937  0.00  0.00    +0.042 C 
ATOM      8  C   UNL     1       9.217   1.926  24.915  0.00  0.00    +0.025 C 
ATOM      9  C   UNL     1      11.191   0.489  24.563  0.00  0.00    +0.025 C 
ATOM     10  S   UNL     1      10.154   1.820  22.345  0.00  0.00    -0.127 S 
ENDROOT
BRANCH   2  11
ATOM     11  N   UNL     1       7.525   3.496  22.005  0.00  0.00    -0.300 N 
ATOM     12  H   UNL     1       8.396   3.989  21.812  0.00  0.00    +0.150 HD
ATOM     13  C   UNL     1       6.458   4.317  22.310  0.00  0.00    +0.235 C 
ATOM     14  O   UNL     1       5.310   3.889  22.419  0.00  0.00    -0.274 OA
BRANCH  13  15
ATOM     15  C   UNL     1       6.838   5.801  22.511  0.00  0.00    +0.168 C 
BRANCH  15  16
ATOM     16  C   UNL     1       7.816   5.983  23.654  0.00  0.00    -0.022 A 
ATOM     17  C   UNL     1       9.146   6.376  23.425  0.00  0.00    +0.005 A 
ATOM     18  C   UNL     1      10.035   6.547  24.487  0.00  0.00    +0.000 A 
ATOM     19  C   UNL     1       9.606   6.332  25.794  0.00  0.00    +0.000 A 
ATOM     20  C   UNL     1       8.291   5.942  26.039  0.00  0.00    +0.000 A 
ATOM     21  C   UNL     1       7.400   5.766  24.977  0.00  0.00    +0.005 A 
ENDBRANCH  15  16
BRANCH  15  22
ATOM     22  N   UNL     1       7.393   6.356  21.248  0.00  0.00    -0.316 NA
ATOM     23  H   UNL     1       7.005   5.811  20.475  0.00  0.00    +0.119 HD
ATOM     24  H   UNL     1       7.001   7.294  21.138  0.00  0.00    +0.119 HD
ENDBRANCH  15  22
ENDBRANCH  13  15
ENDBRANCH   2  11
BRANCH   6  25
ATOM     25  C   UNL     1       9.551  -1.544  23.080  0.00  0.00    +0.332 C 
ATOM     26  O   UNL     1      10.100  -1.665  21.991  0.00  0.00    -0.249 OA
BRANCH  25  27
ATOM     27  O   UNL     1       9.600  -2.491  24.062  0.00  0.00    -0.424 OA
BRANCH  27  28
ATOM     28  C   UNL     1       8.691  -3.580  23.854  0.00  0.00    +0.370 C 
ATOM     29  C   UNL     1       9.083  -4.662  24.859  0.00  0.00    +0.101 C 
BRANCH  28  30
ATOM     30  O   UNL     1       7.347  -3.225  24.189  0.00  0.00    -0.394 OA
BRANCH  30  31
ATOM     31  C   UNL     1       6.452  -3.414  23.196  0.00  0.00    +0.513 C 
ATOM     32  O   UNL     1       6.199  -2.632  22.296  0.00  0.00    -0.203 OA
BRANCH  31  33
ATOM     33  O   UNL     1       5.849  -4.611  23.407  0.00  0.00    -0.434 OA
BRANCH  33  34
ATOM     34  C   UNL     1       5.627  -5.398  22.230  0.00  0.00    +0.232 C 
ATOM     35  C   UNL     1       6.951  -6.021  21.828  0.00  0.00    +0.048 C 
ENDBRANCH  33  34
ENDBRANCH  31  33
ENDBRANCH  30  31
ENDBRANCH  28  30
ENDBRANCH  27  28
ENDBRANCH  25  27
ENDBRANCH   6  25
TORSDOF 11
ENDMDL
MODEL 2
REMARK VINA RESULT:      -7.0      2.355      3.719
REMARK  Name = 
REMARK  15 active torsions:
REMARK  status: ('A' for Active; 'I' for Inactive)
REMARK    1  A    between atoms: C_4  and  C_5
REMARK    2  A    between atoms: C_4  and  C_6
REMARK    3  A    between atoms: C_7  and  C_26
REMARK    4  A    between atoms: C_12  and  N_14
REMARK    5  A    between atoms: C_15  and  C_17
REMARK    6  A    between atoms: C_17  and  N_19
REMARK    7  A    between atoms: C_17  and  C_20
REMARK    8  A    between atoms: C_26  and  O_28
REMARK    9  A    between atoms: O_28  and  C_29
REMARK   10  A    between atoms: C_29  and  C_30
REMARK   11  A    between atoms: C_29  and  O_31
REMARK   12  A    between atoms: O_31  and  C_32
REMARK   13  A    between atoms: C_32  and  O_34
REMARK   14  A    between atoms: O_34  and  C_35
REMARK   15  A    between atoms: C_35  and  C_36
REMARK                            x       y       z     vdW  Elec       q    Type
REMARK                         _______ _______ _______ _____ _____    ______ ____
ROOT
ATOM      1  C   UNL     1       9.834  -1.382  24.768  0.00  0.00    +0.165 C 
ATOM      2  C   UNL     1      10.128  -0.317  23.677  0.00  0.00    +0.190 C 
ATOM      3  C   UNL     1       9.383  -1.289  22.735  0.00  0.00    +0.240 C 
ATOM      4  O   UNL     1       8.843  -1.237  21.652  0.00  0.00    -0.273 OA
ATOM      5  N   UNL     1       9.329  -2.257  23.697  0.00  0.00    -0.271 N 
ATOM      6  C   UNL     1       8.104  -3.001  23.980  0.00  0.00    +0.201 C 
ATOM      7  C   UNL     1       7.204  -2.067  24.821  0.00  0.00    +0.042 C 
ATOM      8  C   UNL     1       6.446  -1.045  23.943  0.00  0.00    +0.025 C 
ATOM      9  C   UNL     1       6.152  -2.768  25.684  0.00  0.00    +0.025 C 
ATOM     10  S   UNL     1       8.379  -1.105  25.880  0.00  0.00    -0.127 S 
ENDROOT
BRANCH   2  11
ATOM     11  N   UNL     1       9.532   1.021  23.881  0.00  0.00    -0.300 N 
ATOM     12  H   UNL     1       9.223   1.350  24.796  0.00  0.00    +0.150 HD
ATOM     13  C   UNL     1       9.645   2.010  22.925  0.00  0.00    +0.235 C 
ATOM     14  O   UNL     1      10.147   1.802  21.822  0.00  0.00    -0.274 OA
BRANCH  13  15
ATOM     15  C   UNL     1       9.077   3.379  23.361  0.00  0.00    +0.168 C 
BRANCH  15  16
ATOM     16  C   UNL     1      10.177   4.373  23.672  0.00  0.00    -0.022 A 
ATOM     17  C   UNL     1      11.500   4.157  23.250  0.00  0.00    +0.005 A 
ATOM     18  C   UNL     1      12.503   5.084  23.537  0.00  0.00    +0.000 A 
ATOM     19  C   UNL     1      12.197   6.242  24.248  0.00  0.00    +0.000 A 
ATOM     20  C   UNL     1      10.891   6.471  24.675  0.00  0.00    +0.000 A 
ATOM     21  C   UNL     1       9.886   5.542  24.392  0.00  0.00    +0.005 A 
ENDBRANCH  15  16
BRANCH  15  22
ATOM     22  N   UNL     1       8.170   3.908  22.307  0.00  0.00    -0.316 NA
ATOM     23  H   UNL     1       8.648   4.688  21.851  0.00  0.00    +0.119 HD
ATOM     24  H   UNL     1       8.095   3.184  21.589  0.00  0.00    +0.119 HD
ENDBRANCH  15  22
ENDBRANCH  13  15
ENDBRANCH   2  11
BRANCH   6  25
ATOM     25  C   UNL     1       8.462  -4.362  24.615  0.00  0.00    +0.332 C 
ATOM     26  O   UNL     1       8.902  -4.486  25.752  0.00  0.00    -0.249 OA
BRANCH  25  27
ATOM     27  O   UNL     1       8.071  -5.414  23.837  0.00  0.00    -0.424 OA
BRANCH  27  28
ATOM     28  C   UNL     1       7.006  -5.093  22.931  0.00  0.00    +0.370 C 
ATOM     29  C   UNL     1       7.213  -5.974  21.701  0.00  0.00    +0.101 C 
BRANCH  28  30
ATOM     30  O   UNL     1       5.730  -5.469  23.454  0.00  0.00    -0.394 OA
BRANCH  30  31
ATOM     31  C   UNL     1       4.681  -4.849  22.875  0.00  0.00    +0.513 C 
ATOM     32  O   UNL     1       4.629  -3.676  22.547  0.00  0.00    -0.203 OA
BRANCH  31  33
ATOM     33  O   UNL     1       3.675  -5.753  22.765  0.00  0.00    -0.434 OA
BRANCH  33  34
ATOM     34  C   UNL     1       2.463  -5.404  23.447  0.00  0.00    +0.232 C 
ATOM     35  C   UNL     1       1.307  -6.035  22.694  0.00  0.00    +0.048 C 
ENDBRANCH  33  34
ENDBRANCH  31  33
ENDBRANCH  30  31
ENDBRANCH  28  30
ENDBRANCH  27  28
ENDBRANCH  25  27
ENDBRANCH   6  25
TORSDOF 11
ENDMDL
MODEL 3
REMARK VINA RESULT:      -7.0      1.376      2.071
REMARK  Name = 
REMARK  15 active torsions:
REMARK  status: ('A' for Active; 'I' for Inactive)
REMARK    1  A    between atoms: C_4  and  C_5
REMARK    2  A    between atoms: C_4  and  C_6
REMARK    3  A    between atoms: C_7  and  C_26
REMARK    4  A    between atoms: C_12  and  N_14
REMARK    5  A    between atoms: C_15  and  C_17
REMARK    6  A    between atoms: C_17  and  N_19
REMARK    7  A    between atoms: C_17  and  C_20
REMARK    8  A    between atoms: C_26  and  O_28
REMARK    9  A    between atoms: O_28  and  C_29
REMARK   10  A    between atoms: C_29  and  C_30
REMARK   11  A    between atoms: C_29  and  O_31
REMARK   12  A    between atoms: O_31  and  C_32
REMARK   13  A    between atoms: C_32  and  O_34
REMARK   14  A    between atoms: O_34  and  C_35
REMARK   15  A    between atoms: C_35  and  C_36
REMARK                            x       y       z     vdW  Elec       q    Type
REMARK                         _______ _______ _______ _____ _____    ______ ____
ROOT
ATOM      1  C   UNL     1       8.742   1.191  21.551  0.00  0.00    +0.165 C 
ATOM      2  C   UNL     1       7.428   2.012  21.650  0.00  0.00    +0.190 C 
ATOM      3  C   UNL     1       7.066   1.019  22.776  0.00  0.00    +0.240 C 
ATOM      4  O   UNL     1       6.286   0.973  23.703  0.00  0.00    -0.273 OA
ATOM      5  N   UNL     1       8.152   0.237  22.504  0.00  0.00    -0.271 N 
ATOM      6  C   UNL     1       9.029  -0.265  23.558  0.00  0.00    +0.201 C 
ATOM      7  C   UNL     1       9.938   0.912  23.976  0.00  0.00    +0.042 C 
ATOM      8  C   UNL     1       9.228   1.878  24.952  0.00  0.00    +0.025 C 
ATOM      9  C   UNL     1      11.263   0.521  24.635  0.00  0.00    +0.025 C 
ATOM     10  S   UNL     1      10.244   1.852  22.410  0.00  0.00    -0.127 S 
ENDROOT
BRANCH   2  11
ATOM     11  N   UNL     1       7.565   3.437  22.019  0.00  0.00    -0.300 N 
ATOM     12  H   UNL     1       8.424   3.964  21.863  0.00  0.00    +0.150 HD
ATOM     13  C   UNL     1       6.460   4.214  22.301  0.00  0.00    +0.235 C 
ATOM     14  O   UNL     1       5.325   3.744  22.365  0.00  0.00    -0.274 OA
BRANCH  13  15
ATOM     15  C   UNL     1       6.779   5.707  22.539  0.00  0.00    +0.168 C 
BRANCH  15  16
ATOM     16  C   UNL     1       7.733   5.902  23.701  0.00  0.00    -0.022 A 
ATOM     17  C   UNL     1       7.371   5.549  25.013  0.00  0.00    +0.005 A 
ATOM     18  C   UNL     1       8.262   5.727  26.072  0.00  0.00    +0.000 A 
ATOM     19  C   UNL     1       9.528   6.257  25.836  0.00  0.00    +0.000 A 
ATOM     20  C   UNL     1       9.902   6.613  24.542  0.00  0.00    +0.000 A 
ATOM     21  C   UNL     1       9.010   6.440  23.479  0.00  0.00    +0.005 A 
ENDBRANCH  15  16
BRANCH  15  22
ATOM     22  N   UNL     1       7.330   6.310  21.297  0.00  0.00    -0.316 NA
ATOM     23  H   UNL     1       8.267   6.656  21.511  0.00  0.00    +0.119 HD
ATOM     24  H   UNL     1       7.472   5.545  20.634  0.00  0.00    +0.119 HD
ENDBRANCH  15  22
ENDBRANCH  13  15
ENDBRANCH   2  11
BRANCH   6  25
ATOM     25  C   UNL     1       9.744  -1.544  23.069  0.00  0.00    +0.332 C 
ATOM     26  O   UNL     1      10.321  -1.628  21.991  0.00  0.00    -0.249 OA
BRANCH  25  27
ATOM     27  O   UNL     1       9.810  -2.502  24.039  0.00  0.00    -0.424 OA
BRANCH  27  28
ATOM     28  C   UNL     1       8.526  -2.972  24.470  0.00  0.00    +0.370 C 
ATOM     29  C   UNL     1       7.946  -3.765  23.301  0.00  0.00    +0.101 C 
BRANCH  28  30
ATOM     30  O   UNL     1       8.633  -3.909  25.544  0.00  0.00    -0.394 OA
BRANCH  30  31
ATOM     31  C   UNL     1       7.779  -3.693  26.567  0.00  0.00    +0.513 C 
ATOM     32  O   UNL     1       7.182  -2.656  26.800  0.00  0.00    -0.203 OA
BRANCH  31  33
ATOM     33  O   UNL     1       7.738  -4.823  27.317  0.00  0.00    -0.434 OA
BRANCH  33  34
ATOM     34  C   UNL     1       6.424  -5.315  27.608  0.00  0.00    +0.232 C 
ATOM     35  C   UNL     1       5.847  -5.892  26.328  0.00  0.00    +0.048 C 
ENDBRANCH  33  34
ENDBRANCH  31  33
ENDBRANCH  30  31
ENDBRANCH  28  30
ENDBRANCH  27  28
ENDBRANCH  25  27
ENDBRANCH   6  25
TORSDOF 11
ENDMDL
MODEL 4
REMARK VINA RESULT:      -7.0      3.293      8.831
REMARK  Name = 
REMARK  15 active torsions:
REMARK  status: ('A' for Active; 'I' for Inactive)
REMARK    1  A    between atoms: C_4  and  C_5
REMARK    2  A    between atoms: C_4  and  C_6
REMARK    3  A    between atoms: C_7  and  C_26
REMARK    4  A    between atoms: C_12  and  N_14
REMARK    5  A    between atoms: C_15  and  C_17
REMARK    6  A    between atoms: C_17  and  N_19
REMARK    7  A    between atoms: C_17  and  C_20
REMARK    8  A    between atoms: C_26  and  O_28
REMARK    9  A    between atoms: O_28  and  C_29
REMARK   10  A    between atoms: C_29  and  C_30
REMARK   11  A    between atoms: C_29  and  O_31
REMARK   12  A    between atoms: O_31  and  C_32
REMARK   13  A    between atoms: C_32  and  O_34
REMARK   14  A    between atoms: O_34  and  C_35
REMARK   15  A    between atoms: C_35  and  C_36
REMARK                            x       y       z     vdW  Elec       q    Type
REMARK                         _______ _______ _______ _____ _____    ______ ____
ROOT
ATOM      1  C   UNL     1       8.355  -1.362  22.834  0.00  0.00    +0.165 C 
ATOM      2  C   UNL     1       8.334  -2.894  22.587  0.00  0.00    +0.190 C 
ATOM      3  C   UNL     1       9.412  -2.939  23.691  0.00  0.00    +0.240 C 
ATOM      4  O   UNL     1       9.888  -3.770  24.435  0.00  0.00    -0.273 OA
ATOM      5  N   UNL     1       9.511  -1.577  23.719  0.00  0.00    -0.271 N 
ATOM      6  C   UNL     1       9.528  -0.827  24.972  0.00  0.00    +0.201 C 
ATOM      7  C   UNL     1       8.066  -0.766  25.470  0.00  0.00    +0.042 C 
ATOM      8  C   UNL     1       7.642  -2.066  26.191  0.00  0.00    +0.025 C 
ATOM      9  C   UNL     1       7.743   0.388  26.423  0.00  0.00    +0.025 C 
ATOM     10  S   UNL     1       7.046  -0.642  23.929  0.00  0.00    -0.127 S 
ENDROOT
BRANCH   2  11
ATOM     11  N   UNL     1       7.057  -3.590  22.855  0.00  0.00    -0.300 N 
ATOM     12  H   UNL     1       6.168  -3.096  22.925  0.00  0.00    +0.150 HD
ATOM     13  C   UNL     1       6.943  -4.958  22.716  0.00  0.00    +0.235 C 
ATOM     14  O   UNL     1       7.910  -5.676  22.469  0.00  0.00    -0.274 OA
BRANCH  13  15
ATOM     15  C   UNL     1       5.508  -5.497  22.910  0.00  0.00    +0.168 C 
BRANCH  15  16
ATOM     16  C   UNL     1       5.255  -5.926  24.341  0.00  0.00    -0.022 A 
ATOM     17  C   UNL     1       4.185  -6.775  24.673  0.00  0.00    +0.005 A 
ATOM     18  C   UNL     1       3.968  -7.169  25.994  0.00  0.00    +0.000 A 
ATOM     19  C   UNL     1       4.817  -6.721  27.003  0.00  0.00    +0.000 A 
ATOM     20  C   UNL     1       5.882  -5.879  26.691  0.00  0.00    +0.000 A 
ATOM     21  C   UNL     1       6.100  -5.480  25.369  0.00  0.00    +0.005 A 
ENDBRANCH  15  16
BRANCH  15  22
ATOM     22  N   UNL     1       4.521  -4.470  22.484  0.00  0.00    -0.316 NA
ATOM     23  H   UNL     1       3.719  -4.533  23.114  0.00  0.00    +0.119 HD
ATOM     24  H   UNL     1       4.941  -3.557  22.676  0.00  0.00    +0.119 HD
ENDBRANCH  15  22
ENDBRANCH  13  15
ENDBRANCH   2  11
BRANCH   6  25
ATOM     25  C   UNL     1      10.235   0.528  24.753  0.00  0.00    +0.332 C 
ATOM     26  O   UNL     1      11.434   0.706  24.936  0.00  0.00    -0.249 OA
BRANCH  25  27
ATOM     27  O   UNL     1       9.415   1.450  24.170  0.00  0.00    -0.424 OA
BRANCH  27  28
ATOM     28  C   UNL     1      10.082   2.296  23.223  0.00  0.00    +0.370 C 
ATOM     29  C   UNL     1       9.707   1.768  21.840  0.00  0.00    +0.101 C 
BRANCH  28  30
ATOM     30  O   UNL     1       9.587   3.636  23.263  0.00  0.00    -0.394 OA
BRANCH  30  31
ATOM     31  C   UNL     1      10.485   4.555  23.676  0.00  0.00    +0.513 C 
ATOM     32  O   UNL     1      10.231   5.622  24.206  0.00  0.00    -0.203 OA
BRANCH  31  33
ATOM     33  O   UNL     1      11.721   4.099  23.353  0.00  0.00    -0.434 OA
BRANCH  33  34
ATOM     34  C   UNL     1      12.774   5.067  23.446  0.00  0.00    +0.232 C 
ATOM     35  C   UNL     1      13.119   5.518  22.040  0.00  0.00    +0.048 C 
ENDBRANCH  33  34
ENDBRANCH  31  33
ENDBRANCH  30  31
ENDBRANCH  28  30
ENDBRANCH  27  28
ENDBRANCH  25  27
ENDBRANCH   6  25
TORSDOF 11
ENDMDL
MODEL 5
REMARK VINA RESULT:      -6.9      2.890      8.845
REMARK  Name = 
REMARK  15 active torsions:
REMARK  status: ('A' for Active; 'I' for Inactive)
REMARK    1  A    between atoms: C_4  and  C_5
REMARK    2  A    between atoms: C_4  and  C_6
REMARK    3  A    between atoms: C_7  and  C_26
REMARK    4  A    between atoms: C_12  and  N_14
REMARK    5  A    between atoms: C_15  and  C_17
REMARK    6  A    between atoms: C_17  and  N_19
REMARK    7  A    between atoms: C_17  and  C_20
REMARK    8  A    between atoms: C_26  and  O_28
REMARK    9  A    between atoms: O_28  and  C_29
REMARK   10  A    between atoms: C_29  and  C_30
REMARK   11  A    between atoms: C_29  and  O_31
REMARK   12  A    between atoms: O_31  and  C_32
REMARK   13  A    between atoms: C_32  and  O_34
REMARK   14  A    between atoms: O_34  and  C_35
REMARK   15  A    between atoms: C_35  and  C_36
REMARK                            x       y       z     vdW  Elec       q    Type
REMARK                         _______ _______ _______ _____ _____    ______ ____
ROOT
ATOM      1  C   UNL     1       9.817  -0.418  25.233  0.00  0.00    +0.165 C 
ATOM      2  C   UNL     1       8.979  -1.470  26.010  0.00  0.00    +0.190 C 
ATOM      3  C   UNL     1       7.821  -0.464  25.831  0.00  0.00    +0.240 C 
ATOM      4  O   UNL     1       6.610  -0.484  25.888  0.00  0.00    -0.273 OA
ATOM      5  N   UNL     1       8.660   0.488  25.325  0.00  0.00    -0.271 N 
ATOM      6  C   UNL     1       8.329   1.253  24.125  0.00  0.00    +0.201 C 
ATOM      7  C   UNL     1       8.598   0.325  22.919  0.00  0.00    +0.042 C 
ATOM      8  C   UNL     1       7.435  -0.664  22.675  0.00  0.00    +0.025 C 
ATOM      9  C   UNL     1       8.857   1.033  21.587  0.00  0.00    +0.025 C 
ATOM     10  S   UNL     1      10.070  -0.683  23.418  0.00  0.00    -0.127 S 
ENDROOT
BRANCH   2  11
ATOM     11  N   UNL     1       8.831  -2.797  25.376  0.00  0.00    -0.300 N 
ATOM     12  H   UNL     1       9.324  -3.055  24.522  0.00  0.00    +0.150 HD
ATOM     13  C   UNL     1       8.273  -3.859  26.058  0.00  0.00    +0.235 C 
ATOM     14  O   UNL     1       7.778  -3.734  27.177  0.00  0.00    -0.274 OA
BRANCH  13  15
ATOM     15  C   UNL     1       8.316  -5.199  25.289  0.00  0.00    +0.168 C 
BRANCH  15  16
ATOM     16  C   UNL     1       7.305  -5.235  24.161  0.00  0.00    -0.022 A 
ATOM     17  C   UNL     1       7.701  -5.454  22.830  0.00  0.00    +0.005 A 
ATOM     18  C   UNL     1       6.759  -5.492  21.801  0.00  0.00    +0.000 A 
ATOM     19  C   UNL     1       5.408  -5.315  22.087  0.00  0.00    +0.000 A 
ATOM     20  C   UNL     1       4.999  -5.096  23.400  0.00  0.00    +0.000 A 
ATOM     21  C   UNL     1       5.941  -5.053  24.433  0.00  0.00    +0.005 A 
ENDBRANCH  15  16
BRANCH  15  22
ATOM     22  N   UNL     1       9.690  -5.442  24.776  0.00  0.00    -0.316 NA
ATOM     23  H   UNL     1       9.628  -6.171  24.062  0.00  0.00    +0.119 HD
ATOM     24  H   UNL     1       9.972  -4.598  24.272  0.00  0.00    +0.119 HD
ENDBRANCH  15  22
ENDBRANCH  13  15
ENDBRANCH   2  11
BRANCH   6  25
ATOM     25  C   UNL     1       9.094   2.594  24.142  0.00  0.00    +0.332 C 
ATOM     26  O   UNL     1      10.298   2.691  23.936  0.00  0.00    -0.249 OA
BRANCH  25  27
ATOM     27  O   UNL     1       8.255   3.667  24.238  0.00  0.00    -0.424 OA
BRANCH  27  28
ATOM     28  C   UNL     1       8.376   4.590  23.147  0.00  0.00    +0.370 C 
ATOM     29  C   UNL     1       7.049   4.537  22.393  0.00  0.00    +0.101 C 
BRANCH  28  30
ATOM     30  O   UNL     1       8.498   5.940  23.602  0.00  0.00    -0.394 OA
BRANCH  30  31
ATOM     31  C   UNL     1       9.639   6.207  24.271  0.00  0.00    +0.513 C 
ATOM     32  O   UNL     1       9.725   6.575  25.430  0.00  0.00    -0.203 OA
BRANCH  31  33
ATOM     33  O   UNL     1      10.673   6.037  23.409  0.00  0.00    -0.434 OA
BRANCH  33  34
ATOM     34  C   UNL     1      11.966   5.935  24.018  0.00  0.00    +0.232 C 
ATOM     35  C   UNL     1      12.893   5.249  23.033  0.00  0.00    +0.048 C 
ENDBRANCH  33  34
ENDBRANCH  31  33
ENDBRANCH  30  31
ENDBRANCH  28  30
ENDBRANCH  27  28
ENDBRANCH  25  27
ENDBRANCH   6  25
TORSDOF 11
ENDMDL
MODEL 6
REMARK VINA RESULT:      -6.7      2.878      8.093
REMARK  Name = 
REMARK  15 active torsions:
REMARK  status: ('A' for Active; 'I' for Inactive)
REMARK    1  A    between atoms: C_4  and  C_5
REMARK    2  A    between atoms: C_4  and  C_6
REMARK    3  A    between atoms: C_7  and  C_26
REMARK    4  A    between atoms: C_12  and  N_14
REMARK    5  A    between atoms: C_15  and  C_17
REMARK    6  A    between atoms: C_17  and  N_19
REMARK    7  A    between atoms: C_17  and  C_20
REMARK    8  A    between atoms: C_26  and  O_28
REMARK    9  A    between atoms: O_28  and  C_29
REMARK   10  A    between atoms: C_29  and  C_30
REMARK   11  A    between atoms: C_29  and  O_31
REMARK   12  A    between atoms: O_31  and  C_32
REMARK   13  A    between atoms: C_32  and  O_34
REMARK   14  A    between atoms: O_34  and  C_35
REMARK   15  A    between atoms: C_35  and  C_36
REMARK                            x       y       z     vdW  Elec       q    Type
REMARK                         _______ _______ _______ _____ _____    ______ ____
ROOT
ATOM      1  C   UNL     1       9.334  -0.933  25.604  0.00  0.00    +0.165 C 
ATOM      2  C   UNL     1       8.073  -1.097  26.494  0.00  0.00    +0.190 C 
ATOM      3  C   UNL     1       7.706   0.312  25.978  0.00  0.00    +0.240 C 
ATOM      4  O   UNL     1       6.711   1.000  25.907  0.00  0.00    -0.273 OA
ATOM      5  N   UNL     1       8.921   0.460  25.373  0.00  0.00    -0.271 N 
ATOM      6  C   UNL     1       9.050   0.966  24.008  0.00  0.00    +0.201 C 
ATOM      7  C   UNL     1       8.685  -0.204  23.067  0.00  0.00    +0.042 C 
ATOM      8  C   UNL     1       7.156  -0.376  22.917  0.00  0.00    +0.025 C 
ATOM      9  C   UNL     1       9.256  -0.112  21.649  0.00  0.00    +0.025 C 
ATOM     10  S   UNL     1       9.318  -1.717  23.926  0.00  0.00    -0.127 S 
ENDROOT
BRANCH   2  11
ATOM     11  N   UNL     1       7.159  -2.207  26.148  0.00  0.00    -0.300 N 
ATOM     12  H   UNL     1       6.390  -2.098  25.488  0.00  0.00    +0.150 HD
ATOM     13  C   UNL     1       7.474  -3.516  26.451  0.00  0.00    +0.235 C 
ATOM     14  O   UNL     1       8.468  -3.817  27.109  0.00  0.00    -0.274 OA
BRANCH  13  15
ATOM     15  C   UNL     1       6.468  -4.553  25.902  0.00  0.00    +0.168 C 
BRANCH  15  16
ATOM     16  C   UNL     1       6.392  -4.520  24.389  0.00  0.00    -0.022 A 
ATOM     17  C   UNL     1       7.319  -5.216  23.594  0.00  0.00    +0.005 A 
ATOM     18  C   UNL     1       7.234  -5.183  22.202  0.00  0.00    +0.000 A 
ATOM     19  C   UNL     1       6.219  -4.458  21.583  0.00  0.00    +0.000 A 
ATOM     20  C   UNL     1       5.292  -3.762  22.356  0.00  0.00    +0.000 A 
ATOM     21  C   UNL     1       5.378  -3.789  23.751  0.00  0.00    +0.005 A 
ENDBRANCH  15  16
BRANCH  15  22
ATOM     22  N   UNL     1       6.830  -5.912  26.384  0.00  0.00    -0.316 NA
ATOM     23  H   UNL     1       6.296  -6.587  25.833  0.00  0.00    +0.119 HD
ATOM     24  H   UNL     1       7.807  -6.068  26.124  0.00  0.00    +0.119 HD
ENDBRANCH  15  22
ENDBRANCH  13  15
ENDBRANCH   2  11
BRANCH   6  25
ATOM     25  C   UNL     1      10.450   1.588  23.819  0.00  0.00    +0.332 C 
ATOM     26  O   UNL     1      11.489   1.043  24.175  0.00  0.00    -0.249 OA
BRANCH  25  27
ATOM     27  O   UNL     1      10.414   2.721  23.059  0.00  0.00    -0.424 OA
BRANCH  27  28
ATOM     28  C   UNL     1      10.539   3.928  23.822  0.00  0.00    +0.370 C 
ATOM     29  C   UNL     1      11.785   4.639  23.298  0.00  0.00    +0.101 C 
BRANCH  28  30
ATOM     30  O   UNL     1       9.458   4.831  23.574  0.00  0.00    -0.394 OA
BRANCH  30  31
ATOM     31  C   UNL     1       8.359   4.612  24.326  0.00  0.00    +0.513 C 
ATOM     32  O   UNL     1       8.335   4.113  25.438  0.00  0.00    -0.203 OA
BRANCH  31  33
ATOM     33  O   UNL     1       7.280   5.004  23.604  0.00  0.00    -0.434 OA
BRANCH  33  34
ATOM     34  C   UNL     1       7.271   4.575  22.236  0.00  0.00    +0.232 C 
ATOM     35  C   UNL     1       6.585   3.224  22.175  0.00  0.00    +0.048 C 
ENDBRANCH  33  34
ENDBRANCH  31  33
ENDBRANCH  30  31
ENDBRANCH  28  30
ENDBRANCH  27  28
ENDBRANCH  25  27
ENDBRANCH   6  25
TORSDOF 11
ENDMDL
MODEL 7
REMARK VINA RESULT:      -6.5      3.081      8.485
REMARK  Name = 
REMARK  15 active torsions:
REMARK  status: ('A' for Active; 'I' for Inactive)
REMARK    1  A    between atoms: C_4  and  C_5
REMARK    2  A    between atoms: C_4  and  C_6
REMARK    3  A    between atoms: C_7  and  C_26
REMARK    4  A    between atoms: C_12  and  N_14
REMARK    5  A    between atoms: C_15  and  C_17
REMARK    6  A    between atoms: C_17  and  N_19
REMARK    7  A    between atoms: C_17  and  C_20
REMARK    8  A    between atoms: C_26  and  O_28
REMARK    9  A    between atoms: O_28  and  C_29
REMARK   10  A    between atoms: C_29  and  C_30
REMARK   11  A    between atoms: C_29  and  O_31
REMARK   12  A    between atoms: O_31  and  C_32
REMARK   13  A    between atoms: C_32  and  O_34
REMARK   14  A    between atoms: O_34  and  C_35
REMARK   15  A    between atoms: C_35  and  C_36
REMARK                            x       y       z     vdW  Elec       q    Type
REMARK                         _______ _______ _______ _____ _____    ______ ____
ROOT
ATOM      1  C   UNL     1       7.262  -0.935  22.666  0.00  0.00    +0.165 C 
ATOM      2  C   UNL     1       8.024  -2.193  22.168  0.00  0.00    +0.190 C 
ATOM      3  C   UNL     1       9.282  -1.448  22.667  0.00  0.00    +0.240 C 
ATOM      4  O   UNL     1      10.424  -1.730  22.960  0.00  0.00    -0.273 OA
ATOM      5  N   UNL     1       8.571  -0.306  22.906  0.00  0.00    -0.271 N 
ATOM      6  C   UNL     1       8.718   0.452  24.146  0.00  0.00    +0.201 C 
ATOM      7  C   UNL     1       7.922  -0.312  25.229  0.00  0.00    +0.042 C 
ATOM      8  C   UNL     1       8.718  -1.507  25.801  0.00  0.00    +0.025 C 
ATOM      9  C   UNL     1       7.468   0.526  26.427  0.00  0.00    +0.025 C 
ATOM     10  S   UNL     1       6.460  -1.013  24.334  0.00  0.00    -0.127 S 
ENDROOT
BRANCH   2  11
ATOM     11  N   UNL     1       7.688  -3.474  22.824  0.00  0.00    -0.300 N 
ATOM     12  H   UNL     1       8.048  -3.731  23.742  0.00  0.00    +0.150 HD
ATOM     13  C   UNL     1       6.634  -4.250  22.384  0.00  0.00    +0.235 C 
ATOM     14  O   UNL     1       5.994  -3.974  21.372  0.00  0.00    -0.274 OA
BRANCH  13  15
ATOM     15  C   UNL     1       6.348  -5.486  23.266  0.00  0.00    +0.168 C 
BRANCH  15  16
ATOM     16  C   UNL     1       6.359  -5.143  24.741  0.00  0.00    -0.022 A 
ATOM     17  C   UNL     1       7.487  -5.394  25.542  0.00  0.00    +0.005 A 
ATOM     18  C   UNL     1       7.488  -5.066  26.899  0.00  0.00    +0.000 A 
ATOM     19  C   UNL     1       6.363  -4.480  27.474  0.00  0.00    +0.000 A 
ATOM     20  C   UNL     1       5.237  -4.225  26.694  0.00  0.00    +0.000 A 
ATOM     21  C   UNL     1       5.232  -4.557  25.336  0.00  0.00    +0.005 A 
ENDBRANCH  15  16
BRANCH  15  22
ATOM     22  N   UNL     1       5.048  -6.094  22.875  0.00  0.00    -0.316 NA
ATOM     23  H   UNL     1       5.203  -7.095  22.741  0.00  0.00    +0.119 HD
ATOM     24  H   UNL     1       4.432  -6.026  23.688  0.00  0.00    +0.119 HD
ENDBRANCH  15  22
ENDBRANCH  13  15
ENDBRANCH   2  11
BRANCH   6  25
ATOM     25  C   UNL     1       8.309   1.921  23.904  0.00  0.00    +0.332 C 
ATOM     26  O   UNL     1       7.334   2.254  23.240  0.00  0.00    -0.249 OA
BRANCH  25  27
ATOM     27  O   UNL     1       9.049   2.793  24.651  0.00  0.00    -0.424 OA
BRANCH  27  28
ATOM     28  C   UNL     1       8.485   4.109  24.721  0.00  0.00    +0.370 C 
ATOM     29  C   UNL     1       7.669   4.157  26.011  0.00  0.00    +0.101 C 
BRANCH  28  30
ATOM     30  O   UNL     1       9.492   5.113  24.875  0.00  0.00    -0.394 OA
BRANCH  30  31
ATOM     31  C   UNL     1       9.709   5.864  23.774  0.00  0.00    +0.513 C 
ATOM     32  O   UNL     1       8.862   6.254  22.990  0.00  0.00    -0.203 OA
BRANCH  31  33
ATOM     33  O   UNL     1      11.047   6.068  23.671  0.00  0.00    -0.434 OA
BRANCH  33  34
ATOM     34  C   UNL     1      11.820   4.902  23.361  0.00  0.00    +0.232 C 
ATOM     35  C   UNL     1      13.148   5.361  22.787  0.00  0.00    +0.048 C 
ENDBRANCH  33  34
ENDBRANCH  31  33
ENDBRANCH  30  31
ENDBRANCH  28  30
ENDBRANCH  27  28
ENDBRANCH  25  27
ENDBRANCH   6  25
TORSDOF 11
ENDMDL
MODEL 8
REMARK VINA RESULT:      -6.5      3.011      8.481
REMARK  Name = 
REMARK  15 active torsions:
REMARK  status: ('A' for Active; 'I' for Inactive)
REMARK    1  A    between atoms: C_4  and  C_5
REMARK    2  A    between atoms: C_4  and  C_6
REMARK    3  A    between atoms: C_7  and  C_26
REMARK    4  A    between atoms: C_12  and  N_14
REMARK    5  A    between atoms: C_15  and  C_17
REMARK    6  A    between atoms: C_17  and  N_19
REMARK    7  A    between atoms: C_17  and  C_20
REMARK    8  A    between atoms: C_26  and  O_28
REMARK    9  A    between atoms: O_28  and  C_29
REMARK   10  A    between atoms: C_29  and  C_30
REMARK   11  A    between atoms: C_29  and  O_31
REMARK   12  A    between atoms: O_31  and  C_32
REMARK   13  A    between atoms: C_32  and  O_34
REMARK   14  A    between atoms: O_34  and  C_35
REMARK   15  A    between atoms: C_35  and  C_36
REMARK                            x       y       z     vdW  Elec       q    Type
REMARK                         _______ _______ _______ _____ _____    ______ ____
ROOT
ATOM      1  C   UNL     1       9.260  -0.657  25.518  0.00  0.00    +0.165 C 
ATOM      2  C   UNL     1       8.152  -1.436  26.277  0.00  0.00    +0.190 C 
ATOM      3  C   UNL     1       7.190  -0.433  25.603  0.00  0.00    +0.240 C 
ATOM      4  O   UNL     1       6.004  -0.363  25.365  0.00  0.00    -0.273 OA
ATOM      5  N   UNL     1       8.228   0.314  25.122  0.00  0.00    -0.271 N 
ATOM      6  C   UNL     1       8.266   0.787  23.740  0.00  0.00    +0.201 C 
ATOM      7  C   UNL     1       8.686  -0.420  22.871  0.00  0.00    +0.042 C 
ATOM      8  C   UNL     1       7.499  -1.365  22.573  0.00  0.00    +0.025 C 
ATOM      9  C   UNL     1       9.319  -0.072  21.521  0.00  0.00    +0.025 C 
ATOM     10  S   UNL     1       9.880  -1.368  23.924  0.00  0.00    -0.127 S 
ENDROOT
BRANCH   2  11
ATOM     11  N   UNL     1       7.994  -2.865  25.934  0.00  0.00    -0.300 N 
ATOM     12  H   UNL     1       8.724  -3.400  25.464  0.00  0.00    +0.150 HD
ATOM     13  C   UNL     1       6.996  -3.632  26.499  0.00  0.00    +0.235 C 
ATOM     14  O   UNL     1       6.130  -3.150  27.226  0.00  0.00    -0.274 OA
BRANCH  13  15
ATOM     15  C   UNL     1       7.060  -5.130  26.126  0.00  0.00    +0.168 C 
BRANCH  15  16
ATOM     16  C   UNL     1       6.695  -5.367  24.674  0.00  0.00    -0.022 A 
ATOM     17  C   UNL     1       7.670  -5.347  23.661  0.00  0.00    +0.005 A 
ATOM     18  C   UNL     1       7.321  -5.574  22.329  0.00  0.00    +0.000 A 
ATOM     19  C   UNL     1       5.994  -5.826  21.990  0.00  0.00    +0.000 A 
ATOM     20  C   UNL     1       5.016  -5.848  22.981  0.00  0.00    +0.000 A 
ATOM     21  C   UNL     1       5.361  -5.617  24.316  0.00  0.00    +0.005 A 
ENDBRANCH  15  16
BRANCH  15  22
ATOM     22  N   UNL     1       8.414  -5.667  26.424  0.00  0.00    -0.316 NA
ATOM     23  H   UNL     1       9.065  -4.879  26.427  0.00  0.00    +0.119 HD
ATOM     24  H   UNL     1       8.395  -6.002  27.390  0.00  0.00    +0.119 HD
ENDBRANCH  15  22
ENDBRANCH  13  15
ENDBRANCH   2  11
BRANCH   6  25
ATOM     25  C   UNL     1       9.160   2.042  23.649  0.00  0.00    +0.332 C 
ATOM     26  O   UNL     1      10.282   2.113  24.138  0.00  0.00    -0.249 OA
BRANCH  25  27
ATOM     27  O   UNL     1       8.636   2.991  22.819  0.00  0.00    -0.424 OA
BRANCH  27  28
ATOM     28  C   UNL     1       8.451   4.265  23.450  0.00  0.00    +0.370 C 
ATOM     29  C   UNL     1       7.507   5.056  22.547  0.00  0.00    +0.101 C 
BRANCH  28  30
ATOM     30  O   UNL     1       7.766   4.148  24.700  0.00  0.00    -0.394 OA
BRANCH  30  31
ATOM     31  C   UNL     1       8.278   4.903  25.694  0.00  0.00    +0.513 C 
ATOM     32  O   UNL     1       9.046   5.840  25.564  0.00  0.00    -0.203 OA
BRANCH  31  33
ATOM     33  O   UNL     1       7.821   4.403  26.870  0.00  0.00    -0.434 OA
BRANCH  33  34
ATOM     34  C   UNL     1       7.054   3.197  26.763  0.00  0.00    +0.232 C 
ATOM     35  C   UNL     1       6.869   2.637  28.161  0.00  0.00    +0.048 C 
ENDBRANCH  33  34
ENDBRANCH  31  33
ENDBRANCH  30  31
ENDBRANCH  28  30
ENDBRANCH  27  28
ENDBRANCH  25  27
ENDBRANCH   6  25
TORSDOF 11
ENDMDL
MODEL 9
REMARK VINA RESULT:      -6.4      3.214      5.449
REMARK  Name = 
REMARK  15 active torsions:
REMARK  status: ('A' for Active; 'I' for Inactive)
REMARK    1  A    between atoms: C_4  and  C_5
REMARK    2  A    between atoms: C_4  and  C_6
REMARK    3  A    between atoms: C_7  and  C_26
REMARK    4  A    between atoms: C_12  and  N_14
REMARK    5  A    between atoms: C_15  and  C_17
REMARK    6  A    between atoms: C_17  and  N_19
REMARK    7  A    between atoms: C_17  and  C_20
REMARK    8  A    between atoms: C_26  and  O_28
REMARK    9  A    between atoms: O_28  and  C_29
REMARK   10  A    between atoms: C_29  and  C_30
REMARK   11  A    between atoms: C_29  and  O_31
REMARK   12  A    between atoms: O_31  and  C_32
REMARK   13  A    between atoms: C_32  and  O_34
REMARK   14  A    between atoms: O_34  and  C_35
REMARK   15  A    between atoms: C_35  and  C_36
REMARK                            x       y       z     vdW  Elec       q    Type
REMARK                         _______ _______ _______ _____ _____    ______ ____
ROOT
ATOM      1  C   UNL     1       8.881  -3.730  25.495  0.00  0.00    +0.165 C 
ATOM      2  C   UNL     1       9.456  -3.088  24.203  0.00  0.00    +0.190 C 
ATOM      3  C   UNL     1       8.115  -3.518  23.569  0.00  0.00    +0.240 C 
ATOM      4  O   UNL     1       7.465  -3.233  22.586  0.00  0.00    -0.273 OA
ATOM      5  N   UNL     1       7.758  -4.224  24.682  0.00  0.00    -0.271 N 
ATOM      6  C   UNL     1       6.425  -4.120  25.271  0.00  0.00    +0.201 C 
ATOM      7  C   UNL     1       6.393  -2.792  26.061  0.00  0.00    +0.042 C 
ATOM      8  C   UNL     1       6.142  -1.575  25.142  0.00  0.00    +0.025 C 
ATOM      9  C   UNL     1       5.353  -2.717  27.182  0.00  0.00    +0.025 C 
ATOM     10  S   UNL     1       8.103  -2.609  26.747  0.00  0.00    -0.127 S 
ENDROOT
BRANCH   2  11
ATOM     11  N   UNL     1       9.748  -1.639  24.258  0.00  0.00    -0.300 N 
ATOM     12  H   UNL     1       9.713  -1.105  25.125  0.00  0.00    +0.150 HD
ATOM     13  C   UNL     1      10.382  -0.996  23.215  0.00  0.00    +0.235 C 
ATOM     14  O   UNL     1      10.640  -1.562  22.154  0.00  0.00    -0.274 OA
BRANCH  13  15
ATOM     15  C   UNL     1      10.723   0.484  23.497  0.00  0.00    +0.168 C 
BRANCH  15  16
ATOM     16  C   UNL     1       9.601   1.412  23.073  0.00  0.00    -0.022 A 
ATOM     17  C   UNL     1       9.233   2.520  23.855  0.00  0.00    +0.005 A 
ATOM     18  C   UNL     1       8.204   3.371  23.450  0.00  0.00    +0.000 A 
ATOM     19  C   UNL     1       7.529   3.128  22.257  0.00  0.00    +0.000 A 
ATOM     20  C   UNL     1       7.881   2.033  21.470  0.00  0.00    +0.000 A 
ATOM     21  C   UNL     1       8.909   1.177  21.876  0.00  0.00    +0.005 A 
ENDBRANCH  15  16
BRANCH  15  22
ATOM     22  N   UNL     1      11.040   0.664  24.938  0.00  0.00    -0.316 NA
ATOM     23  H   UNL     1      10.266   0.270  25.476  0.00  0.00    +0.119 HD
ATOM     24  H   UNL     1      11.842   0.062  25.142  0.00  0.00    +0.119 HD
ENDBRANCH  15  22
ENDBRANCH  13  15
ENDBRANCH   2  11
BRANCH   6  25
ATOM     25  C   UNL     1       6.115  -5.403  26.074  0.00  0.00    +0.332 C 
ATOM     26  O   UNL     1       6.952  -6.015  26.726  0.00  0.00    -0.249 OA
BRANCH  25  27
ATOM     27  O   UNL     1       4.777  -5.675  26.115  0.00  0.00    -0.424 OA
BRANCH  27  28
ATOM     28  C   UNL     1       4.322  -6.481  25.020  0.00  0.00    +0.370 C 
ATOM     29  C   UNL     1       3.387  -7.529  25.622  0.00  0.00    +0.101 C 
BRANCH  28  30
ATOM     30  O   UNL     1       3.513  -5.735  24.108  0.00  0.00    -0.394 OA
BRANCH  30  31
ATOM     31  C   UNL     1       4.176  -5.253  23.035  0.00  0.00    +0.513 C 
ATOM     32  O   UNL     1       4.259  -4.082  22.707  0.00  0.00    -0.203 OA
BRANCH  31  33
ATOM     33  O   UNL     1       4.694  -6.310  22.361  0.00  0.00    -0.434 OA
BRANCH  33  34
ATOM     34  C   UNL     1       6.092  -6.217  22.060  0.00  0.00    +0.232 C 
ATOM     35  C   UNL     1       6.230  -5.835  20.598  0.00  0.00    +0.048 C 
ENDBRANCH  33  34
ENDBRANCH  31  33
ENDBRANCH  30  31
ENDBRANCH  28  30
ENDBRANCH  27  28
ENDBRANCH  25  27
ENDBRANCH   6  25
TORSDOF 11
ENDMDL
