MODEL 1
REMARK VINA RESULT:      -7.8      0.000      0.000
REMARK  Name = 
REMARK  9 active torsions:
REMARK  status: ('A' for Active; 'I' for Inactive)
REMARK    1  A    between atoms: C_2  and  C_3
REMARK    2  A    between atoms: C_2  and  C_18
REMARK    3  A    between atoms: C_2  and  C_26
REMARK    4  A    between atoms: C_3  and  C_4
REMARK    5  A    between atoms: C_8  and  C_11
REMARK    6  A    between atoms: C_11  and  P_14
REMARK    7  A    between atoms: P_14  and  O_15
REMARK    8  A    between atoms: P_14  and  O_16
REMARK    9  A    between atoms: C_18  and  C_20
REMARK                            x       y       z     vdW  Elec       q    Type
REMARK                         _______ _______ _______ _____ _____    ______ ____
ROOT
ATOM      1  C   UNL     1      10.672  -0.240  23.740  0.00  0.00    +0.051 C 
ENDROOT
BRANCH   1   2
ATOM      2  C   UNL     1       9.795  -1.465  23.601  0.00  0.00    -0.045 A 
ATOM      3  C   UNL     1       9.020  -1.660  22.453  0.00  0.00    +0.004 A 
ATOM      4  C   UNL     1       8.177  -2.763  22.338  0.00  0.00    +0.011 A 
ATOM      5  C   UNL     1       8.122  -3.731  23.350  0.00  0.00    +0.047 A 
ATOM      6  C   UNL     1       8.889  -3.529  24.506  0.00  0.00    +0.028 A 
ATOM      7 BR   UNL     1       8.822  -4.704  25.995  0.00  0.00    -0.050 Br
ATOM      8  C   UNL     1       9.727  -2.414  24.623  0.00  0.00    +0.019 A 
BRANCH   5   9
ATOM      9  C   UNL     1       7.239  -4.923  23.149  0.00  0.00    +0.372 C 
ATOM     10  F   UNL     1       6.131  -4.943  23.949  0.00  0.00    -0.187 F 
ATOM     11  F   UNL     1       7.846  -6.128  23.427  0.00  0.00    -0.187 F 
BRANCH   9  12
ATOM     12  P   UNL     1       6.506  -5.224  21.499  0.00  0.00    +0.401 P 
ATOM     13  O   UNL     1       5.884  -5.479  20.104  0.00  0.00    -0.252 OA
BRANCH  12  14
ATOM     14  O   UNL     1       5.089  -4.500  22.021  0.00  0.00    -0.320 OA
ATOM     15  H   UNL     1       4.355  -4.454  21.376  0.00  0.00    +0.220 HD
ENDBRANCH  12  14
BRANCH  12  16
ATOM     16  O   UNL     1       6.091  -6.749  22.032  0.00  0.00    -0.320 OA
ATOM     17  H   UNL     1       5.428  -7.161  21.442  0.00  0.00    +0.220 HD
ENDBRANCH  12  16
ENDBRANCH   9  12
ENDBRANCH   5   9
ENDBRANCH   1   2
BRANCH   1  18
ATOM     18  C   UNL     1       9.997   1.088  24.163  0.00  0.00    +0.094 C 
BRANCH  18  19
ATOM     19  C   UNL     1       8.558   0.966  24.645  0.00  0.00    -0.037 A 
ATOM     20  C   UNL     1       7.499   1.257  23.768  0.00  0.00    +0.004 A 
ATOM     21  C   UNL     1       6.186   0.926  24.109  0.00  0.00    +0.000 A 
ATOM     22  C   UNL     1       5.913   0.325  25.336  0.00  0.00    +0.000 A 
ATOM     23  C   UNL     1       6.944   0.105  26.245  0.00  0.00    +0.000 A 
ATOM     24  C   UNL     1       8.256   0.439  25.909  0.00  0.00    +0.004 A 
ENDBRANCH  18  19
BRANCH  18  25
ATOM     25  C   UNL     1      10.166   2.191  23.108  0.00  0.00    +0.171 C 
ATOM     26  O   UNL     1      10.073   1.993  21.897  0.00  0.00    -0.291 OA
BRANCH  25  27
ATOM     27  C   UNL     1      10.435   3.592  23.518  0.00  0.00    +0.018 A 
ATOM     28  C   UNL     1       9.435   4.459  23.981  0.00  0.00    +0.011 A 
ATOM     29  C   UNL     1       9.751   5.788  24.262  0.00  0.00    +0.001 A 
ATOM     30  C   UNL     1      11.060   6.248  24.099  0.00  0.00    +0.000 A 
ATOM     31  C   UNL     1      12.057   5.385  23.661  0.00  0.00    +0.001 A 
ATOM     32  C   UNL     1      11.744   4.065  23.364  0.00  0.00    +0.011 A 
ENDBRANCH  25  27
ENDBRANCH  18  25
ENDBRANCH   1  18
TORSDOF 9
ENDMDL
MODEL 2
REMARK VINA RESULT:      -7.6      3.563      4.724
REMARK  Name = 
REMARK  9 active torsions:
REMARK  status: ('A' for Active; 'I' for Inactive)
REMARK    1  A    between atoms: C_2  and  C_3
REMARK    2  A    between atoms: C_2  and  C_18
REMARK    3  A    between atoms: C_2  and  C_26
REMARK    4  A    between atoms: C_3  and  C_4
REMARK    5  A    between atoms: C_8  and  C_11
REMARK    6  A    between atoms: C_11  and  P_14
REMARK    7  A    between atoms: P_14  and  O_15
REMARK    8  A    between atoms: P_14  and  O_16
REMARK    9  A    between atoms: C_18  and  C_20
REMARK                            x       y       z     vdW  Elec       q    Type
REMARK                         _______ _______ _______ _____ _____    ______ ____
ROOT
ATOM      1  C   UNL     1       9.408  -3.727  24.531  0.00  0.00    +0.051 C 
ENDROOT
BRANCH   1   2
ATOM      2  C   UNL     1       8.191  -4.379  25.148  0.00  0.00    -0.045 A 
ATOM      3  C   UNL     1       8.114  -4.584  26.529  0.00  0.00    +0.004 A 
ATOM      4  C   UNL     1       7.015  -5.224  27.098  0.00  0.00    +0.011 A 
ATOM      5  C   UNL     1       5.936  -5.635  26.303  0.00  0.00    +0.047 A 
ATOM      6  C   UNL     1       6.018  -5.441  24.917  0.00  0.00    +0.028 A 
ATOM      7 BR   UNL     1       4.678  -6.050  23.719  0.00  0.00    -0.050 Br
ATOM      8  C   UNL     1       7.129  -4.807  24.348  0.00  0.00    +0.019 A 
BRANCH   5   9
ATOM      9  C   UNL     1       4.757  -6.269  26.975  0.00  0.00    +0.372 C 
ATOM     10  F   UNL     1       4.453  -7.520  26.514  0.00  0.00    -0.187 F 
ATOM     11  F   UNL     1       3.576  -5.580  26.811  0.00  0.00    -0.187 F 
BRANCH   9  12
ATOM     12  P   UNL     1       4.802  -6.546  28.784  0.00  0.00    +0.401 P 
ATOM     13  O   UNL     1       4.839  -6.782  30.314  0.00  0.00    -0.252 OA
BRANCH  12  14
ATOM     14  O   UNL     1       5.713  -7.927  28.528  0.00  0.00    -0.320 OA
ATOM     15  H   UNL     1       5.405  -8.534  27.826  0.00  0.00    +0.220 HD
ENDBRANCH  12  14
BRANCH  12  16
ATOM     16  O   UNL     1       3.330  -7.317  28.638  0.00  0.00    -0.320 OA
ATOM     17  H   UNL     1       3.447  -8.263  28.416  0.00  0.00    +0.220 HD
ENDBRANCH  12  16
ENDBRANCH   9  12
ENDBRANCH   5   9
ENDBRANCH   1   2
BRANCH   1  18
ATOM     18  C   UNL     1       9.517  -2.184  24.607  0.00  0.00    +0.094 C 
BRANCH  18  19
ATOM     19  C   UNL     1       8.240  -1.456  25.003  0.00  0.00    -0.037 A 
ATOM     20  C   UNL     1       8.134  -0.870  26.276  0.00  0.00    +0.004 A 
ATOM     21  C   UNL     1       7.079  -0.002  26.570  0.00  0.00    +0.000 A 
ATOM     22  C   UNL     1       6.109   0.269  25.608  0.00  0.00    +0.000 A 
ATOM     23  C   UNL     1       6.160  -0.368  24.371  0.00  0.00    +0.000 A 
ATOM     24  C   UNL     1       7.210  -1.238  24.076  0.00  0.00    +0.004 A 
ENDBRANCH  18  19
BRANCH  18  25
ATOM     25  C   UNL     1      10.164  -1.581  23.351  0.00  0.00    +0.171 C 
ATOM     26  O   UNL     1      10.603  -2.258  22.422  0.00  0.00    -0.291 OA
BRANCH  25  27
ATOM     27  C   UNL     1      10.271  -0.110  23.190  0.00  0.00    +0.018 A 
ATOM     28  C   UNL     1      10.776   0.734  24.190  0.00  0.00    +0.011 A 
ATOM     29  C   UNL     1      10.762   2.115  23.998  0.00  0.00    +0.001 A 
ATOM     30  C   UNL     1      10.263   2.654  22.809  0.00  0.00    +0.000 A 
ATOM     31  C   UNL     1       9.782   1.818  21.808  0.00  0.00    +0.001 A 
ATOM     32  C   UNL     1       9.779   0.443  22.001  0.00  0.00    +0.011 A 
ENDBRANCH  25  27
ENDBRANCH  18  25
ENDBRANCH   1  18
TORSDOF 9
ENDMDL
MODEL 3
REMARK VINA RESULT:      -7.3      2.957      5.863
REMARK  Name = 
REMARK  9 active torsions:
REMARK  status: ('A' for Active; 'I' for Inactive)
REMARK    1  A    between atoms: C_2  and  C_3
REMARK    2  A    between atoms: C_2  and  C_18
REMARK    3  A    between atoms: C_2  and  C_26
REMARK    4  A    between atoms: C_3  and  C_4
REMARK    5  A    between atoms: C_8  and  C_11
REMARK    6  A    between atoms: C_11  and  P_14
REMARK    7  A    between atoms: P_14  and  O_15
REMARK    8  A    between atoms: P_14  and  O_16
REMARK    9  A    between atoms: C_18  and  C_20
REMARK                            x       y       z     vdW  Elec       q    Type
REMARK                         _______ _______ _______ _____ _____    ______ ____
ROOT
ATOM      1  C   UNL     1       6.885  -1.026  22.937  0.00  0.00    +0.051 C 
ENDROOT
BRANCH   1   2
ATOM      2  C   UNL     1       6.196  -2.364  23.091  0.00  0.00    -0.045 A 
ATOM      3  C   UNL     1       5.354  -2.611  24.180  0.00  0.00    +0.004 A 
ATOM      4  C   UNL     1       4.751  -3.855  24.350  0.00  0.00    +0.011 A 
ATOM      5  C   UNL     1       4.935  -4.875  23.406  0.00  0.00    +0.047 A 
ATOM      6  C   UNL     1       5.789  -4.632  22.321  0.00  0.00    +0.028 A 
ATOM      7 BR   UNL     1       6.211  -5.961  21.034  0.00  0.00    -0.050 Br
ATOM      8  C   UNL     1       6.401  -3.383  22.159  0.00  0.00    +0.019 A 
BRANCH   5   9
ATOM      9  C   UNL     1       4.219  -6.174  23.612  0.00  0.00    +0.372 C 
ATOM     10  F   UNL     1       5.020  -7.278  23.516  0.00  0.00    -0.187 F 
ATOM     11  F   UNL     1       3.229  -6.426  22.688  0.00  0.00    -0.187 F 
BRANCH   9  12
ATOM     12  P   UNL     1       3.361  -6.480  25.199  0.00  0.00    +0.401 P 
ATOM     13  O   UNL     1       2.636  -6.740  26.542  0.00  0.00    -0.252 OA
BRANCH  12  14
ATOM     14  O   UNL     1       4.835  -6.854  25.899  0.00  0.00    -0.320 OA
ATOM     15  H   UNL     1       5.345  -7.582  25.490  0.00  0.00    +0.220 HD
ENDBRANCH  12  14
BRANCH  12  16
ATOM     16  O   UNL     1       3.060  -8.031  24.664  0.00  0.00    -0.320 OA
ATOM     17  H   UNL     1       3.531  -8.691  25.211  0.00  0.00    +0.220 HD
ENDBRANCH  12  16
ENDBRANCH   9  12
ENDBRANCH   5   9
ENDBRANCH   1   2
BRANCH   1  18
ATOM     18  C   UNL     1       8.135  -0.753  23.809  0.00  0.00    +0.094 C 
BRANCH  18  19
ATOM     19  C   UNL     1       8.889   0.531  23.490  0.00  0.00    -0.037 A 
ATOM     20  C   UNL     1       9.622   1.182  24.497  0.00  0.00    +0.004 A 
ATOM     21  C   UNL     1      10.505   2.215  24.174  0.00  0.00    +0.000 A 
ATOM     22  C   UNL     1      10.647   2.625  22.851  0.00  0.00    +0.000 A 
ATOM     23  C   UNL     1       9.867   2.042  21.855  0.00  0.00    +0.000 A 
ATOM     24  C   UNL     1       8.981   1.012  22.175  0.00  0.00    +0.004 A 
ENDBRANCH  18  19
BRANCH  18  25
ATOM     25  C   UNL     1       9.069  -1.970  23.891  0.00  0.00    +0.171 C 
ATOM     26  O   UNL     1      10.101  -2.079  23.230  0.00  0.00    -0.291 OA
BRANCH  25  27
ATOM     27  C   UNL     1       8.768  -3.092  24.814  0.00  0.00    +0.018 A 
ATOM     28  C   UNL     1       8.969  -4.438  24.474  0.00  0.00    +0.011 A 
ATOM     29  C   UNL     1       8.578  -5.439  25.362  0.00  0.00    +0.001 A 
ATOM     30  C   UNL     1       8.003  -5.102  26.591  0.00  0.00    +0.000 A 
ATOM     31  C   UNL     1       7.822  -3.769  26.939  0.00  0.00    +0.001 A 
ATOM     32  C   UNL     1       8.195  -2.769  26.050  0.00  0.00    +0.011 A 
ENDBRANCH  25  27
ENDBRANCH  18  25
ENDBRANCH   1  18
TORSDOF 9
ENDMDL
MODEL 4
REMARK VINA RESULT:      -7.3      2.745      3.749
REMARK  Name = 
REMARK  9 active torsions:
REMARK  status: ('A' for Active; 'I' for Inactive)
REMARK    1  A    between atoms: C_2  and  C_3
REMARK    2  A    between atoms: C_2  and  C_18
REMARK    3  A    between atoms: C_2  and  C_26
REMARK    4  A    between atoms: C_3  and  C_4
REMARK    5  A    between atoms: C_8  and  C_11
REMARK    6  A    between atoms: C_11  and  P_14
REMARK    7  A    between atoms: P_14  and  O_15
REMARK    8  A    between atoms: P_14  and  O_16
REMARK    9  A    between atoms: C_18  and  C_20
REMARK                            x       y       z     vdW  Elec       q    Type
REMARK                         _______ _______ _______ _____ _____    ______ ____
ROOT
ATOM      1  C   UNL     1       9.354  -3.855  24.616  0.00  0.00    +0.051 C 
ENDROOT
BRANCH   1   2
ATOM      2  C   UNL     1       8.005  -4.503  24.835  0.00  0.00    -0.045 A 
ATOM      3  C   UNL     1       7.125  -4.699  23.766  0.00  0.00    +0.004 A 
ATOM      4  C   UNL     1       5.864  -5.255  23.969  0.00  0.00    +0.011 A 
ATOM      5  C   UNL     1       5.466  -5.678  25.245  0.00  0.00    +0.047 A 
ATOM      6  C   UNL     1       6.343  -5.472  26.319  0.00  0.00    +0.028 A 
ATOM      7 BR   UNL     1       5.882  -5.897  28.111  0.00  0.00    -0.050 Br
ATOM      8  C   UNL     1       7.605  -4.902  26.113  0.00  0.00    +0.019 A 
BRANCH   5   9
ATOM      9  C   UNL     1       4.121  -6.319  25.395  0.00  0.00    +0.372 C 
ATOM     10  F   UNL     1       3.295  -5.691  26.285  0.00  0.00    -0.187 F 
ATOM     11  F   UNL     1       4.161  -7.613  25.866  0.00  0.00    -0.187 F 
BRANCH   9  12
ATOM     12  P   UNL     1       3.033  -6.468  23.930  0.00  0.00    +0.401 P 
ATOM     13  O   UNL     1       2.113  -6.596  22.692  0.00  0.00    -0.252 OA
BRANCH  12  14
ATOM     14  O   UNL     1       1.701  -6.447  24.944  0.00  0.00    -0.320 OA
ATOM     15  H   UNL     1       1.499  -7.276  25.423  0.00  0.00    +0.220 HD
ENDBRANCH  12  14
BRANCH  12  16
ATOM     16  O   UNL     1       3.251  -8.119  24.016  0.00  0.00    -0.320 OA
ATOM     17  H   UNL     1       3.734  -8.371  24.829  0.00  0.00    +0.220 HD
ENDBRANCH  12  16
ENDBRANCH   9  12
ENDBRANCH   5   9
ENDBRANCH   1   2
BRANCH   1  18
ATOM     18  C   UNL     1       9.429  -2.309  24.661  0.00  0.00    +0.094 C 
BRANCH  18  19
ATOM     19  C   UNL     1       8.150  -1.604  25.093  0.00  0.00    -0.037 A 
ATOM     20  C   UNL     1       7.134  -1.357  24.153  0.00  0.00    +0.004 A 
ATOM     21  C   UNL     1       5.870  -0.934  24.571  0.00  0.00    +0.000 A 
ATOM     22  C   UNL     1       5.614  -0.730  25.925  0.00  0.00    +0.000 A 
ATOM     23  C   UNL     1       6.635  -0.895  26.857  0.00  0.00    +0.000 A 
ATOM     24  C   UNL     1       7.900  -1.313  26.442  0.00  0.00    +0.004 A 
ENDBRANCH  18  19
BRANCH  18  25
ATOM     25  C   UNL     1      10.012  -1.714  23.371  0.00  0.00    +0.171 C 
ATOM     26  O   UNL     1      10.338  -2.391  22.397  0.00  0.00    -0.291 OA
BRANCH  25  27
ATOM     27  C   UNL     1      10.195  -0.248  23.232  0.00  0.00    +0.018 A 
ATOM     28  C   UNL     1      10.710   0.560  24.257  0.00  0.00    +0.011 A 
ATOM     29  C   UNL     1      10.768   1.942  24.082  0.00  0.00    +0.001 A 
ATOM     30  C   UNL     1      10.331   2.518  22.886  0.00  0.00    +0.000 A 
ATOM     31  C   UNL     1       9.841   1.718  21.861  0.00  0.00    +0.001 A 
ATOM     32  C   UNL     1       9.765   0.342  22.036  0.00  0.00    +0.011 A 
ENDBRANCH  25  27
ENDBRANCH  18  25
ENDBRANCH   1  18
TORSDOF 9
ENDMDL
MODEL 5
REMARK VINA RESULT:      -7.2      4.001      7.681
REMARK  Name = 
REMARK  9 active torsions:
REMARK  status: ('A' for Active; 'I' for Inactive)
REMARK    1  A    between atoms: C_2  and  C_3
REMARK    2  A    between atoms: C_2  and  C_18
REMARK    3  A    between atoms: C_2  and  C_26
REMARK    4  A    between atoms: C_3  and  C_4
REMARK    5  A    between atoms: C_8  and  C_11
REMARK    6  A    between atoms: C_11  and  P_14
REMARK    7  A    between atoms: P_14  and  O_15
REMARK    8  A    between atoms: P_14  and  O_16
REMARK    9  A    between atoms: C_18  and  C_20
REMARK                            x       y       z     vdW  Elec       q    Type
REMARK                         _______ _______ _______ _____ _____    ______ ____
ROOT
ATOM      1  C   UNL     1       7.824  -4.435  26.409  0.00  0.00    +0.051 C 
ENDROOT
BRANCH   1   2
ATOM      2  C   UNL     1       8.374  -3.288  25.591  0.00  0.00    -0.045 A 
ATOM      3  C   UNL     1       9.290  -3.521  24.560  0.00  0.00    +0.004 A 
ATOM      4  C   UNL     1       9.834  -2.465  23.832  0.00  0.00    +0.011 A 
ATOM      5  C   UNL     1       9.438  -1.144  24.084  0.00  0.00    +0.047 A 
ATOM      6  C   UNL     1       8.529  -0.908  25.125  0.00  0.00    +0.028 A 
ATOM      7 BR   UNL     1       7.998   0.839  25.641  0.00  0.00    -0.050 Br
ATOM      8  C   UNL     1       7.993  -1.971  25.861  0.00  0.00    +0.019 A 
BRANCH   5   9
ATOM      9  C   UNL     1      10.015  -0.054  23.234  0.00  0.00    +0.372 C 
ATOM     10  F   UNL     1      11.014  -0.464  22.396  0.00  0.00    -0.187 F 
ATOM     11  F   UNL     1      10.604   0.966  23.948  0.00  0.00    -0.187 F 
BRANCH   9  12
ATOM     12  P   UNL     1       8.920   0.855  22.083  0.00  0.00    +0.401 P 
ATOM     13  O   UNL     1       7.995   1.623  21.107  0.00  0.00    -0.252 OA
BRANCH  12  14
ATOM     14  O   UNL     1       9.290  -0.258  20.887  0.00  0.00    -0.320 OA
ATOM     15  H   UNL     1      10.077  -0.818  21.036  0.00  0.00    +0.220 HD
ENDBRANCH  12  14
BRANCH  12  16
ATOM     16  O   UNL     1      10.210   1.857  21.749  0.00  0.00    -0.320 OA
ATOM     17  H   UNL     1       9.993   2.486  21.031  0.00  0.00    +0.220 HD
ENDBRANCH  12  16
ENDBRANCH   9  12
ENDBRANCH   5   9
ENDBRANCH   1   2
BRANCH   1  18
ATOM     18  C   UNL     1       6.286  -4.598  26.482  0.00  0.00    +0.094 C 
BRANCH  18  19
ATOM     19  C   UNL     1       5.740  -5.064  27.825  0.00  0.00    -0.037 A 
ATOM     20  C   UNL     1       6.409  -6.072  28.541  0.00  0.00    +0.004 A 
ATOM     21  C   UNL     1       6.067  -6.343  29.868  0.00  0.00    +0.000 A 
ATOM     22  C   UNL     1       5.041  -5.632  30.484  0.00  0.00    +0.000 A 
ATOM     23  C   UNL     1       4.318  -4.687  29.760  0.00  0.00    +0.000 A 
ATOM     24  C   UNL     1       4.655  -4.416  28.433  0.00  0.00    +0.004 A 
ENDBRANCH  18  19
BRANCH  18  25
ATOM     25  C   UNL     1       5.728  -5.420  25.311  0.00  0.00    +0.171 C 
ATOM     26  O   UNL     1       5.130  -6.486  25.454  0.00  0.00    -0.291 OA
BRANCH  25  27
ATOM     27  C   UNL     1       5.873  -4.940  23.915  0.00  0.00    +0.018 A 
ATOM     28  C   UNL     1       6.524  -5.677  22.915  0.00  0.00    +0.011 A 
ATOM     29  C   UNL     1       6.698  -5.119  21.649  0.00  0.00    +0.001 A 
ATOM     30  C   UNL     1       6.213  -3.838  21.374  0.00  0.00    +0.000 A 
ATOM     31  C   UNL     1       5.549  -3.114  22.356  0.00  0.00    +0.001 A 
ATOM     32  C   UNL     1       5.387  -3.659  23.623  0.00  0.00    +0.011 A 
ENDBRANCH  25  27
ENDBRANCH  18  25
ENDBRANCH   1  18
TORSDOF 9
ENDMDL
MODEL 6
REMARK VINA RESULT:      -7.2      2.343      2.775
REMARK  Name = 
REMARK  9 active torsions:
REMARK  status: ('A' for Active; 'I' for Inactive)
REMARK    1  A    between atoms: C_2  and  C_3
REMARK    2  A    between atoms: C_2  and  C_18
REMARK    3  A    between atoms: C_2  and  C_26
REMARK    4  A    between atoms: C_3  and  C_4
REMARK    5  A    between atoms: C_8  and  C_11
REMARK    6  A    between atoms: C_11  and  P_14
REMARK    7  A    between atoms: P_14  and  O_15
REMARK    8  A    between atoms: P_14  and  O_16
REMARK    9  A    between atoms: C_18  and  C_20
REMARK                            x       y       z     vdW  Elec       q    Type
REMARK                         _______ _______ _______ _____ _____    ______ ____
ROOT
ATOM      1  C   UNL     1      10.024  -0.164  23.412  0.00  0.00    +0.051 C 
ENDROOT
BRANCH   1   2
ATOM      2  C   UNL     1       9.136  -1.305  23.859  0.00  0.00    -0.045 A 
ATOM      3  C   UNL     1       9.210  -1.797  25.166  0.00  0.00    +0.004 A 
ATOM      4  C   UNL     1       8.427  -2.875  25.570  0.00  0.00    +0.011 A 
ATOM      5  C   UNL     1       7.510  -3.464  24.688  0.00  0.00    +0.047 A 
ATOM      6  C   UNL     1       7.444  -2.980  23.374  0.00  0.00    +0.028 A 
ATOM      7 BR   UNL     1       6.328  -3.759  22.052  0.00  0.00    -0.050 Br
ATOM      8  C   UNL     1       8.241  -1.902  22.969  0.00  0.00    +0.019 A 
BRANCH   5   9
ATOM      9  C   UNL     1       6.656  -4.586  25.193  0.00  0.00    +0.372 C 
ATOM     10  F   UNL     1       6.845  -5.773  24.542  0.00  0.00    -0.187 F 
ATOM     11  F   UNL     1       5.302  -4.369  25.060  0.00  0.00    -0.187 F 
BRANCH   9  12
ATOM     12  P   UNL     1       6.800  -5.101  26.943  0.00  0.00    +0.401 P 
ATOM     13  O   UNL     1       6.923  -5.539  28.424  0.00  0.00    -0.252 OA
BRANCH  12  14
ATOM     14  O   UNL     1       8.208  -5.924  26.563  0.00  0.00    -0.320 OA
ATOM     15  H   UNL     1       8.861  -5.447  26.012  0.00  0.00    +0.220 HD
ENDBRANCH  12  14
BRANCH  12  16
ATOM     16  O   UNL     1       5.788  -6.377  26.585  0.00  0.00    -0.320 OA
ATOM     17  H   UNL     1       4.930  -6.289  27.047  0.00  0.00    +0.220 HD
ENDBRANCH  12  16
ENDBRANCH   9  12
ENDBRANCH   5   9
ENDBRANCH   1   2
BRANCH   1  18
ATOM     18  C   UNL     1       9.687   1.257  23.927  0.00  0.00    +0.094 C 
BRANCH  18  19
ATOM     19  C   UNL     1       8.238   1.477  24.342  0.00  0.00    -0.037 A 
ATOM     20  C   UNL     1       7.244   1.627  23.359  0.00  0.00    +0.004 A 
ATOM     21  C   UNL     1       5.892   1.589  23.709  0.00  0.00    +0.000 A 
ATOM     22  C   UNL     1       5.519   1.428  25.041  0.00  0.00    +0.000 A 
ATOM     23  C   UNL     1       6.495   1.358  26.032  0.00  0.00    +0.000 A 
ATOM     24  C   UNL     1       7.847   1.400  25.686  0.00  0.00    +0.004 A 
ENDBRANCH  18  19
BRANCH  18  25
ATOM     25  C   UNL     1      10.194   2.357  22.983  0.00  0.00    +0.171 C 
ATOM     26  O   UNL     1      10.356   2.193  21.774  0.00  0.00    -0.291 OA
BRANCH  25  27
ATOM     27  C   UNL     1      10.502   3.713  23.501  0.00  0.00    +0.018 A 
ATOM     28  C   UNL     1       9.534   4.552  24.073  0.00  0.00    +0.011 A 
ATOM     29  C   UNL     1       9.882   5.846  24.455  0.00  0.00    +0.001 A 
ATOM     30  C   UNL     1      11.193   6.300  24.284  0.00  0.00    +0.000 A 
ATOM     31  C   UNL     1      12.159   5.464  23.738  0.00  0.00    +0.001 A 
ATOM     32  C   UNL     1      11.813   4.179  23.341  0.00  0.00    +0.011 A 
ENDBRANCH  25  27
ENDBRANCH  18  25
ENDBRANCH   1  18
TORSDOF 9
ENDMDL
MODEL 7
REMARK VINA RESULT:      -7.1      3.980      8.296
REMARK  Name = 
REMARK  9 active torsions:
REMARK  status: ('A' for Active; 'I' for Inactive)
REMARK    1  A    between atoms: C_2  and  C_3
REMARK    2  A    between atoms: C_2  and  C_18
REMARK    3  A    between atoms: C_2  and  C_26
REMARK    4  A    between atoms: C_3  and  C_4
REMARK    5  A    between atoms: C_8  and  C_11
REMARK    6  A    between atoms: C_11  and  P_14
REMARK    7  A    between atoms: P_14  and  O_15
REMARK    8  A    between atoms: P_14  and  O_16
REMARK    9  A    between atoms: C_18  and  C_20
REMARK                            x       y       z     vdW  Elec       q    Type
REMARK                         _______ _______ _______ _____ _____    ______ ____
ROOT
ATOM      1  C   UNL     1       8.649  -4.004  25.752  0.00  0.00    +0.051 C 
ENDROOT
BRANCH   1   2
ATOM      2  C   UNL     1       8.876  -2.630  25.161  0.00  0.00    -0.045 A 
ATOM      3  C   UNL     1       9.766  -2.449  24.097  0.00  0.00    +0.004 A 
ATOM      4  C   UNL     1      10.012  -1.181  23.577  0.00  0.00    +0.011 A 
ATOM      5  C   UNL     1       9.335  -0.059  24.076  0.00  0.00    +0.047 A 
ATOM      6  C   UNL     1       8.452  -0.238  25.150  0.00  0.00    +0.028 A 
ATOM      7 BR   UNL     1       7.559   1.211  25.990  0.00  0.00    -0.050 Br
ATOM      8  C   UNL     1       8.216  -1.513  25.677  0.00  0.00    +0.019 A 
BRANCH   5   9
ATOM      9  C   UNL     1       9.599   1.272  23.443  0.00  0.00    +0.372 C 
ATOM     10  F   UNL     1      10.569   1.254  22.480  0.00  0.00    -0.187 F 
ATOM     11  F   UNL     1      10.047   2.235  24.319  0.00  0.00    -0.187 F 
BRANCH   9  12
ATOM     12  P   UNL     1       8.238   2.134  22.575  0.00  0.00    +0.401 P 
ATOM     13  O   UNL     1       7.087   2.864  21.840  0.00  0.00    -0.252 OA
BRANCH  12  14
ATOM     14  O   UNL     1       9.035   1.888  21.124  0.00  0.00    -0.320 OA
ATOM     15  H   UNL     1       9.356   2.685  20.657  0.00  0.00    +0.220 HD
ENDBRANCH  12  14
BRANCH  12  16
ATOM     16  O   UNL     1       9.012   3.570  22.921  0.00  0.00    -0.320 OA
ATOM     17  H   UNL     1       9.627   3.467  23.675  0.00  0.00    +0.220 HD
ENDBRANCH  12  16
ENDBRANCH   9  12
ENDBRANCH   5   9
ENDBRANCH   1   2
BRANCH   1  18
ATOM     18  C   UNL     1       7.431  -4.815  25.248  0.00  0.00    +0.094 C 
BRANCH  18  19
ATOM     19  C   UNL     1       7.099  -4.649  23.771  0.00  0.00    -0.037 A 
ATOM     20  C   UNL     1       7.480  -5.641  22.852  0.00  0.00    +0.004 A 
ATOM     21  C   UNL     1       6.983  -5.626  21.546  0.00  0.00    +0.000 A 
ATOM     22  C   UNL     1       6.123  -4.609  21.139  0.00  0.00    +0.000 A 
ATOM     23  C   UNL     1       5.802  -3.577  22.016  0.00  0.00    +0.000 A 
ATOM     24  C   UNL     1       6.300  -3.588  23.320  0.00  0.00    +0.004 A 
ENDBRANCH  18  19
BRANCH  18  25
ATOM     25  C   UNL     1       6.196  -4.635  26.144  0.00  0.00    +0.171 C 
ATOM     26  O   UNL     1       6.198  -3.964  27.175  0.00  0.00    -0.291 OA
BRANCH  25  27
ATOM     27  C   UNL     1       4.903  -5.266  25.782  0.00  0.00    +0.018 A 
ATOM     28  C   UNL     1       3.714  -4.538  25.624  0.00  0.00    +0.011 A 
ATOM     29  C   UNL     1       2.521  -5.213  25.371  0.00  0.00    +0.001 A 
ATOM     30  C   UNL     1       2.512  -6.607  25.259  0.00  0.00    +0.000 A 
ATOM     31  C   UNL     1       3.693  -7.328  25.393  0.00  0.00    +0.001 A 
ATOM     32  C   UNL     1       4.881  -6.661  25.662  0.00  0.00    +0.011 A 
ENDBRANCH  25  27
ENDBRANCH  18  25
ENDBRANCH   1  18
TORSDOF 9
ENDMDL
MODEL 8
REMARK VINA RESULT:      -7.1      3.062      5.960
REMARK  Name = 
REMARK  9 active torsions:
REMARK  status: ('A' for Active; 'I' for Inactive)
REMARK    1  A    between atoms: C_2  and  C_3
REMARK    2  A    between atoms: C_2  and  C_18
REMARK    3  A    between atoms: C_2  and  C_26
REMARK    4  A    between atoms: C_3  and  C_4
REMARK    5  A    between atoms: C_8  and  C_11
REMARK    6  A    between atoms: C_11  and  P_14
REMARK    7  A    between atoms: P_14  and  O_15
REMARK    8  A    between atoms: P_14  and  O_16
REMARK    9  A    between atoms: C_18  and  C_20
REMARK                            x       y       z     vdW  Elec       q    Type
REMARK                         _______ _______ _______ _____ _____    ______ ____
ROOT
ATOM      1  C   UNL     1       7.050  -1.307  22.906  0.00  0.00    +0.051 C 
ENDROOT
BRANCH   1   2
ATOM      2  C   UNL     1       6.007  -2.305  23.358  0.00  0.00    -0.045 A 
ATOM      3  C   UNL     1       5.641  -3.376  22.536  0.00  0.00    +0.004 A 
ATOM      4  C   UNL     1       4.650  -4.273  22.928  0.00  0.00    +0.011 A 
ATOM      5  C   UNL     1       4.029  -4.152  24.179  0.00  0.00    +0.047 A 
ATOM      6  C   UNL     1       4.387  -3.072  24.998  0.00  0.00    +0.028 A 
ATOM      7 BR   UNL     1       3.546  -2.730  26.665  0.00  0.00    -0.050 Br
ATOM      8  C   UNL     1       5.376  -2.166  24.596  0.00  0.00    +0.019 A 
BRANCH   5   9
ATOM      9  C   UNL     1       3.010  -5.176  24.570  0.00  0.00    +0.372 C 
ATOM     10  F   UNL     1       1.849  -4.652  25.067  0.00  0.00    -0.187 F 
ATOM     11  F   UNL     1       3.421  -6.028  25.572  0.00  0.00    -0.187 F 
BRANCH   9  12
ATOM     12  P   UNL     1       2.376  -6.336  23.304  0.00  0.00    +0.401 P 
ATOM     13  O   UNL     1       1.840  -7.318  22.234  0.00  0.00    -0.252 OA
BRANCH  12  14
ATOM     14  O   UNL     1       1.155  -6.786  24.358  0.00  0.00    -0.320 OA
ATOM     15  H   UNL     1       1.349  -6.709  25.313  0.00  0.00    +0.220 HD
ENDBRANCH  12  14
BRANCH  12  16
ATOM     16  O   UNL     1       3.474  -7.455  23.871  0.00  0.00    -0.320 OA
ATOM     17  H   UNL     1       4.393  -7.144  23.745  0.00  0.00    +0.220 HD
ENDBRANCH  12  16
ENDBRANCH   9  12
ENDBRANCH   5   9
ENDBRANCH   1   2
BRANCH   1  18
ATOM     18  C   UNL     1       8.300  -1.113  23.800  0.00  0.00    +0.094 C 
BRANCH  18  19
ATOM     19  C   UNL     1       9.194   0.062  23.427  0.00  0.00    -0.037 A 
ATOM     20  C   UNL     1       9.240   0.514  22.097  0.00  0.00    +0.004 A 
ATOM     21  C   UNL     1       9.860   1.725  21.782  0.00  0.00    +0.000 A 
ATOM     22  C   UNL     1      10.462   2.483  22.783  0.00  0.00    +0.000 A 
ATOM     23  C   UNL     1      10.493   2.007  24.091  0.00  0.00    +0.000 A 
ATOM     24  C   UNL     1       9.878   0.795  24.409  0.00  0.00    +0.004 A 
ENDBRANCH  18  19
BRANCH  18  25
ATOM     25  C   UNL     1       9.095  -2.414  23.983  0.00  0.00    +0.171 C 
ATOM     26  O   UNL     1      10.187  -2.622  23.457  0.00  0.00    -0.291 OA
BRANCH  25  27
ATOM     27  C   UNL     1       8.573  -3.501  24.848  0.00  0.00    +0.018 A 
ATOM     28  C   UNL     1       8.377  -4.813  24.393  0.00  0.00    +0.011 A 
ATOM     29  C   UNL     1       7.799  -5.757  25.240  0.00  0.00    +0.001 A 
ATOM     30  C   UNL     1       7.432  -5.403  26.541  0.00  0.00    +0.000 A 
ATOM     31  C   UNL     1       7.645  -4.109  27.001  0.00  0.00    +0.001 A 
ATOM     32  C   UNL     1       8.205  -3.160  26.155  0.00  0.00    +0.011 A 
ENDBRANCH  25  27
ENDBRANCH  18  25
ENDBRANCH   1  18
TORSDOF 9
ENDMDL
MODEL 9
REMARK VINA RESULT:      -7.0      4.141      8.656
REMARK  Name = 
REMARK  9 active torsions:
REMARK  status: ('A' for Active; 'I' for Inactive)
REMARK    1  A    between atoms: C_2  and  C_3
REMARK    2  A    between atoms: C_2  and  C_18
REMARK    3  A    between atoms: C_2  and  C_26
REMARK    4  A    between atoms: C_3  and  C_4
REMARK    5  A    between atoms: C_8  and  C_11
REMARK    6  A    between atoms: C_11  and  P_14
REMARK    7  A    between atoms: P_14  and  O_15
REMARK    8  A    between atoms: P_14  and  O_16
REMARK    9  A    between atoms: C_18  and  C_20
REMARK                            x       y       z     vdW  Elec       q    Type
REMARK                         _______ _______ _______ _____ _____    ______ ____
ROOT
ATOM      1  C   UNL     1       6.767  -3.063  25.970  0.00  0.00    +0.051 C 
ENDROOT
BRANCH   1   2
ATOM      2  C   UNL     1       7.158  -1.945  25.028  0.00  0.00    -0.045 A 
ATOM      3  C   UNL     1       6.286  -0.879  24.785  0.00  0.00    +0.004 A 
ATOM      4  C   UNL     1       6.622   0.130  23.886  0.00  0.00    +0.011 A 
ATOM      5  C   UNL     1       7.865   0.126  23.237  0.00  0.00    +0.047 A 
ATOM      6  C   UNL     1       8.734  -0.949  23.471  0.00  0.00    +0.028 A 
ATOM      7 BR   UNL     1      10.396  -1.132  22.574  0.00  0.00    -0.050 Br
ATOM      8  C   UNL     1       8.388  -1.967  24.368  0.00  0.00    +0.019 A 
BRANCH   5   9
ATOM      9  C   UNL     1       8.194   1.264  22.322  0.00  0.00    +0.372 C 
ATOM     10  F   UNL     1       7.109   1.987  21.911  0.00  0.00    -0.187 F 
ATOM     11  F   UNL     1       8.783   0.883  21.136  0.00  0.00    -0.187 F 
BRANCH   9  12
ATOM     12  P   UNL     1       9.314   2.587  22.908  0.00  0.00    +0.401 P 
ATOM     13  O   UNL     1      10.262   3.707  23.403  0.00  0.00    -0.252 OA
BRANCH  12  14
ATOM     14  O   UNL     1       8.333   3.720  22.162  0.00  0.00    -0.320 OA
ATOM     15  H   UNL     1       7.424   3.435  21.937  0.00  0.00    +0.220 HD
ENDBRANCH  12  14
BRANCH  12  16
ATOM     16  O   UNL     1      10.254   2.302  21.560  0.00  0.00    -0.320 OA
ATOM     17  H   UNL     1      11.202   2.450  21.752  0.00  0.00    +0.220 HD
ENDBRANCH  12  16
ENDBRANCH   9  12
ENDBRANCH   5   9
ENDBRANCH   1   2
BRANCH   1  18
ATOM     18  C   UNL     1       7.011  -4.519  25.505  0.00  0.00    +0.094 C 
BRANCH  18  19
ATOM     19  C   UNL     1       6.734  -4.791  24.033  0.00  0.00    -0.037 A 
ATOM     20  C   UNL     1       7.656  -5.529  23.271  0.00  0.00    +0.004 A 
ATOM     21  C   UNL     1       7.314  -5.990  21.997  0.00  0.00    +0.000 A 
ATOM     22  C   UNL     1       6.062  -5.700  21.462  0.00  0.00    +0.000 A 
ATOM     23  C   UNL     1       5.170  -4.903  22.175  0.00  0.00    +0.000 A 
ATOM     24  C   UNL     1       5.510  -4.437  23.446  0.00  0.00    +0.004 A 
ENDBRANCH  18  19
BRANCH  18  25
ATOM     25  C   UNL     1       6.335  -5.548  26.423  0.00  0.00    +0.171 C 
ATOM     26  O   UNL     1       6.921  -6.138  27.329  0.00  0.00    -0.291 OA
BRANCH  25  27
ATOM     27  C   UNL     1       4.895  -5.868  26.265  0.00  0.00    +0.018 A 
ATOM     28  C   UNL     1       3.870  -5.062  26.780  0.00  0.00    +0.011 A 
ATOM     29  C   UNL     1       2.544  -5.476  26.668  0.00  0.00    +0.001 A 
ATOM     30  C   UNL     1       2.236  -6.681  26.030  0.00  0.00    +0.000 A 
ATOM     31  C   UNL     1       3.248  -7.472  25.499  0.00  0.00    +0.001 A 
ATOM     32  C   UNL     1       4.572  -7.071  25.623  0.00  0.00    +0.011 A 
ENDBRANCH  25  27
ENDBRANCH  18  25
ENDBRANCH   1  18
TORSDOF 9
ENDMDL
