MODEL 1
REMARK VINA RESULT:      -4.1      0.000      0.000
REMARK  Name = 
REMARK  5 active torsions:
REMARK  status: ('A' for Active; 'I' for Inactive)
REMARK    1  A    between atoms: CB_1  and  CA_2
REMARK    2  A    between atoms: CA_2  and  N_4
REMARK    3  A    between atoms: CA_2  and  C_8
REMARK    4  A    between atoms: C_5  and  C_6
REMARK    5  A    between atoms: C_8  and  O_9
REMARK                            x       y       z     vdW  Elec       q    Type
REMARK                         _______ _______ _______ _____ _____    ______ ____
ROOT
ATOM      1  CB  ALA A   1      10.584   1.369  24.256  0.00  0.00    +0.040 C 
ATOM      2  CA  ALA A   1      10.348   0.329  23.167  0.00  0.00    +0.178 C 
ENDROOT
BRANCH   2   3
ATOM      3  N   ALA A   1       9.359  -0.666  23.577  0.00  0.00    -0.303 N 
ATOM      4  H   ALA A   1       8.424  -0.315  23.772  0.00  0.00    +0.149 HD
ATOM      5  C   UNK A   0       9.562  -2.015  23.452  0.00  0.00    +0.211 C 
ATOM      6  O   UNK A   0      10.605  -2.506  23.034  0.00  0.00    -0.276 OA
ATOM      7  C   UNK A   0       8.381  -2.856  23.858  0.00  0.00    +0.109 C 
ENDBRANCH   2   3
BRANCH   2   8
ATOM      8  C   ALA A   1       9.822   0.987  21.882  0.00  0.00    +0.325 C 
ATOM      9  OXT ALA A   1       9.105   0.406  21.072  0.00  0.00    -0.249 OA
BRANCH   8  10
ATOM     10  O   ALA A   1      10.239   2.256  21.680  0.00  0.00    -0.479 OA
ATOM     11  H   ALA A   1      10.551   2.450  20.776  0.00  0.00    +0.295 HD
ENDBRANCH   8  10
ENDBRANCH   2   8
TORSDOF 3
ENDMDL
MODEL 2
REMARK VINA RESULT:      -4.1      4.015      5.333
REMARK  Name = 
REMARK  5 active torsions:
REMARK  status: ('A' for Active; 'I' for Inactive)
REMARK    1  A    between atoms: CB_1  and  CA_2
REMARK    2  A    between atoms: CA_2  and  N_4
REMARK    3  A    between atoms: CA_2  and  C_8
REMARK    4  A    between atoms: C_5  and  C_6
REMARK    5  A    between atoms: C_8  and  O_9
REMARK                            x       y       z     vdW  Elec       q    Type
REMARK                         _______ _______ _______ _____ _____    ______ ____
ROOT
ATOM      1  CB  ALA A   1      10.005   6.168  23.607  0.00  0.00    +0.040 C 
ATOM      2  CA  ALA A   1      10.998   5.041  23.867  0.00  0.00    +0.178 C 
ENDROOT
BRANCH   2   3
ATOM      3  N   ALA A   1      10.809   3.930  22.938  0.00  0.00    -0.303 N 
ATOM      4  H   ALA A   1      11.391   3.939  22.103  0.00  0.00    +0.149 HD
ATOM      5  C   UNK A   0      10.111   2.795  23.262  0.00  0.00    +0.211 C 
ATOM      6  O   UNK A   0       9.544   2.636  24.338  0.00  0.00    -0.276 OA
ATOM      7  C   UNK A   0      10.110   1.744  22.186  0.00  0.00    +0.109 C 
ENDBRANCH   2   3
BRANCH   2   8
ATOM      8  C   ALA A   1      12.444   5.532  23.698  0.00  0.00    +0.325 C 
ATOM      9  OXT ALA A   1      13.174   5.172  22.779  0.00  0.00    -0.249 OA
BRANCH   8  10
ATOM     10  O   ALA A   1      12.878   6.370  24.664  0.00  0.00    -0.479 OA
ATOM     11  H   ALA A   1      12.492   7.266  24.638  0.00  0.00    +0.295 HD
ENDBRANCH   8  10
ENDBRANCH   2   8
TORSDOF 3
ENDMDL
MODEL 3
REMARK VINA RESULT:      -3.9      4.622      6.046
REMARK  Name = 
REMARK  5 active torsions:
REMARK  status: ('A' for Active; 'I' for Inactive)
REMARK    1  A    between atoms: CB_1  and  CA_2
REMARK    2  A    between atoms: CA_2  and  N_4
REMARK    3  A    between atoms: CA_2  and  C_8
REMARK    4  A    between atoms: C_5  and  C_6
REMARK    5  A    between atoms: C_8  and  O_9
REMARK                            x       y       z     vdW  Elec       q    Type
REMARK                         _______ _______ _______ _____ _____    ______ ____
ROOT
ATOM      1  CB  ALA A   1       8.508  -2.476  26.312  0.00  0.00    +0.040 C 
ATOM      2  CA  ALA A   1       8.643  -3.994  26.288  0.00  0.00    +0.178 C 
ENDROOT
BRANCH   2   3
ATOM      3  N   ALA A   1       7.365  -4.645  26.006  0.00  0.00    -0.303 N 
ATOM      4  H   ALA A   1       7.006  -4.538  25.060  0.00  0.00    +0.149 HD
ATOM      5  C   UNK A   0       6.796  -5.569  26.844  0.00  0.00    +0.211 C 
ATOM      6  O   UNK A   0       7.283  -5.893  27.922  0.00  0.00    -0.276 OA
ATOM      7  C   UNK A   0       5.522  -6.174  26.321  0.00  0.00    +0.109 C 
ENDBRANCH   2   3
BRANCH   2   8
ATOM      8  C   ALA A   1       9.628  -4.442  25.199  0.00  0.00    +0.325 C 
ATOM      9  OXT ALA A   1       9.954  -3.732  24.251  0.00  0.00    -0.249 OA
BRANCH   8  10
ATOM     10  O   ALA A   1      10.091  -5.705  25.333  0.00  0.00    -0.479 OA
ATOM     11  H   ALA A   1      10.451  -5.921  26.214  0.00  0.00    +0.295 HD
ENDBRANCH   8  10
ENDBRANCH   2   8
TORSDOF 3
ENDMDL
MODEL 4
REMARK VINA RESULT:      -3.9      1.199      1.551
REMARK  Name = 
REMARK  5 active torsions:
REMARK  status: ('A' for Active; 'I' for Inactive)
REMARK    1  A    between atoms: CB_1  and  CA_2
REMARK    2  A    between atoms: CA_2  and  N_4
REMARK    3  A    between atoms: CA_2  and  C_8
REMARK    4  A    between atoms: C_5  and  C_6
REMARK    5  A    between atoms: C_8  and  O_9
REMARK                            x       y       z     vdW  Elec       q    Type
REMARK                         _______ _______ _______ _____ _____    ______ ____
ROOT
ATOM      1  CB  ALA A   1      10.764   0.701  24.777  0.00  0.00    +0.040 C 
ATOM      2  CA  ALA A   1      10.422   0.685  23.292  0.00  0.00    +0.178 C 
ENDROOT
BRANCH   2   3
ATOM      3  N   ALA A   1       9.328  -0.240  23.001  0.00  0.00    -0.303 N 
ATOM      4  H   ALA A   1       8.395   0.166  22.964  0.00  0.00    +0.149 HD
ATOM      5  C   UNK A   0       9.530  -1.512  22.533  0.00  0.00    +0.211 C 
ATOM      6  O   UNK A   0      10.642  -2.001  22.365  0.00  0.00    -0.276 OA
ATOM      7  C   UNK A   0       8.263  -2.263  22.222  0.00  0.00    +0.109 C 
ENDBRANCH   2   3
BRANCH   2   8
ATOM      8  C   ALA A   1       9.978   2.075  22.814  0.00  0.00    +0.325 C 
ATOM      9  OXT ALA A   1       9.646   2.977  23.578  0.00  0.00    -0.249 OA
BRANCH   8  10
ATOM     10  O   ALA A   1       9.940   2.231  21.472  0.00  0.00    -0.479 OA
ATOM     11  H   ALA A   1      10.700   1.854  20.990  0.00  0.00    +0.295 HD
ENDBRANCH   8  10
ENDBRANCH   2   8
TORSDOF 3
ENDMDL
MODEL 5
REMARK VINA RESULT:      -3.9      2.993      5.713
REMARK  Name = 
REMARK  5 active torsions:
REMARK  status: ('A' for Active; 'I' for Inactive)
REMARK    1  A    between atoms: CB_1  and  CA_2
REMARK    2  A    between atoms: CA_2  and  N_4
REMARK    3  A    between atoms: CA_2  and  C_8
REMARK    4  A    between atoms: C_5  and  C_6
REMARK    5  A    between atoms: C_8  and  O_9
REMARK                            x       y       z     vdW  Elec       q    Type
REMARK                         _______ _______ _______ _____ _____    ______ ____
ROOT
ATOM      1  CB  ALA A   1       6.907  -4.944  23.814  0.00  0.00    +0.040 C 
ATOM      2  CA  ALA A   1       8.334  -4.556  24.185  0.00  0.00    +0.178 C 
ENDROOT
BRANCH   2   3
ATOM      3  N   ALA A   1       8.425  -3.152  24.578  0.00  0.00    -0.303 N 
ATOM      4  H   ALA A   1       7.782  -2.847  25.306  0.00  0.00    +0.149 HD
ATOM      5  C   UNK A   0       9.471  -2.342  24.218  0.00  0.00    +0.211 C 
ATOM      6  O   UNK A   0      10.391  -2.709  23.496  0.00  0.00    -0.276 OA
ATOM      7  C   UNK A   0       9.406  -0.956  24.800  0.00  0.00    +0.109 C 
ENDBRANCH   2   3
BRANCH   2   8
ATOM      8  C   ALA A   1       8.842  -5.392  25.369  0.00  0.00    +0.325 C 
ATOM      9  OXT ALA A   1       8.133  -5.720  26.316  0.00  0.00    -0.249 OA
BRANCH   8  10
ATOM     10  O   ALA A   1      10.153  -5.715  25.318  0.00  0.00    -0.479 OA
ATOM     11  H   ALA A   1      10.472  -6.265  26.058  0.00  0.00    +0.295 HD
ENDBRANCH   8  10
ENDBRANCH   2   8
TORSDOF 3
ENDMDL
MODEL 6
REMARK VINA RESULT:      -3.9      2.361      2.870
REMARK  Name = 
REMARK  5 active torsions:
REMARK  status: ('A' for Active; 'I' for Inactive)
REMARK    1  A    between atoms: CB_1  and  CA_2
REMARK    2  A    between atoms: CA_2  and  N_4
REMARK    3  A    between atoms: CA_2  and  C_8
REMARK    4  A    between atoms: C_5  and  C_6
REMARK    5  A    between atoms: C_8  and  O_9
REMARK                            x       y       z     vdW  Elec       q    Type
REMARK                         _______ _______ _______ _____ _____    ______ ____
ROOT
ATOM      1  CB  ALA A   1       9.820  -0.674  24.552  0.00  0.00    +0.040 C 
ATOM      2  CA  ALA A   1       9.760  -2.055  23.909  0.00  0.00    +0.178 C 
ENDROOT
BRANCH   2   3
ATOM      3  N   ALA A   1       8.834  -2.938  24.614  0.00  0.00    -0.303 N 
ATOM      4  H   ALA A   1       7.868  -2.621  24.672  0.00  0.00    +0.149 HD
ATOM      5  C   UNK A   0       9.141  -4.232  24.945  0.00  0.00    +0.211 C 
ATOM      6  O   UNK A   0      10.233  -4.744  24.724  0.00  0.00    -0.276 OA
ATOM      7  C   UNK A   0       8.012  -4.987  25.594  0.00  0.00    +0.109 C 
ENDBRANCH   2   3
BRANCH   2   8
ATOM      8  C   ALA A   1       9.279  -1.964  22.453  0.00  0.00    +0.325 C 
ATOM      9  OXT ALA A   1       8.135  -2.238  22.103  0.00  0.00    -0.249 OA
BRANCH   8  10
ATOM     10  O   ALA A   1      10.225  -1.594  21.563  0.00  0.00    -0.479 OA
ATOM     11  H   ALA A   1      11.100  -2.007  21.693  0.00  0.00    +0.295 HD
ENDBRANCH   8  10
ENDBRANCH   2   8
TORSDOF 3
ENDMDL
MODEL 7
REMARK VINA RESULT:      -3.9      5.021      6.118
REMARK  Name = 
REMARK  5 active torsions:
REMARK  status: ('A' for Active; 'I' for Inactive)
REMARK    1  A    between atoms: CB_1  and  CA_2
REMARK    2  A    between atoms: CA_2  and  N_4
REMARK    3  A    between atoms: CA_2  and  C_8
REMARK    4  A    between atoms: C_5  and  C_6
REMARK    5  A    between atoms: C_8  and  O_9
REMARK                            x       y       z     vdW  Elec       q    Type
REMARK                         _______ _______ _______ _____ _____    ______ ____
ROOT
ATOM      1  CB  ALA A   1       9.447  -3.202  24.277  0.00  0.00    +0.040 C 
ATOM      2  CA  ALA A   1       8.355  -4.233  24.542  0.00  0.00    +0.178 C 
ENDROOT
BRANCH   2   3
ATOM      3  N   ALA A   1       7.945  -4.912  23.315  0.00  0.00    -0.303 N 
ATOM      4  H   ALA A   1       8.696  -5.222  22.701  0.00  0.00    +0.149 HD
ATOM      5  C   UNK A   0       6.669  -5.364  23.102  0.00  0.00    +0.211 C 
ATOM      6  O   UNK A   0       5.751  -5.194  23.898  0.00  0.00    -0.276 OA
ATOM      7  C   UNK A   0       6.486  -6.107  21.807  0.00  0.00    +0.109 C 
ENDBRANCH   2   3
BRANCH   2   8
ATOM      8  C   ALA A   1       8.845  -5.315  25.516  0.00  0.00    +0.325 C 
ATOM      9  OXT ALA A   1       8.149  -5.778  26.415  0.00  0.00    -0.249 OA
BRANCH   8  10
ATOM     10  O   ALA A   1      10.128  -5.702  25.339  0.00  0.00    -0.479 OA
ATOM     11  H   ALA A   1      10.798  -5.073  25.668  0.00  0.00    +0.295 HD
ENDBRANCH   8  10
ENDBRANCH   2   8
TORSDOF 3
ENDMDL
MODEL 8
REMARK VINA RESULT:      -3.8      3.191      5.263
REMARK  Name = 
REMARK  5 active torsions:
REMARK  status: ('A' for Active; 'I' for Inactive)
REMARK    1  A    between atoms: CB_1  and  CA_2
REMARK    2  A    between atoms: CA_2  and  N_4
REMARK    3  A    between atoms: CA_2  and  C_8
REMARK    4  A    between atoms: C_5  and  C_6
REMARK    5  A    between atoms: C_8  and  O_9
REMARK                            x       y       z     vdW  Elec       q    Type
REMARK                         _______ _______ _______ _____ _____    ______ ____
ROOT
ATOM      1  CB  ALA A   1      10.564   1.431  24.226  0.00  0.00    +0.040 C 
ATOM      2  CA  ALA A   1      10.192   2.802  23.672  0.00  0.00    +0.178 C 
ENDROOT
BRANCH   2   3
ATOM      3  N   ALA A   1      11.367   3.527  23.194  0.00  0.00    -0.303 N 
ATOM      4  H   ALA A   1      11.951   3.040  22.517  0.00  0.00    +0.149 HD
ATOM      5  C   UNK A   0      11.553   4.869  23.404  0.00  0.00    +0.211 C 
ATOM      6  O   UNK A   0      10.778   5.565  24.051  0.00  0.00    -0.276 OA
ATOM      7  C   UNK A   0      12.790   5.429  22.755  0.00  0.00    +0.109 C 
ENDBRANCH   2   3
BRANCH   2   8
ATOM      8  C   ALA A   1       9.227   2.671  22.484  0.00  0.00    +0.325 C 
ATOM      9  OXT ALA A   1       8.077   3.102  22.499  0.00  0.00    -0.249 OA
BRANCH   8  10
ATOM     10  O   ALA A   1       9.723   2.005  21.418  0.00  0.00    -0.479 OA
ATOM     11  H   ALA A   1       9.421   1.081  21.331  0.00  0.00    +0.295 HD
ENDBRANCH   8  10
ENDBRANCH   2   8
TORSDOF 3
ENDMDL
MODEL 9
REMARK VINA RESULT:      -3.7      2.856      3.972
REMARK  Name = 
REMARK  5 active torsions:
REMARK  status: ('A' for Active; 'I' for Inactive)
REMARK    1  A    between atoms: CB_1  and  CA_2
REMARK    2  A    between atoms: CA_2  and  N_4
REMARK    3  A    between atoms: CA_2  and  C_8
REMARK    4  A    between atoms: C_5  and  C_6
REMARK    5  A    between atoms: C_8  and  O_9
REMARK                            x       y       z     vdW  Elec       q    Type
REMARK                         _______ _______ _______ _____ _____    ______ ____
ROOT
ATOM      1  CB  ALA A   1       7.166  -1.128  23.014  0.00  0.00    +0.040 C 
ATOM      2  CA  ALA A   1       7.878  -2.447  23.287  0.00  0.00    +0.178 C 
ENDROOT
BRANCH   2   3
ATOM      3  N   ALA A   1       7.421  -3.503  22.385  0.00  0.00    -0.303 N 
ATOM      4  H   ALA A   1       7.250  -3.226  21.421  0.00  0.00    +0.149 HD
ATOM      5  C   UNK A   0       7.473  -4.834  22.707  0.00  0.00    +0.211 C 
ATOM      6  O   UNK A   0       7.859  -5.252  23.794  0.00  0.00    -0.276 OA
ATOM      7  C   UNK A   0       7.030  -5.754  21.601  0.00  0.00    +0.109 C 
ENDBRANCH   2   3
BRANCH   2   8
ATOM      8  C   ALA A   1       9.394  -2.306  23.088  0.00  0.00    +0.325 C 
ATOM      9  OXT ALA A   1       9.897  -1.601  22.217  0.00  0.00    -0.249 OA
BRANCH   8  10
ATOM     10  O   ALA A   1      10.150  -3.052  23.923  0.00  0.00    -0.479 OA
ATOM     11  H   ALA A   1       9.908  -3.996  23.967  0.00  0.00    +0.295 HD
ENDBRANCH   8  10
ENDBRANCH   2   8
TORSDOF 3
ENDMDL
