MODEL 1
REMARK VINA RESULT:      -4.5      0.000      0.000
REMARK  Name = 
REMARK  7 active torsions:
REMARK  status: ('A' for Active; 'I' for Inactive)
REMARK    1  A    between atoms: N_1  and  C_2
REMARK    2  A    between atoms: C_2  and  C_4
REMARK    3  A    between atoms: C_2  and  C_11
REMARK    4  A    between atoms: C_4  and  C_5
REMARK    5  A    between atoms: C_5  and  S_6
REMARK    6  A    between atoms: S_6  and  C_7
REMARK    7  A    between atoms: C_11  and  O_12
REMARK                            x       y       z     vdW  Elec       q    Type
REMARK                         _______ _______ _______ _____ _____    ______ ____
ROOT
ATOM      1  C   UNK     1       7.988  -5.159  25.681  0.00  0.00    +0.161 C 
ENDROOT
BRANCH   1   2
ATOM      2  N   UNK     1       8.081  -5.632  27.101  0.00  0.00    -0.318 NA
ATOM      3  H   UNK     1       7.154  -5.551  27.534  0.00  0.00    +0.119 HD
ATOM      4  H   UNK     1       8.249  -6.644  27.081  0.00  0.00    +0.119 HD
ENDBRANCH   1   2
BRANCH   1   5
ATOM      5  C   UNK     1       9.419  -4.851  25.191  0.00  0.00    +0.322 C 
ATOM      6  O   UNK     1       9.721  -3.976  24.395  0.00  0.00    -0.249 OA
BRANCH   5   7
ATOM      7  O   UNK     1      10.325  -5.698  25.740  0.00  0.00    -0.480 OA
ATOM      8  H   UNK     1       9.919  -6.599  25.673  0.00  0.00    +0.295 HD
ENDBRANCH   5   7
ENDBRANCH   1   5
BRANCH   1   9
ATOM      9  C   UNK     1       7.059  -3.941  25.605  0.00  0.00    +0.041 C 
BRANCH   9  10
ATOM     10  C   UNK     1       6.297  -3.842  24.282  0.00  0.00    +0.080 C 
BRANCH  10  11
ATOM     11  S   UNK     1       5.931  -5.509  23.658  0.00  0.00    -0.052 S 
BRANCH  11  12
ATOM     12  C   UNK     1       6.995  -5.498  22.212  0.00  0.00    +0.443 C 
ATOM     13  F   UNK     1       8.033  -6.352  22.364  0.00  0.00    -0.160 F 
ATOM     14  F   UNK     1       7.511  -4.263  22.010  0.00  0.00    -0.160 F 
ATOM     15  F   UNK     1       6.343  -5.849  21.081  0.00  0.00    -0.160 F 
ENDBRANCH  11  12
ENDBRANCH  10  11
ENDBRANCH   9  10
ENDBRANCH   1   9
TORSDOF 7
ENDMDL
MODEL 2
REMARK VINA RESULT:      -4.5      2.052      2.329
REMARK  Name = 
REMARK  7 active torsions:
REMARK  status: ('A' for Active; 'I' for Inactive)
REMARK    1  A    between atoms: N_1  and  C_2
REMARK    2  A    between atoms: C_2  and  C_4
REMARK    3  A    between atoms: C_2  and  C_11
REMARK    4  A    between atoms: C_4  and  C_5
REMARK    5  A    between atoms: C_5  and  S_6
REMARK    6  A    between atoms: S_6  and  C_7
REMARK    7  A    between atoms: C_11  and  O_12
REMARK                            x       y       z     vdW  Elec       q    Type
REMARK                         _______ _______ _______ _____ _____    ______ ____
ROOT
ATOM      1  C   UNK     1       9.225  -4.536  25.711  0.00  0.00    +0.161 C 
ENDROOT
BRANCH   1   2
ATOM      2  N   UNK     1       9.993  -5.819  25.593  0.00  0.00    -0.318 NA
ATOM      3  H   UNK     1      10.933  -5.607  25.239  0.00  0.00    +0.119 HD
ATOM      4  H   UNK     1      10.166  -6.165  26.542  0.00  0.00    +0.119 HD
ENDBRANCH   1   2
BRANCH   1   5
ATOM      5  C   UNK     1       8.053  -4.775  26.686  0.00  0.00    +0.322 C 
ATOM      6  O   UNK     1       7.205  -3.950  26.987  0.00  0.00    -0.249 OA
BRANCH   5   7
ATOM      7  O   UNK     1       8.085  -6.028  27.204  0.00  0.00    -0.480 OA
ATOM      8  H   UNK     1       8.155  -6.635  26.424  0.00  0.00    +0.295 HD
ENDBRANCH   5   7
ENDBRANCH   1   5
BRANCH   1   9
ATOM      9  C   UNK     1       8.759  -4.088  24.320  0.00  0.00    +0.041 C 
BRANCH   9  10
ATOM     10  C   UNK     1       7.851  -5.107  23.628  0.00  0.00    +0.080 C 
BRANCH  10  11
ATOM     11  S   UNK     1       6.901  -4.288  22.312  0.00  0.00    -0.052 S 
BRANCH  11  12
ATOM     12  C   UNK     1       6.125  -5.738  21.593  0.00  0.00    +0.443 C 
ATOM     13  F   UNK     1       4.864  -5.897  22.056  0.00  0.00    -0.160 F 
ATOM     14  F   UNK     1       6.819  -6.856  21.910  0.00  0.00    -0.160 F 
ATOM     15  F   UNK     1       6.058  -5.680  20.244  0.00  0.00    -0.160 F 
ENDBRANCH  11  12
ENDBRANCH  10  11
ENDBRANCH   9  10
ENDBRANCH   1   9
TORSDOF 7
ENDMDL
MODEL 3
REMARK VINA RESULT:      -4.4      3.633      4.336
REMARK  Name = 
REMARK  7 active torsions:
REMARK  status: ('A' for Active; 'I' for Inactive)
REMARK    1  A    between atoms: N_1  and  C_2
REMARK    2  A    between atoms: C_2  and  C_4
REMARK    3  A    between atoms: C_2  and  C_11
REMARK    4  A    between atoms: C_4  and  C_5
REMARK    5  A    between atoms: C_5  and  S_6
REMARK    6  A    between atoms: S_6  and  C_7
REMARK    7  A    between atoms: C_11  and  O_12
REMARK                            x       y       z     vdW  Elec       q    Type
REMARK                         _______ _______ _______ _____ _____    ______ ____
ROOT
ATOM      1  C   UNK     1       9.218  -4.539  25.668  0.00  0.00    +0.161 C 
ENDROOT
BRANCH   1   2
ATOM      2  N   UNK     1      10.283  -5.565  25.415  0.00  0.00    -0.318 NA
ATOM      3  H   UNK     1      10.915  -5.208  24.689  0.00  0.00    +0.119 HD
ATOM      4  H   UNK     1      10.876  -5.609  26.250  0.00  0.00    +0.119 HD
ENDBRANCH   1   2
BRANCH   1   5
ATOM      5  C   UNK     1       7.943  -5.282  26.119  0.00  0.00    +0.322 C 
ATOM      6  O   UNK     1       6.920  -5.392  25.463  0.00  0.00    -0.249 OA
BRANCH   5   7
ATOM      7  O   UNK     1       8.082  -5.793  27.369  0.00  0.00    -0.480 OA
ATOM      8  H   UNK     1       7.331  -5.416  27.893  0.00  0.00    +0.295 HD
ENDBRANCH   5   7
ENDBRANCH   1   5
BRANCH   1   9
ATOM      9  C   UNK     1       9.001  -3.701  24.402  0.00  0.00    +0.041 C 
BRANCH   9  10
ATOM     10  C   UNK     1       8.988  -2.193  24.668  0.00  0.00    +0.080 C 
BRANCH  10  11
ATOM     11  S   UNK     1       8.507  -1.309  23.155  0.00  0.00    -0.052 S 
BRANCH  11  12
ATOM     12  C   UNK     1      10.137  -0.780  22.620  0.00  0.00    +0.443 C 
ATOM     13  F   UNK     1      10.062  -0.030  21.496  0.00  0.00    -0.160 F 
ATOM     14  F   UNK     1      10.918  -1.850  22.344  0.00  0.00    -0.160 F 
ATOM     15  F   UNK     1      10.781  -0.046  23.555  0.00  0.00    -0.160 F 
ENDBRANCH  11  12
ENDBRANCH  10  11
ENDBRANCH   9  10
ENDBRANCH   1   9
TORSDOF 7
ENDMDL
MODEL 4
REMARK VINA RESULT:      -4.4      1.853      2.284
REMARK  Name = 
REMARK  7 active torsions:
REMARK  status: ('A' for Active; 'I' for Inactive)
REMARK    1  A    between atoms: N_1  and  C_2
REMARK    2  A    between atoms: C_2  and  C_4
REMARK    3  A    between atoms: C_2  and  C_11
REMARK    4  A    between atoms: C_4  and  C_5
REMARK    5  A    between atoms: C_5  and  S_6
REMARK    6  A    between atoms: S_6  and  C_7
REMARK    7  A    between atoms: C_11  and  O_12
REMARK                            x       y       z     vdW  Elec       q    Type
REMARK                         _______ _______ _______ _____ _____    ______ ____
ROOT
ATOM      1  C   UNK     1       8.777  -3.741  25.049  0.00  0.00    +0.161 C 
ENDROOT
BRANCH   1   2
ATOM      2  N   UNK     1       9.945  -3.446  24.156  0.00  0.00    -0.318 NA
ATOM      3  H   UNK     1      10.756  -3.218  24.743  0.00  0.00    +0.119 HD
ATOM      4  H   UNK     1      10.217  -4.323  23.701  0.00  0.00    +0.119 HD
ENDBRANCH   1   2
BRANCH   1   5
ATOM      5  C   UNK     1       8.959  -5.167  25.610  0.00  0.00    +0.322 C 
ATOM      6  O   UNK     1       8.123  -5.789  26.246  0.00  0.00    -0.249 OA
BRANCH   5   7
ATOM      7  O   UNK     1      10.193  -5.657  25.330  0.00  0.00    -0.480 OA
ATOM      8  H   UNK     1      10.081  -6.204  24.512  0.00  0.00    +0.295 HD
ENDBRANCH   5   7
ENDBRANCH   1   5
BRANCH   1   9
ATOM      9  C   UNK     1       7.473  -3.577  24.258  0.00  0.00    +0.041 C 
BRANCH   9  10
ATOM     10  C   UNK     1       7.689  -3.482  22.745  0.00  0.00    +0.080 C 
BRANCH  10  11
ATOM     11  S   UNK     1       6.119  -3.790  21.882  0.00  0.00    -0.052 S 
BRANCH  11  12
ATOM     12  C   UNK     1       6.373  -5.517  21.464  0.00  0.00    +0.443 C 
ATOM     13  F   UNK     1       6.060  -5.757  20.170  0.00  0.00    -0.160 F 
ATOM     14  F   UNK     1       5.588  -6.312  22.227  0.00  0.00    -0.160 F 
ATOM     15  F   UNK     1       7.651  -5.918  21.654  0.00  0.00    -0.160 F 
ENDBRANCH  11  12
ENDBRANCH  10  11
ENDBRANCH   9  10
ENDBRANCH   1   9
TORSDOF 7
ENDMDL
MODEL 5
REMARK VINA RESULT:      -4.4      2.747      3.300
REMARK  Name = 
REMARK  7 active torsions:
REMARK  status: ('A' for Active; 'I' for Inactive)
REMARK    1  A    between atoms: N_1  and  C_2
REMARK    2  A    between atoms: C_2  and  C_4
REMARK    3  A    between atoms: C_2  and  C_11
REMARK    4  A    between atoms: C_4  and  C_5
REMARK    5  A    between atoms: C_5  and  S_6
REMARK    6  A    between atoms: S_6  and  C_7
REMARK    7  A    between atoms: C_11  and  O_12
REMARK                            x       y       z     vdW  Elec       q    Type
REMARK                         _______ _______ _______ _____ _____    ______ ____
ROOT
ATOM      1  C   UNK     1       7.943  -4.794  26.047  0.00  0.00    +0.161 C 
ENDROOT
BRANCH   1   2
ATOM      2  N   UNK     1       7.988  -5.605  27.307  0.00  0.00    -0.318 NA
ATOM      3  H   UNK     1       7.398  -5.149  28.012  0.00  0.00    +0.119 HD
ATOM      4  H   UNK     1       7.503  -6.490  27.123  0.00  0.00    +0.119 HD
ENDBRANCH   1   2
BRANCH   1   5
ATOM      5  C   UNK     1       8.990  -5.374  25.073  0.00  0.00    +0.322 C 
ATOM      6  O   UNK     1       8.801  -5.610  23.890  0.00  0.00    -0.249 OA
BRANCH   5   7
ATOM      7  O   UNK     1      10.168  -5.621  25.699  0.00  0.00    -0.480 OA
ATOM      8  H   UNK     1      10.418  -6.543  25.437  0.00  0.00    +0.295 HD
ENDBRANCH   5   7
ENDBRANCH   1   5
BRANCH   1   9
ATOM      9  C   UNK     1       8.195  -3.317  26.378  0.00  0.00    +0.041 C 
BRANCH   9  10
ATOM     10  C   UNK     1       7.681  -2.358  25.301  0.00  0.00    +0.080 C 
BRANCH  10  11
ATOM     11  S   UNK     1       8.983  -1.166  24.870  0.00  0.00    -0.052 S 
BRANCH  11  12
ATOM     12  C   UNK     1       9.657  -2.007  23.435  0.00  0.00    +0.443 C 
ATOM     13  F   UNK     1       8.687  -2.654  22.749  0.00  0.00    -0.160 F 
ATOM     14  F   UNK     1      10.574  -2.928  23.810  0.00  0.00    -0.160 F 
ATOM     15  F   UNK     1      10.269  -1.162  22.574  0.00  0.00    -0.160 F 
ENDBRANCH  11  12
ENDBRANCH  10  11
ENDBRANCH   9  10
ENDBRANCH   1   9
TORSDOF 7
ENDMDL
MODEL 6
REMARK VINA RESULT:      -4.2      5.237      5.832
REMARK  Name = 
REMARK  7 active torsions:
REMARK  status: ('A' for Active; 'I' for Inactive)
REMARK    1  A    between atoms: N_1  and  C_2
REMARK    2  A    between atoms: C_2  and  C_4
REMARK    3  A    between atoms: C_2  and  C_11
REMARK    4  A    between atoms: C_4  and  C_5
REMARK    5  A    between atoms: C_5  and  S_6
REMARK    6  A    between atoms: S_6  and  C_7
REMARK    7  A    between atoms: C_11  and  O_12
REMARK                            x       y       z     vdW  Elec       q    Type
REMARK                         _______ _______ _______ _____ _____    ______ ____
ROOT
ATOM      1  C   UNK     1       9.423  -1.066  24.438  0.00  0.00    +0.161 C 
ENDROOT
BRANCH   1   2
ATOM      2  N   UNK     1       8.867  -1.768  25.641  0.00  0.00    -0.318 NA
ATOM      3  H   UNK     1       9.481  -2.559  25.872  0.00  0.00    +0.119 HD
ATOM      4  H   UNK     1       8.974  -1.139  26.444  0.00  0.00    +0.119 HD
ENDBRANCH   1   2
BRANCH   1   5
ATOM      5  C   UNK     1      10.094  -2.127  23.540  0.00  0.00    +0.322 C 
ATOM      6  O   UNK     1      10.626  -1.907  22.463  0.00  0.00    -0.249 OA
BRANCH   5   7
ATOM      7  O   UNK     1      10.004  -3.367  24.083  0.00  0.00    -0.480 OA
ATOM      8  H   UNK     1       9.584  -3.236  24.971  0.00  0.00    +0.295 HD
ENDBRANCH   5   7
ENDBRANCH   1   5
BRANCH   1   9
ATOM      9  C   UNK     1      10.394   0.032  24.888  0.00  0.00    +0.041 C 
BRANCH   9  10
ATOM     10  C   UNK     1      10.032   1.419  24.351  0.00  0.00    +0.080 C 
BRANCH  10  11
ATOM     11  S   UNK     1       8.430   1.346  23.497  0.00  0.00    -0.052 S 
BRANCH  11  12
ATOM     12  C   UNK     1       9.013   1.526  21.809  0.00  0.00    +0.443 C 
ATOM     13  F   UNK     1      10.273   2.018  21.779  0.00  0.00    -0.160 F 
ATOM     14  F   UNK     1       8.224   2.383  21.121  0.00  0.00    -0.160 F 
ATOM     15  F   UNK     1       9.018   0.356  21.130  0.00  0.00    -0.160 F 
ENDBRANCH  11  12
ENDBRANCH  10  11
ENDBRANCH   9  10
ENDBRANCH   1   9
TORSDOF 7
ENDMDL
MODEL 7
REMARK VINA RESULT:      -4.2      5.594      6.246
REMARK  Name = 
REMARK  7 active torsions:
REMARK  status: ('A' for Active; 'I' for Inactive)
REMARK    1  A    between atoms: N_1  and  C_2
REMARK    2  A    between atoms: C_2  and  C_4
REMARK    3  A    between atoms: C_2  and  C_11
REMARK    4  A    between atoms: C_4  and  C_5
REMARK    5  A    between atoms: C_5  and  S_6
REMARK    6  A    between atoms: S_6  and  C_7
REMARK    7  A    between atoms: C_11  and  O_12
REMARK                            x       y       z     vdW  Elec       q    Type
REMARK                         _______ _______ _______ _____ _____    ______ ____
ROOT
ATOM      1  C   UNK     1      10.084   1.903  23.981  0.00  0.00    +0.161 C 
ENDROOT
BRANCH   1   2
ATOM      2  N   UNK     1       9.041   1.996  25.056  0.00  0.00    -0.318 NA
ATOM      3  H   UNK     1       9.393   2.606  25.802  0.00  0.00    +0.119 HD
ATOM      4  H   UNK     1       8.247   2.518  24.672  0.00  0.00    +0.119 HD
ENDBRANCH   1   2
BRANCH   1   5
ATOM      5  C   UNK     1       9.398   2.195  22.630  0.00  0.00    +0.322 C 
ATOM      6  O   UNK     1       8.200   2.362  22.467  0.00  0.00    -0.249 OA
BRANCH   5   7
ATOM      7  O   UNK     1      10.296   2.224  21.613  0.00  0.00    -0.480 OA
ATOM      8  H   UNK     1       9.856   2.736  20.888  0.00  0.00    +0.295 HD
ENDBRANCH   5   7
ENDBRANCH   1   5
BRANCH   1   9
ATOM      9  C   UNK     1      10.744   0.520  24.026  0.00  0.00    +0.041 C 
BRANCH   9  10
ATOM     10  C   UNK     1       9.830  -0.571  24.589  0.00  0.00    +0.080 C 
BRANCH  10  11
ATOM     11  S   UNK     1       9.871  -2.027  23.502  0.00  0.00    -0.052 S 
BRANCH  11  12
ATOM     12  C   UNK     1       8.619  -1.519  22.320  0.00  0.00    +0.443 C 
ATOM     13  F   UNK     1       9.172  -0.852  21.281  0.00  0.00    -0.160 F 
ATOM     14  F   UNK     1       7.721  -0.691  22.903  0.00  0.00    -0.160 F 
ATOM     15  F   UNK     1       7.927  -2.563  21.810  0.00  0.00    -0.160 F 
ENDBRANCH  11  12
ENDBRANCH  10  11
ENDBRANCH   9  10
ENDBRANCH   1   9
TORSDOF 7
ENDMDL
MODEL 8
REMARK VINA RESULT:      -4.2      4.264      4.880
REMARK  Name = 
REMARK  7 active torsions:
REMARK  status: ('A' for Active; 'I' for Inactive)
REMARK    1  A    between atoms: N_1  and  C_2
REMARK    2  A    between atoms: C_2  and  C_4
REMARK    3  A    between atoms: C_2  and  C_11
REMARK    4  A    between atoms: C_4  and  C_5
REMARK    5  A    between atoms: C_5  and  S_6
REMARK    6  A    between atoms: S_6  and  C_7
REMARK    7  A    between atoms: C_11  and  O_12
REMARK                            x       y       z     vdW  Elec       q    Type
REMARK                         _______ _______ _______ _____ _____    ______ ____
ROOT
ATOM      1  C   UNK     1       8.927  -3.880  24.317  0.00  0.00    +0.161 C 
ENDROOT
BRANCH   1   2
ATOM      2  N   UNK     1       7.450  -4.058  24.130  0.00  0.00    -0.318 NA
ATOM      3  H   UNK     1       6.962  -3.548  24.875  0.00  0.00    +0.119 HD
ATOM      4  H   UNK     1       7.182  -3.554  23.278  0.00  0.00    +0.119 HD
ENDBRANCH   1   2
BRANCH   1   5
ATOM      5  C   UNK     1       9.348  -4.695  25.558  0.00  0.00    +0.322 C 
ATOM      6  O   UNK     1       9.082  -4.410  26.715  0.00  0.00    -0.249 OA
BRANCH   5   7
ATOM      7  O   UNK     1      10.085  -5.781  25.213  0.00  0.00    -0.480 OA
ATOM      8  H   UNK     1      10.376  -6.186  26.069  0.00  0.00    +0.295 HD
ENDBRANCH   5   7
ENDBRANCH   1   5
BRANCH   1   9
ATOM      9  C   UNK     1       9.252  -2.387  24.448  0.00  0.00    +0.041 C 
BRANCH   9  10
ATOM     10  C   UNK     1       9.988  -1.818  23.233  0.00  0.00    +0.080 C 
BRANCH  10  11
ATOM     11  S   UNK     1      10.389  -0.069  23.524  0.00  0.00    -0.052 S 
BRANCH  11  12
ATOM     12  C   UNK     1       9.649   0.629  22.045  0.00  0.00    +0.443 C 
ATOM     13  F   UNK     1      10.328   1.722  21.629  0.00  0.00    -0.160 F 
ATOM     14  F   UNK     1       8.372   1.010  22.285  0.00  0.00    -0.160 F 
ATOM     15  F   UNK     1       9.617  -0.246  21.014  0.00  0.00    -0.160 F 
ENDBRANCH  11  12
ENDBRANCH  10  11
ENDBRANCH   9  10
ENDBRANCH   1   9
TORSDOF 7
ENDMDL
MODEL 9
REMARK VINA RESULT:      -4.2      6.387      7.022
REMARK  Name = 
REMARK  7 active torsions:
REMARK  status: ('A' for Active; 'I' for Inactive)
REMARK    1  A    between atoms: N_1  and  C_2
REMARK    2  A    between atoms: C_2  and  C_4
REMARK    3  A    between atoms: C_2  and  C_11
REMARK    4  A    between atoms: C_4  and  C_5
REMARK    5  A    between atoms: C_5  and  S_6
REMARK    6  A    between atoms: S_6  and  C_7
REMARK    7  A    between atoms: C_11  and  O_12
REMARK                            x       y       z     vdW  Elec       q    Type
REMARK                         _______ _______ _______ _____ _____    ______ ____
ROOT
ATOM      1  C   UNK     1       9.788   2.076  23.254  0.00  0.00    +0.161 C 
ENDROOT
BRANCH   1   2
ATOM      2  N   UNK     1      10.141   2.182  21.800  0.00  0.00    -0.318 NA
ATOM      3  H   UNK     1       9.419   2.738  21.327  0.00  0.00    +0.119 HD
ATOM      4  H   UNK     1      10.981   2.765  21.727  0.00  0.00    +0.119 HD
ENDBRANCH   1   2
BRANCH   1   5
ATOM      5  C   UNK     1       9.659   3.508  23.815  0.00  0.00    +0.322 C 
ATOM      6  O   UNK     1       8.856   3.866  24.661  0.00  0.00    -0.249 OA
BRANCH   5   7
ATOM      7  O   UNK     1      10.547   4.352  23.231  0.00  0.00    -0.480 OA
ATOM      8  H   UNK     1      10.058   5.204  23.106  0.00  0.00    +0.295 HD
ENDBRANCH   5   7
ENDBRANCH   1   5
BRANCH   1   9
ATOM      9  C   UNK     1      10.853   1.247  23.981  0.00  0.00    +0.041 C 
BRANCH   9  10
ATOM     10  C   UNK     1      10.276   0.052  24.744  0.00  0.00    +0.080 C 
BRANCH  10  11
ATOM     11  S   UNK     1       8.804  -0.573  23.880  0.00  0.00    -0.052 S 
BRANCH  11  12
ATOM     12  C   UNK     1       9.603  -1.784  22.822  0.00  0.00    +0.443 C 
ATOM     13  F   UNK     1       8.691  -2.569  22.205  0.00  0.00    -0.160 F 
ATOM     14  F   UNK     1      10.411  -2.591  23.548  0.00  0.00    -0.160 F 
ATOM     15  F   UNK     1      10.366  -1.215  21.861  0.00  0.00    -0.160 F 
ENDBRANCH  11  12
ENDBRANCH  10  11
ENDBRANCH   9  10
ENDBRANCH   1   9
TORSDOF 7
ENDMDL
