MODEL 1
REMARK VINA RESULT:      -7.3      0.000      0.000
REMARK  Name = 
REMARK  7 active torsions:
REMARK  status: ('A' for Active; 'I' for Inactive)
REMARK    1  A    between atoms: C_1  and  N_2
REMARK    2  A    between atoms: C_3  and  C_5
REMARK    3  A    between atoms: N_16  and  C1*_17
REMARK    4  A    between atoms: C4*_20  and  C5*_22
REMARK    5  A    between atoms: C5*_22  and  O5*_23
REMARK    6  A    between atoms: C3*_24  and  O3*_26
REMARK    7  A    between atoms: C2*_27  and  O2*_29
REMARK                            x       y       z     vdW  Elec       q    Type
REMARK                         _______ _______ _______ _____ _____    ______ ____
ROOT
ATOM      1  C   UNL     1       7.662   3.674  22.872  0.00  0.00    +0.075 A 
ATOM      2  C   UNL     1       7.231   2.789  21.865  0.00  0.00    +0.148 A 
ATOM      3  N   UNL     1       7.341   1.504  22.211  0.00  0.00    -0.171 NA
ATOM      4  N   UNL     1       7.827   1.543  23.483  0.00  0.00    -0.205 N 
ATOM      5  C   UNL     1       8.053   0.337  24.239  0.00  0.00    +0.255 A 
ATOM      6  N   UNL     1       8.514   0.466  25.512  0.00  0.00    -0.194 NA
ATOM      7  C   UNL     1       8.698  -0.649  26.260  0.00  0.00    +0.149 A 
ATOM      8  N   UNL     1       9.148  -0.504  27.563  0.00  0.00    -0.341 N 
ATOM      9  H   UNL     1       9.624   0.369  27.732  0.00  0.00    +0.144 HD
ATOM     10  H   UNL     1       9.555  -1.348  27.954  0.00  0.00    +0.144 HD
ATOM     11  C   UNL     1       8.429  -1.899  25.680  0.00  0.00    +0.147 A 
ATOM     12  N   UNL     1       8.549  -3.191  26.143  0.00  0.00    -0.231 NA
ATOM     13  C   UNL     1       8.147  -3.945  25.140  0.00  0.00    +0.203 A 
ATOM     14  N   UNL     1       7.760  -3.198  24.054  0.00  0.00    -0.285 N 
ATOM     15  C   UNL     1       7.965  -1.891  24.379  0.00  0.00    +0.170 A 
ATOM     16  N   UNL     1       7.770  -0.824  23.601  0.00  0.00    -0.191 NA
ATOM     17  C   UNL     1       8.045   2.838  23.905  0.00  0.00    +0.130 A 
ENDROOT
BRANCH   1  21
ATOM     18  C   UNL     1       6.758   7.091  21.658  0.00  0.00    +0.128 C 
ATOM     19  N   UNL     1       6.829   5.668  21.842  0.00  0.00    -0.314 N 
ATOM     20  H   UNL     1       6.268   5.067  21.257  0.00  0.00    +0.149 HD
ATOM     21  C   UNL     1       7.668   5.121  22.786  0.00  0.00    +0.247 C 
ATOM     22  O   UNL     1       8.382   5.804  23.521  0.00  0.00    -0.270 OA
ENDBRANCH   1  21
BRANCH  14  23
ATOM     23  C1* UNL     1       7.261  -3.761  22.823  0.00  0.00    +0.253 C 
ATOM     24  C2* UNL     1       7.020  -5.274  22.677  0.00  0.00    +0.195 C 
ATOM     25  C3* UNL     1       5.560  -5.462  23.081  0.00  0.00    +0.178 C 
ATOM     26  C4* UNL     1       4.947  -4.063  23.005  0.00  0.00    +0.177 C 
ATOM     27  O4* UNL     1       5.981  -3.148  22.563  0.00  0.00    -0.346 OA
BRANCH  24  28
ATOM     28  O2* UNL     1       7.175  -5.694  21.298  0.00  0.00    -0.385 OA
ATOM     29  H2* UNL     1       7.649  -6.545  21.277  0.00  0.00    +0.210 HD
ENDBRANCH  24  28
BRANCH  25  30
ATOM     30  O3* UNL     1       4.868  -6.339  22.190  0.00  0.00    -0.386 OA
ATOM     31  H3* UNL     1       4.207  -5.791  21.717  0.00  0.00    +0.210 HD
ENDBRANCH  25  30
BRANCH  26  32
ATOM     32  C5* UNL     1       4.403  -3.609  24.369  0.00  0.00    +0.190 C 
BRANCH  32  33
ATOM     33  O5* UNL     1       4.657  -4.596  25.364  0.00  0.00    -0.392 OA
ATOM     34  H5* UNL     1       3.824  -4.726  25.853  0.00  0.00    +0.210 HD
ENDBRANCH  32  33
ENDBRANCH  26  32
ENDBRANCH  14  23
TORSDOF 6
ENDMDL
MODEL 2
REMARK VINA RESULT:      -7.0      3.732      8.743
REMARK  Name = 
REMARK  7 active torsions:
REMARK  status: ('A' for Active; 'I' for Inactive)
REMARK    1  A    between atoms: C_1  and  N_2
REMARK    2  A    between atoms: C_3  and  C_5
REMARK    3  A    between atoms: N_16  and  C1*_17
REMARK    4  A    between atoms: C4*_20  and  C5*_22
REMARK    5  A    between atoms: C5*_22  and  O5*_23
REMARK    6  A    between atoms: C3*_24  and  O3*_26
REMARK    7  A    between atoms: C2*_27  and  O2*_29
REMARK                            x       y       z     vdW  Elec       q    Type
REMARK                         _______ _______ _______ _____ _____    ______ ____
ROOT
ATOM      1  C   UNL     1       2.515  -7.462  24.165  0.00  0.00    +0.075 A 
ATOM      2  C   UNL     1       2.361  -6.292  23.395  0.00  0.00    +0.148 A 
ATOM      3  N   UNL     1       3.284  -5.364  23.658  0.00  0.00    -0.171 NA
ATOM      4  N   UNL     1       4.079  -5.943  24.600  0.00  0.00    -0.205 N 
ATOM      5  C   UNL     1       5.236  -5.264  25.127  0.00  0.00    +0.255 A 
ATOM      6  N   UNL     1       5.993  -5.924  26.045  0.00  0.00    -0.194 NA
ATOM      7  C   UNL     1       7.108  -5.326  26.528  0.00  0.00    +0.149 A 
ATOM      8  N   UNL     1       7.884  -6.017  27.447  0.00  0.00    -0.341 N 
ATOM      9  H   UNL     1       7.381  -6.745  27.933  0.00  0.00    +0.144 HD
ATOM     10  H   UNL     1       8.501  -5.425  27.992  0.00  0.00    +0.144 HD
ATOM     11  C   UNL     1       7.425  -4.033  26.081  0.00  0.00    +0.147 A 
ATOM     12  N   UNL     1       8.439  -3.156  26.399  0.00  0.00    -0.231 NA
ATOM     13  C   UNL     1       8.208  -2.094  25.655  0.00  0.00    +0.203 A 
ATOM     14  N   UNL     1       7.098  -2.252  24.859  0.00  0.00    -0.285 N 
ATOM     15  C   UNL     1       6.575  -3.475  25.147  0.00  0.00    +0.170 A 
ATOM     16  N   UNL     1       5.465  -4.020  24.642  0.00  0.00    -0.191 NA
ATOM     17  C   UNL     1       3.633  -7.203  24.938  0.00  0.00    +0.130 A 
ENDROOT
BRANCH   1  21
ATOM     18  C   UNL     1       0.838 -10.601  25.304  0.00  0.00    +0.128 C 
ATOM     19  N   UNL     1       1.635  -9.406  25.247  0.00  0.00    -0.314 N 
ATOM     20  H   UNL     1       2.189  -9.145  26.048  0.00  0.00    +0.149 HD
ATOM     21  C   UNL     1       1.667  -8.636  24.107  0.00  0.00    +0.247 C 
ATOM     22  O   UNL     1       1.020  -8.910  23.097  0.00  0.00    -0.270 OA
ENDBRANCH   1  21
BRANCH  14  23
ATOM     23  C1* UNL     1       6.621  -1.254  23.932  0.00  0.00    +0.253 C 
ATOM     24  C2* UNL     1       7.083   0.211  24.027  0.00  0.00    +0.195 C 
ATOM     25  C3* UNL     1       8.302   0.280  23.111  0.00  0.00    +0.178 C 
ATOM     26  C4* UNL     1       8.206  -0.970  22.234  0.00  0.00    +0.177 C 
ATOM     27  O4* UNL     1       7.003  -1.685  22.609  0.00  0.00    -0.346 OA
BRANCH  24  28
ATOM     28  O2* UNL     1       6.068   1.111  23.514  0.00  0.00    -0.385 OA
ATOM     29  H2* UNL     1       5.706   0.743  22.687  0.00  0.00    +0.210 HD
ENDBRANCH  24  28
BRANCH  25  30
ATOM     30  O3* UNL     1       8.285   1.447  22.286  0.00  0.00    -0.386 OA
ATOM     31  H3* UNL     1       8.873   1.259  21.525  0.00  0.00    +0.210 HD
ENDBRANCH  25  30
BRANCH  26  32
ATOM     32  C5* UNL     1       9.429  -1.882  22.417  0.00  0.00    +0.190 C 
BRANCH  32  33
ATOM     33  O5* UNL     1      10.468  -1.517  21.514  0.00  0.00    -0.392 OA
ATOM     34  H5* UNL     1      10.279  -0.608  21.218  0.00  0.00    +0.210 HD
ENDBRANCH  32  33
ENDBRANCH  26  32
ENDBRANCH  14  23
TORSDOF 6
ENDMDL
MODEL 3
REMARK VINA RESULT:      -6.9      2.497      3.572
REMARK  Name = 
REMARK  7 active torsions:
REMARK  status: ('A' for Active; 'I' for Inactive)
REMARK    1  A    between atoms: C_1  and  N_2
REMARK    2  A    between atoms: C_3  and  C_5
REMARK    3  A    between atoms: N_16  and  C1*_17
REMARK    4  A    between atoms: C4*_20  and  C5*_22
REMARK    5  A    between atoms: C5*_22  and  O5*_23
REMARK    6  A    between atoms: C3*_24  and  O3*_26
REMARK    7  A    between atoms: C2*_27  and  O2*_29
REMARK                            x       y       z     vdW  Elec       q    Type
REMARK                         _______ _______ _______ _____ _____    ______ ____
ROOT
ATOM      1  C   UNL     1       8.032   3.671  25.486  0.00  0.00    +0.075 A 
ATOM      2  C   UNL     1       7.249   2.927  26.390  0.00  0.00    +0.148 A 
ATOM      3  N   UNL     1       7.068   1.660  26.009  0.00  0.00    -0.171 NA
ATOM      4  N   UNL     1       7.770   1.558  24.847  0.00  0.00    -0.205 N 
ATOM      5  C   UNL     1       7.858   0.312  24.129  0.00  0.00    +0.255 A 
ATOM      6  N   UNL     1       8.601   0.289  22.990  0.00  0.00    -0.194 NA
ATOM      7  C   UNL     1       8.734  -0.879  22.316  0.00  0.00    +0.149 A 
ATOM      8  N   UNL     1       9.513  -0.895  21.168  0.00  0.00    -0.341 N 
ATOM      9  H   UNL     1       9.627   0.014  20.744  0.00  0.00    +0.144 HD
ATOM     10  H   UNL     1       9.325  -1.682  20.555  0.00  0.00    +0.144 HD
ATOM     11  C   UNL     1       8.075  -2.017  22.807  0.00  0.00    +0.147 A 
ATOM     12  N   UNL     1       7.975  -3.312  22.347  0.00  0.00    -0.231 NA
ATOM     13  C   UNL     1       7.218  -3.925  23.233  0.00  0.00    +0.203 A 
ATOM     14  N   UNL     1       6.835  -3.087  24.253  0.00  0.00    -0.285 N 
ATOM     15  C   UNL     1       7.353  -1.860  23.973  0.00  0.00    +0.170 A 
ATOM     16  N   UNL     1       7.189  -0.734  24.672  0.00  0.00    -0.191 NA
ATOM     17  C   UNL     1       8.351   2.759  24.496  0.00  0.00    +0.130 A 
ENDROOT
BRANCH   1  21
ATOM     18  C   UNL     1       9.089   7.108  24.466  0.00  0.00    +0.128 C 
ATOM     19  N   UNL     1       8.705   5.723  24.453  0.00  0.00    -0.314 N 
ATOM     20  H   UNL     1       8.684   5.226  23.576  0.00  0.00    +0.149 HD
ATOM     21  C   UNL     1       8.394   5.068  25.623  0.00  0.00    +0.247 C 
ATOM     22  O   UNL     1       8.412   5.620  26.723  0.00  0.00    -0.270 OA
ENDBRANCH   1  21
BRANCH  14  23
ATOM     23  C1* UNL     1       6.016  -3.496  25.369  0.00  0.00    +0.253 C 
ATOM     24  C2* UNL     1       5.485  -4.935  25.485  0.00  0.00    +0.195 C 
ATOM     25  C3* UNL     1       6.550  -5.662  26.303  0.00  0.00    +0.178 C 
ATOM     26  C4* UNL     1       7.367  -4.550  26.962  0.00  0.00    +0.177 C 
ATOM     27  O4* UNL     1       6.791  -3.281  26.567  0.00  0.00    -0.346 OA
BRANCH  24  28
ATOM     28  O2* UNL     1       4.235  -4.972  26.219  0.00  0.00    -0.385 OA
ATOM     29  H2* UNL     1       3.775  -4.120  26.105  0.00  0.00    +0.210 HD
ENDBRANCH  24  28
BRANCH  25  30
ATOM     30  O3* UNL     1       5.973  -6.496  27.311  0.00  0.00    -0.386 OA
ATOM     31  H3* UNL     1       5.896  -5.945  28.117  0.00  0.00    +0.210 HD
ENDBRANCH  25  30
BRANCH  26  32
ATOM     32  C5* UNL     1       8.842  -4.604  26.534  0.00  0.00    +0.190 C 
BRANCH  32  33
ATOM     33  O5* UNL     1       9.138  -5.848  25.906  0.00  0.00    -0.392 OA
ATOM     34  H5* UNL     1       9.685  -6.358  26.531  0.00  0.00    +0.210 HD
ENDBRANCH  32  33
ENDBRANCH  26  32
ENDBRANCH  14  23
TORSDOF 6
ENDMDL
MODEL 4
REMARK VINA RESULT:      -6.7      2.676      3.378
REMARK  Name = 
REMARK  7 active torsions:
REMARK  status: ('A' for Active; 'I' for Inactive)
REMARK    1  A    between atoms: C_1  and  N_2
REMARK    2  A    between atoms: C_3  and  C_5
REMARK    3  A    between atoms: N_16  and  C1*_17
REMARK    4  A    between atoms: C4*_20  and  C5*_22
REMARK    5  A    between atoms: C5*_22  and  O5*_23
REMARK    6  A    between atoms: C3*_24  and  O3*_26
REMARK    7  A    between atoms: C2*_27  and  O2*_29
REMARK                            x       y       z     vdW  Elec       q    Type
REMARK                         _______ _______ _______ _____ _____    ______ ____
ROOT
ATOM      1  C   UNL     1       9.737   2.834  23.853  0.00  0.00    +0.075 A 
ATOM      2  C   UNL     1      10.108   1.610  23.265  0.00  0.00    +0.148 A 
ATOM      3  N   UNL     1       9.275   0.609  23.562  0.00  0.00    -0.171 NA
ATOM      4  N   UNL     1       8.320   1.192  24.338  0.00  0.00    -0.205 N 
ATOM      5  C   UNL     1       7.199   0.439  24.841  0.00  0.00    +0.255 A 
ATOM      6  N   UNL     1       6.275   1.103  25.587  0.00  0.00    -0.194 NA
ATOM      7  C   UNL     1       5.189   0.431  26.039  0.00  0.00    +0.149 A 
ATOM      8  N   UNL     1       4.243   1.123  26.779  0.00  0.00    -0.341 N 
ATOM      9  H   UNL     1       4.602   1.963  27.209  0.00  0.00    +0.144 HD
ATOM     10  H   UNL     1       3.641   0.527  27.339  0.00  0.00    +0.144 HD
ATOM     11  C   UNL     1       5.074  -0.937  25.742  0.00  0.00    +0.147 A 
ATOM     12  N   UNL     1       4.140  -1.892  26.078  0.00  0.00    -0.231 NA
ATOM     13  C   UNL     1       4.572  -2.998  25.508  0.00  0.00    +0.203 A 
ATOM     14  N   UNL     1       5.737  -2.797  24.806  0.00  0.00    -0.285 N 
ATOM     15  C   UNL     1       6.081  -1.491  24.975  0.00  0.00    +0.170 A 
ATOM     16  N   UNL     1       7.169  -0.873  24.508  0.00  0.00    -0.191 NA
ATOM     17  C   UNL     1       8.579   2.531  24.545  0.00  0.00    +0.130 A 
ENDROOT
BRANCH   1  21
ATOM     18  C   UNL     1      12.496   5.196  22.970  0.00  0.00    +0.128 C 
ATOM     19  N   UNL     1      11.695   4.016  23.145  0.00  0.00    -0.314 N 
ATOM     20  H   UNL     1      12.066   3.122  22.861  0.00  0.00    +0.149 HD
ATOM     21  C   UNL     1      10.446   4.092  23.718  0.00  0.00    +0.247 C 
ATOM     22  O   UNL     1       9.946   5.152  24.093  0.00  0.00    -0.270 OA
ENDBRANCH   1  21
BRANCH  14  23
ATOM     23  C1* UNL     1       6.425  -3.831  24.071  0.00  0.00    +0.253 C 
ATOM     24  C2* UNL     1       7.939  -3.750  23.807  0.00  0.00    +0.195 C 
ATOM     25  C3* UNL     1       8.564  -4.496  24.983  0.00  0.00    +0.178 C 
ATOM     26  C4* UNL     1       7.419  -5.312  25.585  0.00  0.00    +0.177 C 
ATOM     27  O4* UNL     1       6.232  -5.066  24.791  0.00  0.00    -0.346 OA
BRANCH  24  28
ATOM     28  O2* UNL     1       8.291  -4.441  22.582  0.00  0.00    -0.385 OA
ATOM     29  H2* UNL     1       8.715  -5.289  22.806  0.00  0.00    +0.210 HD
ENDBRANCH  24  28
BRANCH  25  30
ATOM     30  O3* UNL     1       9.610  -5.375  24.562  0.00  0.00    -0.386 OA
ATOM     31  H3* UNL     1       9.808  -5.958  25.324  0.00  0.00    +0.210 HD
ENDBRANCH  25  30
BRANCH  26  32
ATOM     32  C5* UNL     1       7.155  -4.919  27.047  0.00  0.00    +0.190 C 
BRANCH  32  33
ATOM     33  O5* UNL     1       7.500  -5.987  27.925  0.00  0.00    -0.392 OA
ATOM     34  H5* UNL     1       6.887  -6.719  27.734  0.00  0.00    +0.210 HD
ENDBRANCH  32  33
ENDBRANCH  26  32
ENDBRANCH  14  23
TORSDOF 6
ENDMDL
MODEL 5
REMARK VINA RESULT:      -6.6      3.340      8.090
REMARK  Name = 
REMARK  7 active torsions:
REMARK  status: ('A' for Active; 'I' for Inactive)
REMARK    1  A    between atoms: C_1  and  N_2
REMARK    2  A    between atoms: C_3  and  C_5
REMARK    3  A    between atoms: N_16  and  C1*_17
REMARK    4  A    between atoms: C4*_20  and  C5*_22
REMARK    5  A    between atoms: C5*_22  and  O5*_23
REMARK    6  A    between atoms: C3*_24  and  O3*_26
REMARK    7  A    between atoms: C2*_27  and  O2*_29
REMARK                            x       y       z     vdW  Elec       q    Type
REMARK                         _______ _______ _______ _____ _____    ______ ____
ROOT
ATOM      1  C   UNL     1       3.706  -5.950  23.762  0.00  0.00    +0.075 A 
ATOM      2  C   UNL     1       4.394  -5.459  22.636  0.00  0.00    +0.148 A 
ATOM      3  N   UNL     1       4.909  -4.241  22.824  0.00  0.00    -0.171 NA
ATOM      4  N   UNL     1       4.579  -3.936  24.110  0.00  0.00    -0.205 N 
ATOM      5  C   UNL     1       4.995  -2.698  24.718  0.00  0.00    +0.255 A 
ATOM      6  N   UNL     1       4.646  -2.482  26.015  0.00  0.00    -0.194 NA
ATOM      7  C   UNL     1       5.057  -1.344  26.626  0.00  0.00    +0.149 A 
ATOM      8  N   UNL     1       4.714  -1.146  27.955  0.00  0.00    -0.341 N 
ATOM      9  H   UNL     1       3.912  -1.683  28.250  0.00  0.00    +0.144 HD
ATOM     10  H   UNL     1       4.770  -0.178  28.254  0.00  0.00    +0.144 HD
ATOM     11  C   UNL     1       5.806  -0.417  25.884  0.00  0.00    +0.147 A 
ATOM     12  N   UNL     1       6.327   0.822  26.188  0.00  0.00    -0.231 NA
ATOM     13  C   UNL     1       6.931   1.211  25.084  0.00  0.00    +0.203 A 
ATOM     14  N   UNL     1       6.835   0.273  24.084  0.00  0.00    -0.285 N 
ATOM     15  C   UNL     1       6.093  -0.757  24.577  0.00  0.00    +0.170 A 
ATOM     16  N   UNL     1       5.711  -1.861  23.930  0.00  0.00    -0.191 NA
ATOM     17  C   UNL     1       3.840  -4.941  24.698  0.00  0.00    +0.130 A 
ENDROOT
BRANCH   1  21
ATOM     18  C   UNL     1       1.254  -8.663  22.986  0.00  0.00    +0.128 C 
ATOM     19  N   UNL     1       1.998  -7.433  22.978  0.00  0.00    -0.314 N 
ATOM     20  H   UNL     1       1.738  -6.705  22.331  0.00  0.00    +0.149 HD
ATOM     21  C   UNL     1       3.038  -7.233  23.857  0.00  0.00    +0.247 C 
ATOM     22  O   UNL     1       3.393  -8.082  24.676  0.00  0.00    -0.270 OA
ENDBRANCH   1  21
BRANCH  14  23
ATOM     23  C1* UNL     1       7.418   0.428  22.773  0.00  0.00    +0.253 C 
ATOM     24  C2* UNL     1       8.051   1.760  22.333  0.00  0.00    +0.195 C 
ATOM     25  C3* UNL     1       9.523   1.619  22.713  0.00  0.00    +0.178 C 
ATOM     26  C4* UNL     1       9.733   0.119  22.925  0.00  0.00    +0.177 C 
ATOM     27  O4* UNL     1       8.474  -0.548  22.659  0.00  0.00    -0.346 OA
BRANCH  24  28
ATOM     28  O2* UNL     1       7.960   1.929  20.896  0.00  0.00    -0.385 OA
ATOM     29  H2* UNL     1       8.471   1.223  20.459  0.00  0.00    +0.210 HD
ENDBRANCH  24  28
BRANCH  25  30
ATOM     30  O3* UNL     1      10.390   2.083  21.675  0.00  0.00    -0.386 OA
ATOM     31  H3* UNL     1      10.639   3.000  21.911  0.00  0.00    +0.210 HD
ENDBRANCH  25  30
BRANCH  26  32
ATOM     32  C5* UNL     1      10.188  -0.191  24.360  0.00  0.00    +0.190 C 
BRANCH  32  33
ATOM     33  O5* UNL     1      10.490   1.012  25.061  0.00  0.00    -0.392 OA
ATOM     34  H5* UNL     1      11.109   1.517  24.504  0.00  0.00    +0.210 HD
ENDBRANCH  32  33
ENDBRANCH  26  32
ENDBRANCH  14  23
TORSDOF 6
ENDMDL
MODEL 6
REMARK VINA RESULT:      -6.6      3.818      8.650
REMARK  Name = 
REMARK  7 active torsions:
REMARK  status: ('A' for Active; 'I' for Inactive)
REMARK    1  A    between atoms: C_1  and  N_2
REMARK    2  A    between atoms: C_3  and  C_5
REMARK    3  A    between atoms: N_16  and  C1*_17
REMARK    4  A    between atoms: C4*_20  and  C5*_22
REMARK    5  A    between atoms: C5*_22  and  O5*_23
REMARK    6  A    between atoms: C3*_24  and  O3*_26
REMARK    7  A    between atoms: C2*_27  and  O2*_29
REMARK                            x       y       z     vdW  Elec       q    Type
REMARK                         _______ _______ _______ _____ _____    ______ ____
ROOT
ATOM      1  C   UNL     1       4.581  -6.178  28.537  0.00  0.00    +0.075 A 
ATOM      2  C   UNL     1       5.320  -5.084  29.030  0.00  0.00    +0.148 A 
ATOM      3  N   UNL     1       6.033  -4.463  28.086  0.00  0.00    -0.171 NA
ATOM      4  N   UNL     1       5.735  -5.143  26.944  0.00  0.00    -0.205 N 
ATOM      5  C   UNL     1       6.286  -4.749  25.672  0.00  0.00    +0.255 A 
ATOM      6  N   UNL     1       5.917  -5.465  24.575  0.00  0.00    -0.194 NA
ATOM      7  C   UNL     1       6.387  -5.093  23.360  0.00  0.00    +0.149 A 
ATOM      8  N   UNL     1       5.987  -5.817  22.246  0.00  0.00    -0.341 N 
ATOM      9  H   UNL     1       5.668  -6.749  22.463  0.00  0.00    +0.144 HD
ATOM     10  H   UNL     1       6.593  -5.701  21.441  0.00  0.00    +0.144 HD
ATOM     11  C   UNL     1       7.261  -3.997  23.283  0.00  0.00    +0.147 A 
ATOM     12  N   UNL     1       7.931  -3.405  22.235  0.00  0.00    -0.231 NA
ATOM     13  C   UNL     1       8.604  -2.415  22.784  0.00  0.00    +0.203 A 
ATOM     14  N   UNL     1       8.388  -2.331  24.139  0.00  0.00    -0.285 N 
ATOM     15  C   UNL     1       7.555  -3.356  24.471  0.00  0.00    +0.170 A 
ATOM     16  N   UNL     1       7.121  -3.684  25.691  0.00  0.00    -0.191 NA
ATOM     17  C   UNL     1       4.874  -6.192  27.185  0.00  0.00    +0.130 A 
ENDROOT
BRANCH   1  21
ATOM     18  C   UNL     1       1.670  -8.376  29.351  0.00  0.00    +0.128 C 
ATOM     19  N   UNL     1       2.602  -7.516  28.673  0.00  0.00    -0.314 N 
ATOM     20  H   UNL     1       2.417  -7.244  27.720  0.00  0.00    +0.149 HD
ATOM     21  C   UNL     1       3.722  -7.045  29.319  0.00  0.00    +0.247 C 
ATOM     22  O   UNL     1       3.994  -7.336  30.484  0.00  0.00    -0.270 OA
ENDBRANCH   1  21
BRANCH  14  23
ATOM     23  C1* UNL     1       8.985  -1.332  24.992  0.00  0.00    +0.253 C 
ATOM     24  C2* UNL     1       9.718  -0.114  24.402  0.00  0.00    +0.195 C 
ATOM     25  C3* UNL     1       8.638   0.959  24.295  0.00  0.00    +0.178 C 
ATOM     26  C4* UNL     1       7.508   0.471  25.203  0.00  0.00    +0.177 C 
ATOM     27  O4* UNL     1       7.927  -0.779  25.803  0.00  0.00    -0.346 OA
BRANCH  24  28
ATOM     28  O2* UNL     1      10.750   0.358  25.305  0.00  0.00    -0.385 OA
ATOM     29  H2* UNL     1      10.634  -0.070  26.172  0.00  0.00    +0.210 HD
ENDBRANCH  24  28
BRANCH  25  30
ATOM     30  O3* UNL     1       9.103   2.232  24.749  0.00  0.00    -0.386 OA
ATOM     31  H3* UNL     1       9.573   2.072  25.594  0.00  0.00    +0.210 HD
ENDBRANCH  25  30
BRANCH  26  32
ATOM     32  C5* UNL     1       6.205   0.256  24.416  0.00  0.00    +0.190 C 
BRANCH  32  33
ATOM     33  O5* UNL     1       6.443   0.352  23.015  0.00  0.00    -0.392 OA
ATOM     34  H5* UNL     1       5.809  -0.246  22.579  0.00  0.00    +0.210 HD
ENDBRANCH  32  33
ENDBRANCH  26  32
ENDBRANCH  14  23
TORSDOF 6
ENDMDL
MODEL 7
REMARK VINA RESULT:      -6.6      2.261      2.484
REMARK  Name = 
REMARK  7 active torsions:
REMARK  status: ('A' for Active; 'I' for Inactive)
REMARK    1  A    between atoms: C_1  and  N_2
REMARK    2  A    between atoms: C_3  and  C_5
REMARK    3  A    between atoms: N_16  and  C1*_17
REMARK    4  A    between atoms: C4*_20  and  C5*_22
REMARK    5  A    between atoms: C5*_22  and  O5*_23
REMARK    6  A    between atoms: C3*_24  and  O3*_26
REMARK    7  A    between atoms: C2*_27  and  O2*_29
REMARK                            x       y       z     vdW  Elec       q    Type
REMARK                         _______ _______ _______ _____ _____    ______ ____
ROOT
ATOM      1  C   UNL     1      10.245   2.947  23.599  0.00  0.00    +0.075 A 
ATOM      2  C   UNL     1      10.554   1.868  22.748  0.00  0.00    +0.148 A 
ATOM      3  N   UNL     1       9.997   0.717  23.134  0.00  0.00    -0.171 NA
ATOM      4  N   UNL     1       9.283   1.050  24.245  0.00  0.00    -0.205 N 
ATOM      5  C   UNL     1       8.492   0.072  24.949  0.00  0.00    +0.255 A 
ATOM      6  N   UNL     1       7.787   0.493  26.034  0.00  0.00    -0.194 NA
ATOM      7  C   UNL     1       7.003  -0.395  26.692  0.00  0.00    +0.149 A 
ATOM      8  N   UNL     1       6.272   0.050  27.783  0.00  0.00    -0.341 N 
ATOM      9  H   UNL     1       6.643   0.890  28.203  0.00  0.00    +0.144 HD
ATOM     10  H   UNL     1       5.966  -0.692  28.404  0.00  0.00    +0.144 HD
ATOM     11  C   UNL     1       6.969  -1.724  26.242  0.00  0.00    +0.147 A 
ATOM     12  N   UNL     1       6.324  -2.852  26.701  0.00  0.00    -0.231 NA
ATOM     13  C   UNL     1       6.681  -3.806  25.866  0.00  0.00    +0.203 A 
ATOM     14  N   UNL     1       7.517  -3.342  24.879  0.00  0.00    -0.285 N 
ATOM     15  C   UNL     1       7.730  -2.021  25.128  0.00  0.00    +0.170 A 
ATOM     16  N   UNL     1       8.519  -1.186  24.448  0.00  0.00    -0.191 NA
ATOM     17  C   UNL     1       9.424   2.385  24.560  0.00  0.00    +0.130 A 
ENDROOT
BRANCH   1  21
ATOM     18  C   UNL     1      12.593   5.765  22.884  0.00  0.00    +0.128 C 
ATOM     19  N   UNL     1      12.020   4.459  23.059  0.00  0.00    -0.314 N 
ATOM     20  H   UNL     1      12.597   3.645  22.916  0.00  0.00    +0.149 HD
ATOM     21  C   UNL     1      10.707   4.312  23.444  0.00  0.00    +0.247 C 
ATOM     22  O   UNL     1       9.958   5.268  23.644  0.00  0.00    -0.270 OA
ENDBRANCH   1  21
BRANCH  14  23
ATOM     23  C1* UNL     1       8.050  -4.165  23.820  0.00  0.00    +0.253 C 
ATOM     24  C2* UNL     1       7.615  -5.631  23.652  0.00  0.00    +0.195 C 
ATOM     25  C3* UNL     1       6.434  -5.564  22.687  0.00  0.00    +0.178 C 
ATOM     26  C4* UNL     1       6.538  -4.185  22.034  0.00  0.00    +0.177 C 
ATOM     27  O4* UNL     1       7.711  -3.525  22.572  0.00  0.00    -0.346 OA
BRANCH  24  28
ATOM     28  O2* UNL     1       8.667  -6.419  23.040  0.00  0.00    -0.385 OA
ATOM     29  H2* UNL     1       8.480  -6.515  22.088  0.00  0.00    +0.210 HD
ENDBRANCH  24  28
BRANCH  25  30
ATOM     30  O3* UNL     1       6.507  -6.578  21.682  0.00  0.00    -0.386 OA
ATOM     31  H3* UNL     1       7.223  -7.189  21.954  0.00  0.00    +0.210 HD
ENDBRANCH  25  30
BRANCH  26  32
ATOM     32  C5* UNL     1       5.290  -3.332  22.314  0.00  0.00    +0.190 C 
BRANCH  32  33
ATOM     33  O5* UNL     1       4.239  -4.138  22.838  0.00  0.00    -0.392 OA
ATOM     34  H5* UNL     1       3.488  -3.543  23.014  0.00  0.00    +0.210 HD
ENDBRANCH  32  33
ENDBRANCH  26  32
ENDBRANCH  14  23
TORSDOF 6
ENDMDL
MODEL 8
REMARK VINA RESULT:      -6.6      3.293      7.611
REMARK  Name = 
REMARK  7 active torsions:
REMARK  status: ('A' for Active; 'I' for Inactive)
REMARK    1  A    between atoms: C_1  and  N_2
REMARK    2  A    between atoms: C_3  and  C_5
REMARK    3  A    between atoms: N_16  and  C1*_17
REMARK    4  A    between atoms: C4*_20  and  C5*_22
REMARK    5  A    between atoms: C5*_22  and  O5*_23
REMARK    6  A    between atoms: C3*_24  and  O3*_26
REMARK    7  A    between atoms: C2*_27  and  O2*_29
REMARK                            x       y       z     vdW  Elec       q    Type
REMARK                         _______ _______ _______ _____ _____    ______ ____
ROOT
ATOM      1  C   UNL     1       3.445  -5.306  23.449  0.00  0.00    +0.075 A 
ATOM      2  C   UNL     1       4.773  -5.432  22.996  0.00  0.00    +0.148 A 
ATOM      3  N   UNL     1       5.564  -4.434  23.400  0.00  0.00    -0.171 NA
ATOM      4  N   UNL     1       4.748  -3.650  24.157  0.00  0.00    -0.205 N 
ATOM      5  C   UNL     1       5.244  -2.469  24.817  0.00  0.00    +0.255 A 
ATOM      6  N   UNL     1       4.369  -1.755  25.577  0.00  0.00    -0.194 NA
ATOM      7  C   UNL     1       4.817  -0.662  26.242  0.00  0.00    +0.149 A 
ATOM      8  N   UNL     1       3.922   0.044  27.031  0.00  0.00    -0.341 N 
ATOM      9  H   UNL     1       2.956  -0.101  26.776  0.00  0.00    +0.144 HD
ATOM     10  H   UNL     1       4.217   0.992  27.240  0.00  0.00    +0.144 HD
ATOM     11  C   UNL     1       6.163  -0.293  26.098  0.00  0.00    +0.147 A 
ATOM     12  N   UNL     1       6.903   0.760  26.592  0.00  0.00    -0.231 NA
ATOM     13  C   UNL     1       8.114   0.574  26.108  0.00  0.00    +0.203 A 
ATOM     14  N   UNL     1       8.194  -0.560  25.335  0.00  0.00    -0.285 N 
ATOM     15  C   UNL     1       6.946  -1.103  25.298  0.00  0.00    +0.170 A 
ATOM     16  N   UNL     1       6.554  -2.185  24.622  0.00  0.00    -0.191 NA
ATOM     17  C   UNL     1       3.460  -4.141  24.194  0.00  0.00    +0.130 A 
ENDROOT
BRANCH   1  21
ATOM     18  C   UNL     1       1.534  -8.517  23.395  0.00  0.00    +0.128 C 
ATOM     19  N   UNL     1       2.537  -7.514  23.622  0.00  0.00    -0.314 N 
ATOM     20  H   UNL     1       3.387  -7.767  24.103  0.00  0.00    +0.149 HD
ATOM     21  C   UNL     1       2.360  -6.226  23.170  0.00  0.00    +0.247 C 
ATOM     22  O   UNL     1       1.350  -5.862  22.569  0.00  0.00    -0.270 OA
ENDBRANCH   1  21
BRANCH  14  23
ATOM     23  C1* UNL     1       9.403  -1.015  24.692  0.00  0.00    +0.253 C 
ATOM     24  C2* UNL     1       9.355  -1.983  23.496  0.00  0.00    +0.195 C 
ATOM     25  C3* UNL     1       9.329  -1.068  22.274  0.00  0.00    +0.178 C 
ATOM     26  C4* UNL     1       9.797   0.293  22.792  0.00  0.00    +0.177 C 
ATOM     27  O4* UNL     1      10.092   0.155  24.204  0.00  0.00    -0.346 OA
BRANCH  24  28
ATOM     28  O2* UNL     1      10.554  -2.797  23.437  0.00  0.00    -0.385 OA
ATOM     29  H2* UNL     1      11.335  -2.215  23.471  0.00  0.00    +0.210 HD
ENDBRANCH  24  28
BRANCH  25  30
ATOM     30  O3* UNL     1      10.215  -1.521  21.248  0.00  0.00    -0.386 OA
ATOM     31  H3* UNL     1      10.919  -2.036  21.695  0.00  0.00    +0.210 HD
ENDBRANCH  25  30
BRANCH  26  32
ATOM     32  C5* UNL     1       8.721   1.373  22.592  0.00  0.00    +0.190 C 
BRANCH  32  33
ATOM     33  O5* UNL     1       9.072   2.238  21.516  0.00  0.00    -0.392 OA
ATOM     34  H5* UNL     1       9.893   2.694  21.776  0.00  0.00    +0.210 HD
ENDBRANCH  32  33
ENDBRANCH  26  32
ENDBRANCH  14  23
TORSDOF 6
ENDMDL
MODEL 9
REMARK VINA RESULT:      -6.6      2.837      8.385
REMARK  Name = 
REMARK  7 active torsions:
REMARK  status: ('A' for Active; 'I' for Inactive)
REMARK    1  A    between atoms: C_1  and  N_2
REMARK    2  A    between atoms: C_3  and  C_5
REMARK    3  A    between atoms: N_16  and  C1*_17
REMARK    4  A    between atoms: C4*_20  and  C5*_22
REMARK    5  A    between atoms: C5*_22  and  O5*_23
REMARK    6  A    between atoms: C3*_24  and  O3*_26
REMARK    7  A    between atoms: C2*_27  and  O2*_29
REMARK                            x       y       z     vdW  Elec       q    Type
REMARK                         _______ _______ _______ _____ _____    ______ ____
ROOT
ATOM      1  C   UNL     1       6.642  -3.920  26.111  0.00  0.00    +0.075 A 
ATOM      2  C   UNL     1       6.301  -2.784  26.870  0.00  0.00    +0.148 A 
ATOM      3  N   UNL     1       6.827  -1.654  26.389  0.00  0.00    -0.171 NA
ATOM      4  N   UNL     1       7.503  -2.049  25.275  0.00  0.00    -0.205 N 
ATOM      5  C   UNL     1       8.190  -1.099  24.437  0.00  0.00    +0.255 A 
ATOM      6  N   UNL     1       8.819  -1.573  23.328  0.00  0.00    -0.194 NA
ATOM      7  C   UNL     1       9.439  -0.699  22.500  0.00  0.00    +0.149 A 
ATOM      8  N   UNL     1      10.058  -1.191  21.361  0.00  0.00    -0.341 N 
ATOM      9  H   UNL     1      10.294  -2.171  21.421  0.00  0.00    +0.144 HD
ATOM     10  H   UNL     1      10.748  -0.563  20.963  0.00  0.00    +0.144 HD
ATOM     11  C   UNL     1       9.430   0.665  22.834  0.00  0.00    +0.147 A 
ATOM     12  N   UNL     1       9.987   1.777  22.242  0.00  0.00    -0.231 NA
ATOM     13  C   UNL     1       9.638   2.781  23.020  0.00  0.00    +0.203 A 
ATOM     14  N   UNL     1       8.867   2.369  24.081  0.00  0.00    -0.285 N 
ATOM     15  C   UNL     1       8.754   1.015  23.987  0.00  0.00    +0.170 A 
ATOM     16  N   UNL     1       8.132   0.194  24.836  0.00  0.00    -0.191 NA
ATOM     17  C   UNL     1       7.424  -3.413  25.089  0.00  0.00    +0.130 A 
ENDROOT
BRANCH   1  21
ATOM     18  C   UNL     1       4.527  -7.000  26.019  0.00  0.00    +0.128 C 
ATOM     19  N   UNL     1       5.043  -5.676  25.808  0.00  0.00    -0.314 N 
ATOM     20  H   UNL     1       4.517  -5.026  25.245  0.00  0.00    +0.149 HD
ATOM     21  C   UNL     1       6.229  -5.282  26.387  0.00  0.00    +0.247 C 
ATOM     22  O   UNL     1       6.908  -6.028  27.092  0.00  0.00    -0.270 OA
ENDBRANCH   1  21
BRANCH  14  23
ATOM     23  C1* UNL     1       8.331   3.258  25.083  0.00  0.00    +0.253 C 
ATOM     24  C2* UNL     1       8.605   4.772  25.037  0.00  0.00    +0.195 C 
ATOM     25  C3* UNL     1       7.433   5.341  24.241  0.00  0.00    +0.178 C 
ATOM     26  C4* UNL     1       6.372   4.240  24.263  0.00  0.00    +0.177 C 
ATOM     27  O4* UNL     1       6.894   3.133  25.038  0.00  0.00    -0.346 OA
BRANCH  24  28
ATOM     28  O2* UNL     1       8.582   5.346  26.368  0.00  0.00    -0.385 OA
ATOM     29  H2* UNL     1       9.344   5.944  26.470  0.00  0.00    +0.210 HD
ENDBRANCH  24  28
BRANCH  25  30
ATOM     30  O3* UNL     1       6.907   6.527  24.840  0.00  0.00    -0.386 OA
ATOM     31  H3* UNL     1       6.009   6.652  24.469  0.00  0.00    +0.210 HD
ENDBRANCH  25  30
BRANCH  26  32
ATOM     32  C5* UNL     1       6.027   3.761  22.844  0.00  0.00    +0.190 C 
BRANCH  32  33
ATOM     33  O5* UNL     1       6.744   4.514  21.871  0.00  0.00    -0.392 OA
ATOM     34  H5* UNL     1       6.421   5.432  21.930  0.00  0.00    +0.210 HD
ENDBRANCH  32  33
ENDBRANCH  26  32
ENDBRANCH  14  23
TORSDOF 6
ENDMDL
