MODEL 1
REMARK VINA RESULT:      -6.6      0.000      0.000
REMARK  Name = 
REMARK  8 active torsions:
REMARK  status: ('A' for Active; 'I' for Inactive)
REMARK    1  A    between atoms: C_1  and  O_2
REMARK    2  A    between atoms: O_2  and  C_3
REMARK    3  A    between atoms: N_9  and  C_10
REMARK    4  A    between atoms: C_10  and  C_11
REMARK    5  A    between atoms: C_17  and  C_18
REMARK    6  A    between atoms: C_19  and  C_20
REMARK    7  A    between atoms: C_20  and  C_21
REMARK    8  A    between atoms: C_21  and  O_22
REMARK                            x       y       z     vdW  Elec       q    Type
REMARK                         _______ _______ _______ _____ _____    ______ ____
ROOT
ATOM      1  C   UNL     1       6.261  -5.801  26.623  0.00  0.00    +0.121 A 
ATOM      2  C   UNL     1       7.181  -4.996  27.287  0.00  0.00    +0.047 A 
ATOM      3  C   UNL     1       7.892  -3.995  26.615  0.00  0.00    +0.030 A 
ATOM      4  C   UNL     1       7.633  -3.808  25.248  0.00  0.00    +0.050 A 
ATOM      5  N   UNL     1       8.236  -2.991  24.309  0.00  0.00    -0.339 N 
ATOM      6  C   UNL     1       7.541  -3.057  23.115  0.00  0.00    +0.021 A 
ATOM      7  C   UNL     1       6.546  -4.022  23.254  0.00  0.00    -0.008 A 
ATOM      8  C   UNL     1       7.891  -2.242  21.913  0.00  0.00    +0.064 C 
ATOM      9  C   UNL     1       6.654  -4.541  24.581  0.00  0.00    +0.007 A 
ATOM     10  C   UNL     1       5.971  -5.562  25.276  0.00  0.00    +0.056 A 
ENDROOT
BRANCH   1  12
ATOM     11  C   UNL     1       5.809  -6.611  28.792  0.00  0.00    +0.277 C 
ATOM     12  O   UNL     1       5.666  -6.771  27.383  0.00  0.00    -0.495 OA
ENDBRANCH   1  12
BRANCH   7  13
ATOM     13  C   UNL     1       5.594  -4.498  22.190  0.00  0.00    +0.157 C 
BRANCH  13  14
ATOM     14  C   UNL     1       6.018  -5.686  21.346  0.00  0.00    +0.309 C 
ATOM     15  O   UNL     1       6.007  -5.640  20.120  0.00  0.00    -0.251 OA
BRANCH  14  16
ATOM     16  O   UNL     1       6.386  -6.813  21.987  0.00  0.00    -0.480 OA
ATOM     17  H   UNL     1       6.419  -6.744  22.962  0.00  0.00    +0.295 HD
ENDBRANCH  14  16
ENDBRANCH  13  14
ENDBRANCH   7  13
BRANCH   5  18
ATOM     18  C   UNL     1       9.526  -2.325  24.524  0.00  0.00    +0.157 C 
BRANCH  18  19
ATOM     19  C   UNL     1       9.482  -0.816  24.582  0.00  0.00    -0.028 A 
ATOM     20  C   UNL     1      10.546  -0.105  23.997  0.00  0.00    +0.005 A 
ATOM     21  C   UNL     1      10.545   1.290  23.963  0.00  0.00    +0.000 A 
ATOM     22  C   UNL     1       9.484   1.997  24.521  0.00  0.00    +0.000 A 
ATOM     23  C   UNL     1       8.441   1.309  25.137  0.00  0.00    +0.000 A 
ATOM     24  C   UNL     1       8.443  -0.086  25.176  0.00  0.00    +0.005 A 
ENDBRANCH  18  19
ENDBRANCH   5  18
TORSDOF 6
ENDMDL
MODEL 2
REMARK VINA RESULT:      -6.6      1.508      4.364
REMARK  Name = 
REMARK  8 active torsions:
REMARK  status: ('A' for Active; 'I' for Inactive)
REMARK    1  A    between atoms: C_1  and  O_2
REMARK    2  A    between atoms: O_2  and  C_3
REMARK    3  A    between atoms: N_9  and  C_10
REMARK    4  A    between atoms: C_10  and  C_11
REMARK    5  A    between atoms: C_17  and  C_18
REMARK    6  A    between atoms: C_19  and  C_20
REMARK    7  A    between atoms: C_20  and  C_21
REMARK    8  A    between atoms: C_21  and  O_22
REMARK                            x       y       z     vdW  Elec       q    Type
REMARK                         _______ _______ _______ _____ _____    ______ ____
ROOT
ATOM      1  C   UNL     1       5.941  -4.513  22.566  0.00  0.00    +0.121 A 
ATOM      2  C   UNL     1       5.894  -3.283  21.916  0.00  0.00    +0.047 A 
ATOM      3  C   UNL     1       6.410  -2.126  22.510  0.00  0.00    +0.030 A 
ATOM      4  C   UNL     1       7.002  -2.244  23.778  0.00  0.00    +0.050 A 
ATOM      5  N   UNL     1       7.494  -1.288  24.647  0.00  0.00    -0.339 N 
ATOM      6  C   UNL     1       8.104  -1.904  25.726  0.00  0.00    +0.021 A 
ATOM      7  C   UNL     1       7.895  -3.276  25.606  0.00  0.00    -0.008 A 
ATOM      8  C   UNL     1       8.798  -1.156  26.817  0.00  0.00    +0.064 C 
ATOM      9  C   UNL     1       7.140  -3.478  24.410  0.00  0.00    +0.007 A 
ATOM     10  C   UNL     1       6.587  -4.625  23.800  0.00  0.00    +0.056 A 
ENDROOT
BRANCH   1  12
ATOM     11  C   UNL     1       6.056  -5.989  20.728  0.00  0.00    +0.277 C 
ATOM     12  O   UNL     1       5.362  -5.558  21.896  0.00  0.00    -0.495 OA
ENDBRANCH   1  12
BRANCH   7  13
ATOM     13  C   UNL     1       8.305  -4.342  26.587  0.00  0.00    +0.157 C 
BRANCH  13  14
ATOM     14  C   UNL     1       7.213  -4.992  27.416  0.00  0.00    +0.309 C 
ATOM     15  O   UNL     1       6.145  -4.427  27.630  0.00  0.00    -0.251 OA
BRANCH  14  16
ATOM     16  O   UNL     1       7.462  -6.210  27.938  0.00  0.00    -0.480 OA
ATOM     17  H   UNL     1       6.672  -6.701  28.237  0.00  0.00    +0.295 HD
ENDBRANCH  14  16
ENDBRANCH  13  14
ENDBRANCH   7  13
BRANCH   5  18
ATOM     18  C   UNL     1       7.220   0.148  24.512  0.00  0.00    +0.157 C 
BRANCH  18  19
ATOM     19  C   UNL     1       8.285   0.954  23.807  0.00  0.00    -0.028 A 
ATOM     20  C   UNL     1       8.975   1.926  24.554  0.00  0.00    +0.005 A 
ATOM     21  C   UNL     1      10.010   2.669  23.983  0.00  0.00    +0.000 A 
ATOM     22  C   UNL     1      10.364   2.458  22.653  0.00  0.00    +0.000 A 
ATOM     23  C   UNL     1       9.666   1.526  21.889  0.00  0.00    +0.000 A 
ATOM     24  C   UNL     1       8.627   0.785  22.458  0.00  0.00    +0.005 A 
ENDBRANCH  18  19
ENDBRANCH   5  18
TORSDOF 6
ENDMDL
MODEL 3
REMARK VINA RESULT:      -6.5      1.710      2.143
REMARK  Name = 
REMARK  8 active torsions:
REMARK  status: ('A' for Active; 'I' for Inactive)
REMARK    1  A    between atoms: C_1  and  O_2
REMARK    2  A    between atoms: O_2  and  C_3
REMARK    3  A    between atoms: N_9  and  C_10
REMARK    4  A    between atoms: C_10  and  C_11
REMARK    5  A    between atoms: C_17  and  C_18
REMARK    6  A    between atoms: C_19  and  C_20
REMARK    7  A    between atoms: C_20  and  C_21
REMARK    8  A    between atoms: C_21  and  O_22
REMARK                            x       y       z     vdW  Elec       q    Type
REMARK                         _______ _______ _______ _____ _____    ______ ____
ROOT
ATOM      1  C   UNL     1       7.271  -5.426  27.128  0.00  0.00    +0.121 A 
ATOM      2  C   UNL     1       8.502  -4.847  26.835  0.00  0.00    +0.047 A 
ATOM      3  C   UNL     1       8.704  -4.123  25.655  0.00  0.00    +0.030 A 
ATOM      4  C   UNL     1       7.616  -3.974  24.780  0.00  0.00    +0.050 A 
ATOM      5  N   UNL     1       7.532  -3.417  23.517  0.00  0.00    -0.339 N 
ATOM      6  C   UNL     1       6.211  -3.383  23.106  0.00  0.00    +0.021 A 
ATOM      7  C   UNL     1       5.449  -4.038  24.071  0.00  0.00    -0.008 A 
ATOM      8  C   UNL     1       5.766  -2.781  21.813  0.00  0.00    +0.064 C 
ATOM      9  C   UNL     1       6.351  -4.468  25.091  0.00  0.00    +0.007 A 
ATOM     10  C   UNL     1       6.183  -5.218  26.275  0.00  0.00    +0.056 A 
ENDROOT
BRANCH   1  12
ATOM     11  C   UNL     1       5.952  -6.145  28.947  0.00  0.00    +0.277 C 
ATOM     12  O   UNL     1       7.217  -6.146  28.291  0.00  0.00    -0.495 OA
ENDBRANCH   1  12
BRANCH   7  13
ATOM     13  C   UNL     1       3.971  -4.321  24.017  0.00  0.00    +0.157 C 
BRANCH  13  14
ATOM     14  C   UNL     1       3.521  -5.569  23.280  0.00  0.00    +0.309 C 
ATOM     15  O   UNL     1       2.431  -5.626  22.719  0.00  0.00    -0.251 OA
BRANCH  14  16
ATOM     16  O   UNL     1       4.348  -6.633  23.282  0.00  0.00    -0.480 OA
ATOM     17  H   UNL     1       5.259  -6.449  23.585  0.00  0.00    +0.295 HD
ENDBRANCH  14  16
ENDBRANCH  13  14
ENDBRANCH   7  13
BRANCH   5  18
ATOM     18  C   UNL     1       8.703  -3.102  22.690  0.00  0.00    +0.157 C 
BRANCH  18  19
ATOM     19  C   UNL     1       9.154  -1.661  22.715  0.00  0.00    -0.028 A 
ATOM     20  C   UNL     1       9.703  -1.164  23.911  0.00  0.00    +0.005 A 
ATOM     21  C   UNL     1      10.192   0.141  23.990  0.00  0.00    +0.000 A 
ATOM     22  C   UNL     1      10.131   0.973  22.875  0.00  0.00    +0.000 A 
ATOM     23  C   UNL     1       9.557   0.509  21.694  0.00  0.00    +0.000 A 
ATOM     24  C   UNL     1       9.062  -0.794  21.616  0.00  0.00    +0.005 A 
ENDBRANCH  18  19
ENDBRANCH   5  18
TORSDOF 6
ENDMDL
MODEL 4
REMARK VINA RESULT:      -6.4      1.922      4.133
REMARK  Name = 
REMARK  8 active torsions:
REMARK  status: ('A' for Active; 'I' for Inactive)
REMARK    1  A    between atoms: C_1  and  O_2
REMARK    2  A    between atoms: O_2  and  C_3
REMARK    3  A    between atoms: N_9  and  C_10
REMARK    4  A    between atoms: C_10  and  C_11
REMARK    5  A    between atoms: C_17  and  C_18
REMARK    6  A    between atoms: C_19  and  C_20
REMARK    7  A    between atoms: C_20  and  C_21
REMARK    8  A    between atoms: C_21  and  O_22
REMARK                            x       y       z     vdW  Elec       q    Type
REMARK                         _______ _______ _______ _____ _____    ______ ____
ROOT
ATOM      1  C   UNL     1       5.119  -5.397  22.660  0.00  0.00    +0.121 A 
ATOM      2  C   UNL     1       6.029  -5.098  21.651  0.00  0.00    +0.047 A 
ATOM      3  C   UNL     1       7.158  -4.310  21.899  0.00  0.00    +0.030 A 
ATOM      4  C   UNL     1       7.363  -3.846  23.208  0.00  0.00    +0.050 A 
ATOM      5  N   UNL     1       8.306  -2.982  23.732  0.00  0.00    -0.339 N 
ATOM      6  C   UNL     1       8.186  -2.934  25.110  0.00  0.00    +0.021 A 
ATOM      7  C   UNL     1       7.070  -3.689  25.465  0.00  0.00    -0.008 A 
ATOM      8  C   UNL     1       9.098  -2.144  25.989  0.00  0.00    +0.064 C 
ATOM      9  C   UNL     1       6.516  -4.205  24.254  0.00  0.00    +0.007 A 
ATOM     10  C   UNL     1       5.369  -4.979  23.970  0.00  0.00    +0.056 A 
ENDROOT
BRANCH   1  12
ATOM     11  C   UNL     1       2.879  -5.993  23.100  0.00  0.00    +0.277 C 
ATOM     12  O   UNL     1       4.034  -6.139  22.278  0.00  0.00    -0.495 OA
ENDBRANCH   1  12
BRANCH   7  13
ATOM     13  C   UNL     1       6.498  -3.861  26.846  0.00  0.00    +0.157 C 
BRANCH  13  14
ATOM     14  C   UNL     1       6.907  -5.095  27.629  0.00  0.00    +0.309 C 
ATOM     15  O   UNL     1       6.372  -5.388  28.693  0.00  0.00    -0.251 OA
BRANCH  14  16
ATOM     16  O   UNL     1       7.902  -5.855  27.129  0.00  0.00    -0.480 OA
ATOM     17  H   UNL     1       7.728  -6.816  27.127  0.00  0.00    +0.295 HD
ENDBRANCH  14  16
ENDBRANCH  13  14
ENDBRANCH   7  13
BRANCH   5  18
ATOM     18  C   UNL     1       9.158  -2.116  22.908  0.00  0.00    +0.157 C 
BRANCH  18  19
ATOM     19  C   UNL     1       8.600  -0.745  22.604  0.00  0.00    -0.028 A 
ATOM     20  C   UNL     1       9.400   0.139  21.858  0.00  0.00    +0.005 A 
ATOM     21  C   UNL     1       8.927   1.401  21.492  0.00  0.00    +0.000 A 
ATOM     22  C   UNL     1       7.650   1.801  21.876  0.00  0.00    +0.000 A 
ATOM     23  C   UNL     1       6.860   0.952  22.647  0.00  0.00    +0.000 A 
ATOM     24  C   UNL     1       7.334  -0.308  23.018  0.00  0.00    +0.005 A 
ENDBRANCH  18  19
ENDBRANCH   5  18
TORSDOF 6
ENDMDL
MODEL 5
REMARK VINA RESULT:      -6.3      2.687      4.184
REMARK  Name = 
REMARK  8 active torsions:
REMARK  status: ('A' for Active; 'I' for Inactive)
REMARK    1  A    between atoms: C_1  and  O_2
REMARK    2  A    between atoms: O_2  and  C_3
REMARK    3  A    between atoms: N_9  and  C_10
REMARK    4  A    between atoms: C_10  and  C_11
REMARK    5  A    between atoms: C_17  and  C_18
REMARK    6  A    between atoms: C_19  and  C_20
REMARK    7  A    between atoms: C_20  and  C_21
REMARK    8  A    between atoms: C_21  and  O_22
REMARK                            x       y       z     vdW  Elec       q    Type
REMARK                         _______ _______ _______ _____ _____    ______ ____
ROOT
ATOM      1  C   UNL     1       5.252  -4.947  23.075  0.00  0.00    +0.121 A 
ATOM      2  C   UNL     1       6.503  -5.226  22.533  0.00  0.00    +0.047 A 
ATOM      3  C   UNL     1       7.659  -4.599  23.011  0.00  0.00    +0.030 A 
ATOM      4  C   UNL     1       7.525  -3.693  24.075  0.00  0.00    +0.050 A 
ATOM      5  N   UNL     1       8.445  -2.857  24.681  0.00  0.00    -0.339 N 
ATOM      6  C   UNL     1       7.869  -2.245  25.781  0.00  0.00    +0.021 A 
ATOM      7  C   UNL     1       6.524  -2.604  25.811  0.00  0.00    -0.008 A 
ATOM      8  C   UNL     1       8.613  -1.330  26.698  0.00  0.00    +0.064 C 
ATOM      9  C   UNL     1       6.298  -3.463  24.692  0.00  0.00    +0.007 A 
ATOM     10  C   UNL     1       5.144  -4.088  24.173  0.00  0.00    +0.056 A 
ENDROOT
BRANCH   1  12
ATOM     11  C   UNL     1       3.038  -5.729  23.308  0.00  0.00    +0.277 C 
ATOM     12  O   UNL     1       4.196  -5.592  22.489  0.00  0.00    -0.495 OA
ENDBRANCH   1  12
BRANCH   7  13
ATOM     13  C   UNL     1       5.479  -2.117  26.780  0.00  0.00    +0.157 C 
BRANCH  13  14
ATOM     14  C   UNL     1       4.479  -1.092  26.278  0.00  0.00    +0.309 C 
ATOM     15  O   UNL     1       4.835  -0.095  25.658  0.00  0.00    -0.251 OA
BRANCH  14  16
ATOM     16  O   UNL     1       3.175  -1.297  26.558  0.00  0.00    -0.480 OA
ATOM     17  H   UNL     1       2.551  -0.736  26.057  0.00  0.00    +0.295 HD
ENDBRANCH  14  16
ENDBRANCH  13  14
ENDBRANCH   7  13
BRANCH   5  18
ATOM     18  C   UNL     1       9.757  -2.542  24.104  0.00  0.00    +0.157 C 
BRANCH  18  19
ATOM     19  C   UNL     1       9.848  -1.230  23.361  0.00  0.00    -0.028 A 
ATOM     20  C   UNL     1       9.364  -1.187  22.041  0.00  0.00    +0.005 A 
ATOM     21  C   UNL     1       9.365   0.004  21.314  0.00  0.00    +0.000 A 
ATOM     22  C   UNL     1       9.858   1.170  21.893  0.00  0.00    +0.000 A 
ATOM     23  C   UNL     1      10.375   1.137  23.186  0.00  0.00    +0.000 A 
ATOM     24  C   UNL     1      10.380  -0.055  23.912  0.00  0.00    +0.005 A 
ENDBRANCH  18  19
ENDBRANCH   5  18
TORSDOF 6
ENDMDL
MODEL 6
REMARK VINA RESULT:      -6.1      3.551      6.375
REMARK  Name = 
REMARK  8 active torsions:
REMARK  status: ('A' for Active; 'I' for Inactive)
REMARK    1  A    between atoms: C_1  and  O_2
REMARK    2  A    between atoms: O_2  and  C_3
REMARK    3  A    between atoms: N_9  and  C_10
REMARK    4  A    between atoms: C_10  and  C_11
REMARK    5  A    between atoms: C_17  and  C_18
REMARK    6  A    between atoms: C_19  and  C_20
REMARK    7  A    between atoms: C_20  and  C_21
REMARK    8  A    between atoms: C_21  and  O_22
REMARK                            x       y       z     vdW  Elec       q    Type
REMARK                         _______ _______ _______ _____ _____    ______ ____
ROOT
ATOM      1  C   UNL     1       5.809   1.459  25.270  0.00  0.00    +0.121 A 
ATOM      2  C   UNL     1       5.269   0.326  25.872  0.00  0.00    +0.047 A 
ATOM      3  C   UNL     1       5.903  -0.919  25.780  0.00  0.00    +0.030 A 
ATOM      4  C   UNL     1       7.119  -0.989  25.081  0.00  0.00    +0.050 A 
ATOM      5  N   UNL     1       7.911  -2.068  24.736  0.00  0.00    -0.339 N 
ATOM      6  C   UNL     1       9.088  -1.622  24.161  0.00  0.00    +0.021 A 
ATOM      7  C   UNL     1       8.997  -0.239  24.026  0.00  0.00    -0.008 A 
ATOM      8  C   UNL     1      10.193  -2.532  23.735  0.00  0.00    +0.064 C 
ATOM      9  C   UNL     1       7.724   0.147  24.546  0.00  0.00    +0.007 A 
ATOM     10  C   UNL     1       7.049   1.384  24.630  0.00  0.00    +0.056 A 
ENDROOT
BRANCH   1  12
ATOM     11  C   UNL     1       4.066   2.571  26.407  0.00  0.00    +0.277 C 
ATOM     12  O   UNL     1       5.069   2.604  25.395  0.00  0.00    -0.495 OA
ENDBRANCH   1  12
BRANCH   7  13
ATOM     13  C   UNL     1      10.003   0.674  23.378  0.00  0.00    +0.157 C 
BRANCH  13  14
ATOM     14  C   UNL     1       9.821   0.990  21.905  0.00  0.00    +0.309 C 
ATOM     15  O   UNL     1       9.423   0.144  21.110  0.00  0.00    -0.251 OA
BRANCH  14  16
ATOM     16  O   UNL     1      10.134   2.233  21.485  0.00  0.00    -0.480 OA
ATOM     17  H   UNL     1       9.844   2.449  20.578  0.00  0.00    +0.295 HD
ENDBRANCH  14  16
ENDBRANCH  13  14
ENDBRANCH   7  13
BRANCH   5  18
ATOM     18  C   UNL     1       7.456  -3.462  24.806  0.00  0.00    +0.157 C 
BRANCH  18  19
ATOM     19  C   UNL     1       7.079  -4.095  23.487  0.00  0.00    -0.028 A 
ATOM     20  C   UNL     1       7.550  -5.394  23.223  0.00  0.00    +0.005 A 
ATOM     21  C   UNL     1       7.195  -6.062  22.049  0.00  0.00    +0.000 A 
ATOM     22  C   UNL     1       6.371  -5.437  21.117  0.00  0.00    +0.000 A 
ATOM     23  C   UNL     1       5.927  -4.137  21.346  0.00  0.00    +0.000 A 
ATOM     24  C   UNL     1       6.286  -3.466  22.517  0.00  0.00    +0.005 A 
ENDBRANCH  18  19
ENDBRANCH   5  18
TORSDOF 6
ENDMDL
MODEL 7
REMARK VINA RESULT:      -6.0      2.306      4.813
REMARK  Name = 
REMARK  8 active torsions:
REMARK  status: ('A' for Active; 'I' for Inactive)
REMARK    1  A    between atoms: C_1  and  O_2
REMARK    2  A    between atoms: O_2  and  C_3
REMARK    3  A    between atoms: N_9  and  C_10
REMARK    4  A    between atoms: C_10  and  C_11
REMARK    5  A    between atoms: C_17  and  C_18
REMARK    6  A    between atoms: C_19  and  C_20
REMARK    7  A    between atoms: C_20  and  C_21
REMARK    8  A    between atoms: C_21  and  O_22
REMARK                            x       y       z     vdW  Elec       q    Type
REMARK                         _______ _______ _______ _____ _____    ______ ____
ROOT
ATOM      1  C   UNL     1       2.950  -5.876  24.258  0.00  0.00    +0.121 A 
ATOM      2  C   UNL     1       3.684  -5.936  23.077  0.00  0.00    +0.047 A 
ATOM      3  C   UNL     1       5.072  -5.758  23.073  0.00  0.00    +0.030 A 
ATOM      4  C   UNL     1       5.712  -5.541  24.304  0.00  0.00    +0.050 A 
ATOM      5  N   UNL     1       7.026  -5.233  24.607  0.00  0.00    -0.339 N 
ATOM      6  C   UNL     1       7.206  -5.246  25.979  0.00  0.00    +0.021 A 
ATOM      7  C   UNL     1       5.961  -5.448  26.570  0.00  0.00    -0.008 A 
ATOM      8  C   UNL     1       8.528  -5.019  26.637  0.00  0.00    +0.064 C 
ATOM      9  C   UNL     1       5.012  -5.565  25.509  0.00  0.00    +0.007 A 
ATOM     10  C   UNL     1       3.609  -5.720  25.481  0.00  0.00    +0.056 A 
ENDROOT
BRANCH   1  12
ATOM     11  C   UNL     1       0.821  -4.893  24.515  0.00  0.00    +0.277 C 
ATOM     12  O   UNL     1       1.596  -6.022  24.121  0.00  0.00    -0.495 OA
ENDBRANCH   1  12
BRANCH   7  13
ATOM     13  C   UNL     1       5.650  -5.455  28.042  0.00  0.00    +0.157 C 
BRANCH  13  14
ATOM     14  C   UNL     1       5.609  -6.799  28.747  0.00  0.00    +0.309 C 
ATOM     15  O   UNL     1       6.612  -7.288  29.258  0.00  0.00    -0.251 OA
BRANCH  14  16
ATOM     16  O   UNL     1       4.434  -7.459  28.773  0.00  0.00    -0.480 OA
ATOM     17  H   UNL     1       3.799  -7.148  29.448  0.00  0.00    +0.295 HD
ENDBRANCH  14  16
ENDBRANCH  13  14
ENDBRANCH   7  13
BRANCH   5  18
ATOM     18  C   UNL     1       8.002  -4.777  23.610  0.00  0.00    +0.157 C 
BRANCH  18  19
ATOM     19  C   UNL     1       8.270  -3.291  23.589  0.00  0.00    -0.028 A 
ATOM     20  C   UNL     1       7.216  -2.437  23.213  0.00  0.00    +0.005 A 
ATOM     21  C   UNL     1       7.375  -1.051  23.225  0.00  0.00    +0.000 A 
ATOM     22  C   UNL     1       8.594  -0.495  23.604  0.00  0.00    +0.000 A 
ATOM     23  C   UNL     1       9.659  -1.327  23.943  0.00  0.00    +0.000 A 
ATOM     24  C   UNL     1       9.503  -2.714  23.927  0.00  0.00    +0.005 A 
ENDBRANCH  18  19
ENDBRANCH   5  18
TORSDOF 6
ENDMDL
MODEL 8
REMARK VINA RESULT:      -6.0      1.998      2.505
REMARK  Name = 
REMARK  8 active torsions:
REMARK  status: ('A' for Active; 'I' for Inactive)
REMARK    1  A    between atoms: C_1  and  O_2
REMARK    2  A    between atoms: O_2  and  C_3
REMARK    3  A    between atoms: N_9  and  C_10
REMARK    4  A    between atoms: C_10  and  C_11
REMARK    5  A    between atoms: C_17  and  C_18
REMARK    6  A    between atoms: C_19  and  C_20
REMARK    7  A    between atoms: C_20  and  C_21
REMARK    8  A    between atoms: C_21  and  O_22
REMARK                            x       y       z     vdW  Elec       q    Type
REMARK                         _______ _______ _______ _____ _____    ______ ____
ROOT
ATOM      1  C   UNL     1       5.152  -6.544  27.734  0.00  0.00    +0.121 A 
ATOM      2  C   UNL     1       6.269  -5.827  28.152  0.00  0.00    +0.047 A 
ATOM      3  C   UNL     1       7.104  -5.180  27.233  0.00  0.00    +0.030 A 
ATOM      4  C   UNL     1       6.768  -5.254  25.872  0.00  0.00    +0.050 A 
ATOM      5  N   UNL     1       7.437  -4.819  24.743  0.00  0.00    -0.339 N 
ATOM      6  C   UNL     1       6.640  -5.000  23.626  0.00  0.00    +0.021 A 
ATOM      7  C   UNL     1       5.489  -5.673  24.030  0.00  0.00    -0.008 A 
ATOM      8  C   UNL     1       7.039  -4.572  22.252  0.00  0.00    +0.064 C 
ATOM      9  C   UNL     1       5.608  -5.891  25.437  0.00  0.00    +0.007 A 
ATOM     10  C   UNL     1       4.798  -6.558  26.382  0.00  0.00    +0.056 A 
ENDROOT
BRANCH   1  12
ATOM     11  C   UNL     1       4.466  -6.511  29.992  0.00  0.00    +0.277 C 
ATOM     12  O   UNL     1       4.445  -7.167  28.726  0.00  0.00    -0.495 OA
ENDBRANCH   1  12
BRANCH   7  13
ATOM     13  C   UNL     1       4.371  -6.160  23.148  0.00  0.00    +0.157 C 
BRANCH  13  14
ATOM     14  C   UNL     1       3.004  -5.525  23.330  0.00  0.00    +0.309 C 
ATOM     15  O   UNL     1       2.858  -4.482  23.960  0.00  0.00    -0.251 OA
BRANCH  14  16
ATOM     16  O   UNL     1       1.941  -6.158  22.795  0.00  0.00    -0.480 OA
ATOM     17  H   UNL     1       2.151  -6.972  22.297  0.00  0.00    +0.295 HD
ENDBRANCH  14  16
ENDBRANCH  13  14
ENDBRANCH   7  13
BRANCH   5  18
ATOM     18  C   UNL     1       8.848  -4.414  24.743  0.00  0.00    +0.157 C 
BRANCH  18  19
ATOM     19  C   UNL     1       9.103  -2.928  24.839  0.00  0.00    -0.028 A 
ATOM     20  C   UNL     1       9.832  -2.318  23.802  0.00  0.00    +0.005 A 
ATOM     21  C   UNL     1      10.057  -0.940  23.796  0.00  0.00    +0.000 A 
ATOM     22  C   UNL     1       9.565  -0.153  24.833  0.00  0.00    +0.000 A 
ATOM     23  C   UNL     1       8.874  -0.746  25.887  0.00  0.00    +0.000 A 
ATOM     24  C   UNL     1       8.653  -2.125  25.896  0.00  0.00    +0.005 A 
ENDBRANCH  18  19
ENDBRANCH   5  18
TORSDOF 6
ENDMDL
MODEL 9
REMARK VINA RESULT:      -6.0      3.667      6.156
REMARK  Name = 
REMARK  8 active torsions:
REMARK  status: ('A' for Active; 'I' for Inactive)
REMARK    1  A    between atoms: C_1  and  O_2
REMARK    2  A    between atoms: O_2  and  C_3
REMARK    3  A    between atoms: N_9  and  C_10
REMARK    4  A    between atoms: C_10  and  C_11
REMARK    5  A    between atoms: C_17  and  C_18
REMARK    6  A    between atoms: C_19  and  C_20
REMARK    7  A    between atoms: C_20  and  C_21
REMARK    8  A    between atoms: C_21  and  O_22
REMARK                            x       y       z     vdW  Elec       q    Type
REMARK                         _______ _______ _______ _____ _____    ______ ____
ROOT
ATOM      1  C   UNL     1       7.147   1.047  26.952  0.00  0.00    +0.121 A 
ATOM      2  C   UNL     1       7.901   0.032  27.531  0.00  0.00    +0.047 A 
ATOM      3  C   UNL     1       8.568  -0.917  26.748  0.00  0.00    +0.030 A 
ATOM      4  C   UNL     1       8.476  -0.801  25.352  0.00  0.00    +0.050 A 
ATOM      5  N   UNL     1       8.926  -1.625  24.337  0.00  0.00    -0.339 N 
ATOM      6  C   UNL     1       8.713  -1.019  23.111  0.00  0.00    +0.021 A 
ATOM      7  C   UNL     1       8.007   0.160  23.337  0.00  0.00    -0.008 A 
ATOM      8  C   UNL     1       9.146  -1.616  21.812  0.00  0.00    +0.064 C 
ATOM      9  C   UNL     1       7.801   0.258  24.747  0.00  0.00    +0.007 A 
ATOM     10  C   UNL     1       7.115   1.185  25.561  0.00  0.00    +0.056 A 
ENDROOT
BRANCH   1  12
ATOM     11  C   UNL     1       6.989   1.841  29.168  0.00  0.00    +0.277 C 
ATOM     12  O   UNL     1       6.507   1.883  27.827  0.00  0.00    -0.495 OA
ENDBRANCH   1  12
BRANCH   7  13
ATOM     13  C   UNL     1       7.481   1.112  22.296  0.00  0.00    +0.157 C 
BRANCH  13  14
ATOM     14  C   UNL     1       8.291   2.363  22.013  0.00  0.00    +0.309 C 
ATOM     15  O   UNL     1       7.858   3.482  22.270  0.00  0.00    -0.251 OA
BRANCH  14  16
ATOM     16  O   UNL     1       9.503   2.211  21.441  0.00  0.00    -0.480 OA
ATOM     17  H   UNL     1       9.689   1.316  21.096  0.00  0.00    +0.295 HD
ENDBRANCH  14  16
ENDBRANCH  13  14
ENDBRANCH   7  13
BRANCH   5  18
ATOM     18  C   UNL     1       9.374  -3.006  24.553  0.00  0.00    +0.157 C 
BRANCH  18  19
ATOM     19  C   UNL     1       8.332  -3.956  25.093  0.00  0.00    -0.028 A 
ATOM     20  C   UNL     1       8.549  -4.516  26.366  0.00  0.00    +0.005 A 
ATOM     21  C   UNL     1       7.601  -5.358  26.951  0.00  0.00    +0.000 A 
ATOM     22  C   UNL     1       6.426  -5.661  26.268  0.00  0.00    +0.000 A 
ATOM     23  C   UNL     1       6.213  -5.145  24.992  0.00  0.00    +0.000 A 
ATOM     24  C   UNL     1       7.163  -4.307  24.403  0.00  0.00    +0.005 A 
ENDBRANCH  18  19
ENDBRANCH   5  18
TORSDOF 6
ENDMDL
