MODEL 1
REMARK VINA RESULT:      -6.5      0.000      0.000
REMARK  Name = 
REMARK  11 active torsions:
REMARK  status: ('A' for Active; 'I' for Inactive)
REMARK    1  A    between atoms: C_1  and  C_2
REMARK    2  A    between atoms: C_2  and  C_3
REMARK    3  A    between atoms: C_2  and  N_12
REMARK    4  A    between atoms: C_3  and  C_4
REMARK    5  A    between atoms: C_4  and  C_5
REMARK    6  A    between atoms: C_8  and  O_9
REMARK    7  A    between atoms: N_12  and  C_13
REMARK    8  A    between atoms: C_13  and  C_14
REMARK    9  A    between atoms: C_14  and  C_15
REMARK   10  A    between atoms: C_17  and  O_18
REMARK   11  A    between atoms: C_19  and  O_20
REMARK                            x       y       z     vdW  Elec       q    Type
REMARK                         _______ _______ _______ _____ _____    ______ ____
ROOT
ATOM      1  N   UNL     1       7.796  -4.261  27.092  0.00  0.00    -0.313 NA
ATOM      2  H   UNL     1       7.252  -3.396  27.074  0.00  0.00    +0.122 HD
ENDROOT
BRANCH   1   4
ATOM      3  C   UNL     1       9.166  -5.322  25.294  0.00  0.00    +0.024 C 
ATOM      4  C   UNL     1       8.967  -4.112  26.213  0.00  0.00    +0.051 C 
BRANCH   4   5
ATOM      5  C   UNL     1       8.817  -2.845  25.346  0.00  0.00    +0.023 C 
BRANCH   5   6
ATOM      6  C   UNL     1       9.251  -3.034  23.886  0.00  0.00    +0.036 C 
BRANCH   6   7
ATOM      7  C   UNL     1       9.551  -1.696  23.249  0.00  0.00    -0.047 A 
ATOM      8  C   UNL     1       9.170  -1.435  21.925  0.00  0.00    +0.007 A 
ATOM      9  C   UNL     1       9.366  -0.171  21.370  0.00  0.00    +0.045 A 
ATOM     10  C   UNL     1       9.937   0.837  22.137  0.00  0.00    +0.117 A 
ATOM     11  C   UNL     1      10.343   0.594  23.445  0.00  0.00    +0.045 A 
ATOM     12  C   UNL     1      10.150  -0.673  24.000  0.00  0.00    +0.007 A 
BRANCH  10  13
ATOM     13  O   UNL     1      10.071   2.071  21.570  0.00  0.00    -0.507 OA
ATOM     14  H   UNL     1       9.411   2.663  21.966  0.00  0.00    +0.292 HD
ENDBRANCH  10  13
ENDBRANCH   6   7
ENDBRANCH   5   6
ENDBRANCH   4   5
ENDBRANCH   1   4
BRANCH   1  15
ATOM     15  C   UNL     1       6.899  -5.378  26.756  0.00  0.00    +0.086 C 
BRANCH  15  16
ATOM     16  C   UNL     1       5.519  -4.942  26.240  0.00  0.00    +0.050 C 
BRANCH  16  17
ATOM     17  C   UNL     1       5.513  -4.648  24.759  0.00  0.00    -0.042 A 
ATOM     18  C   UNL     1       5.443  -3.316  24.310  0.00  0.00    +0.007 A 
ATOM     19  C   UNL     1       5.492  -3.020  22.947  0.00  0.00    +0.049 A 
ATOM     20  C   UNL     1       5.605  -4.057  22.036  0.00  0.00    +0.158 A 
ATOM     21  C   UNL     1       5.652  -5.383  22.465  0.00  0.00    +0.158 A 
ATOM     22  C   UNL     1       5.602  -5.689  23.821  0.00  0.00    +0.052 A 
BRANCH  20  23
ATOM     23  O   UNL     1       5.681  -3.769  20.703  0.00  0.00    -0.503 OA
ATOM     24  H   UNL     1       6.634  -3.619  20.542  0.00  0.00    +0.292 HD
ENDBRANCH  20  23
BRANCH  21  25
ATOM     25  O   UNL     1       5.761  -6.355  21.509  0.00  0.00    -0.503 OA
ATOM     26  H   UNL     1       6.222  -7.114  21.904  0.00  0.00    +0.292 HD
ENDBRANCH  21  25
ENDBRANCH  16  17
ENDBRANCH  15  16
ENDBRANCH   1  15
TORSDOF 10
ENDMDL
MODEL 2
REMARK VINA RESULT:      -6.3      2.494      3.863
REMARK  Name = 
REMARK  11 active torsions:
REMARK  status: ('A' for Active; 'I' for Inactive)
REMARK    1  A    between atoms: C_1  and  C_2
REMARK    2  A    between atoms: C_2  and  C_3
REMARK    3  A    between atoms: C_2  and  N_12
REMARK    4  A    between atoms: C_3  and  C_4
REMARK    5  A    between atoms: C_4  and  C_5
REMARK    6  A    between atoms: C_8  and  O_9
REMARK    7  A    between atoms: N_12  and  C_13
REMARK    8  A    between atoms: C_13  and  C_14
REMARK    9  A    between atoms: C_14  and  C_15
REMARK   10  A    between atoms: C_17  and  O_18
REMARK   11  A    between atoms: C_19  and  O_20
REMARK                            x       y       z     vdW  Elec       q    Type
REMARK                         _______ _______ _______ _____ _____    ______ ____
ROOT
ATOM      1  N   UNL     1       5.727  -2.638  22.404  0.00  0.00    -0.313 NA
ATOM      2  H   UNL     1       5.066  -2.134  21.810  0.00  0.00    +0.122 HD
ENDROOT
BRANCH   1   4
ATOM      3  C   UNL     1       6.842  -1.733  24.447  0.00  0.00    +0.024 C 
ATOM      4  C   UNL     1       6.730  -1.693  22.919  0.00  0.00    +0.051 C 
BRANCH   4   5
ATOM      5  C   UNL     1       8.112  -2.009  22.309  0.00  0.00    +0.023 C 
BRANCH   5   6
ATOM      6  C   UNL     1       9.290  -1.720  23.250  0.00  0.00    +0.036 C 
BRANCH   6   7
ATOM      7  C   UNL     1       9.662  -0.255  23.192  0.00  0.00    -0.047 A 
ATOM      8  C   UNL     1      10.168   0.396  24.327  0.00  0.00    +0.007 A 
ATOM      9  C   UNL     1      10.596   1.721  24.247  0.00  0.00    +0.045 A 
ATOM     10  C   UNL     1      10.526   2.396  23.034  0.00  0.00    +0.117 A 
ATOM     11  C   UNL     1      10.007   1.776  21.902  0.00  0.00    +0.045 A 
ATOM     12  C   UNL     1       9.575   0.450  21.983  0.00  0.00    +0.007 A 
BRANCH  10  13
ATOM     13  O   UNL     1      10.995   3.676  22.989  0.00  0.00    -0.507 OA
ATOM     14  H   UNL     1      10.914   4.062  23.876  0.00  0.00    +0.292 HD
ENDBRANCH  10  13
ENDBRANCH   6   7
ENDBRANCH   5   6
ENDBRANCH   4   5
ENDBRANCH   1   4
BRANCH   1  15
ATOM     15  C   UNL     1       6.269  -3.771  21.636  0.00  0.00    +0.086 C 
BRANCH  15  16
ATOM     16  C   UNL     1       6.023  -5.143  22.283  0.00  0.00    +0.050 C 
BRANCH  16  17
ATOM     17  C   UNL     1       6.594  -5.243  23.678  0.00  0.00    -0.042 A 
ATOM     18  C   UNL     1       5.729  -5.297  24.787  0.00  0.00    +0.007 A 
ATOM     19  C   UNL     1       6.235  -5.445  26.079  0.00  0.00    +0.049 A 
ATOM     20  C   UNL     1       7.606  -5.532  26.260  0.00  0.00    +0.158 A 
ATOM     21  C   UNL     1       8.475  -5.457  25.173  0.00  0.00    +0.158 A 
ATOM     22  C   UNL     1       7.982  -5.308  23.881  0.00  0.00    +0.052 A 
BRANCH  20  23
ATOM     23  O   UNL     1       8.102  -5.704  27.520  0.00  0.00    -0.503 OA
ATOM     24  H   UNL     1       7.850  -6.619  27.756  0.00  0.00    +0.292 HD
ENDBRANCH  20  23
BRANCH  21  25
ATOM     25  O   UNL     1       9.816  -5.548  25.428  0.00  0.00    -0.503 OA
ATOM     26  H   UNL     1       9.927  -5.917  26.321  0.00  0.00    +0.292 HD
ENDBRANCH  21  25
ENDBRANCH  16  17
ENDBRANCH  15  16
ENDBRANCH   1  15
TORSDOF 10
ENDMDL
MODEL 3
REMARK VINA RESULT:      -6.2      3.267      5.209
REMARK  Name = 
REMARK  11 active torsions:
REMARK  status: ('A' for Active; 'I' for Inactive)
REMARK    1  A    between atoms: C_1  and  C_2
REMARK    2  A    between atoms: C_2  and  C_3
REMARK    3  A    between atoms: C_2  and  N_12
REMARK    4  A    between atoms: C_3  and  C_4
REMARK    5  A    between atoms: C_4  and  C_5
REMARK    6  A    between atoms: C_8  and  O_9
REMARK    7  A    between atoms: N_12  and  C_13
REMARK    8  A    between atoms: C_13  and  C_14
REMARK    9  A    between atoms: C_14  and  C_15
REMARK   10  A    between atoms: C_17  and  O_18
REMARK   11  A    between atoms: C_19  and  O_20
REMARK                            x       y       z     vdW  Elec       q    Type
REMARK                         _______ _______ _______ _____ _____    ______ ____
ROOT
ATOM      1  N   UNL     1       8.991  -0.615  21.665  0.00  0.00    -0.313 NA
ATOM      2  H   UNL     1       8.967  -0.700  20.647  0.00  0.00    +0.122 HD
ENDROOT
BRANCH   1   4
ATOM      3  C   UNL     1       9.701   1.762  21.951  0.00  0.00    +0.024 C 
ATOM      4  C   UNL     1      10.092   0.283  22.049  0.00  0.00    +0.051 C 
BRANCH   4   5
ATOM      5  C   UNL     1      10.540  -0.020  23.494  0.00  0.00    +0.023 C 
BRANCH   5   6
ATOM      6  C   UNL     1       9.913   0.903  24.548  0.00  0.00    +0.036 C 
BRANCH   6   7
ATOM      7  C   UNL     1       8.725   0.231  25.197  0.00  0.00    -0.047 A 
ATOM      8  C   UNL     1       8.908  -0.676  26.251  0.00  0.00    +0.007 A 
ATOM      9  C   UNL     1       7.806  -1.226  26.907  0.00  0.00    +0.045 A 
ATOM     10  C   UNL     1       6.522  -0.866  26.518  0.00  0.00    +0.117 A 
ATOM     11  C   UNL     1       6.318   0.015  25.461  0.00  0.00    +0.045 A 
ATOM     12  C   UNL     1       7.420   0.562  24.801  0.00  0.00    +0.007 A 
BRANCH  10  13
ATOM     13  O   UNL     1       5.474  -1.392  27.215  0.00  0.00    -0.507 OA
ATOM     14  H   UNL     1       5.797  -1.675  28.086  0.00  0.00    +0.292 HD
ENDBRANCH  10  13
ENDBRANCH   6   7
ENDBRANCH   5   6
ENDBRANCH   4   5
ENDBRANCH   1   4
BRANCH   1  15
ATOM     15  C   UNL     1       9.058  -1.968  22.240  0.00  0.00    +0.086 C 
BRANCH  15  16
ATOM     16  C   UNL     1       7.698  -2.531  22.682  0.00  0.00    +0.050 C 
BRANCH  16  17
ATOM     17  C   UNL     1       7.802  -3.433  23.888  0.00  0.00    -0.042 A 
ATOM     18  C   UNL     1       6.637  -3.815  24.580  0.00  0.00    +0.007 A 
ATOM     19  C   UNL     1       6.706  -4.692  25.663  0.00  0.00    +0.049 A 
ATOM     20  C   UNL     1       7.941  -5.180  26.056  0.00  0.00    +0.158 A 
ATOM     21  C   UNL     1       9.105  -4.794  25.395  0.00  0.00    +0.158 A 
ATOM     22  C   UNL     1       9.048  -3.918  24.316  0.00  0.00    +0.052 A 
BRANCH  20  23
ATOM     23  O   UNL     1       8.009  -6.060  27.099  0.00  0.00    -0.503 OA
ATOM     24  H   UNL     1       7.266  -6.677  26.943  0.00  0.00    +0.292 HD
ENDBRANCH  20  23
BRANCH  21  25
ATOM     25  O   UNL     1      10.290  -5.314  25.841  0.00  0.00    -0.503 OA
ATOM     26  H   UNL     1      10.139  -6.247  26.071  0.00  0.00    +0.292 HD
ENDBRANCH  21  25
ENDBRANCH  16  17
ENDBRANCH  15  16
ENDBRANCH   1  15
TORSDOF 10
ENDMDL
MODEL 4
REMARK VINA RESULT:      -6.1      2.841      5.593
REMARK  Name = 
REMARK  11 active torsions:
REMARK  status: ('A' for Active; 'I' for Inactive)
REMARK    1  A    between atoms: C_1  and  C_2
REMARK    2  A    between atoms: C_2  and  C_3
REMARK    3  A    between atoms: C_2  and  N_12
REMARK    4  A    between atoms: C_3  and  C_4
REMARK    5  A    between atoms: C_4  and  C_5
REMARK    6  A    between atoms: C_8  and  O_9
REMARK    7  A    between atoms: N_12  and  C_13
REMARK    8  A    between atoms: C_13  and  C_14
REMARK    9  A    between atoms: C_14  and  C_15
REMARK   10  A    between atoms: C_17  and  O_18
REMARK   11  A    between atoms: C_19  and  O_20
REMARK                            x       y       z     vdW  Elec       q    Type
REMARK                         _______ _______ _______ _____ _____    ______ ____
ROOT
ATOM      1  N   UNL     1       8.634  -0.412  23.844  0.00  0.00    -0.313 NA
ATOM      2  H   UNL     1       7.618  -0.496  23.913  0.00  0.00    +0.122 HD
ENDROOT
BRANCH   1   4
ATOM      3  C   UNL     1      10.507  -1.581  22.678  0.00  0.00    +0.024 C 
ATOM      4  C   UNL     1       9.083  -1.022  22.583  0.00  0.00    +0.051 C 
BRANCH   4   5
ATOM      5  C   UNL     1       8.125  -2.162  22.178  0.00  0.00    +0.023 C 
BRANCH   5   6
ATOM      6  C   UNL     1       6.736  -2.068  22.825  0.00  0.00    +0.036 C 
BRANCH   6   7
ATOM      7  C   UNL     1       6.196  -3.450  23.116  0.00  0.00    -0.047 A 
ATOM      8  C   UNL     1       4.858  -3.627  23.494  0.00  0.00    +0.007 A 
ATOM      9  C   UNL     1       4.339  -4.909  23.674  0.00  0.00    +0.045 A 
ATOM     10  C   UNL     1       5.153  -6.016  23.469  0.00  0.00    +0.117 A 
ATOM     11  C   UNL     1       6.490  -5.863  23.115  0.00  0.00    +0.045 A 
ATOM     12  C   UNL     1       7.010  -4.579  22.939  0.00  0.00    +0.007 A 
BRANCH  10  13
ATOM     13  O   UNL     1       4.595  -7.253  23.612  0.00  0.00    -0.507 OA
ATOM     14  H   UNL     1       4.251  -7.330  24.517  0.00  0.00    +0.292 HD
ENDBRANCH  10  13
ENDBRANCH   6   7
ENDBRANCH   5   6
ENDBRANCH   4   5
ENDBRANCH   1   4
BRANCH   1  15
ATOM     15  C   UNL     1       9.229  -0.984  25.063  0.00  0.00    +0.086 C 
BRANCH  15  16
ATOM     16  C   UNL     1       8.255  -1.088  26.247  0.00  0.00    +0.050 C 
BRANCH  16  17
ATOM     17  C   UNL     1       7.733  -2.490  26.454  0.00  0.00    -0.042 A 
ATOM     18  C   UNL     1       6.386  -2.690  26.810  0.00  0.00    +0.007 A 
ATOM     19  C   UNL     1       5.871  -3.979  26.951  0.00  0.00    +0.049 A 
ATOM     20  C   UNL     1       6.705  -5.065  26.743  0.00  0.00    +0.158 A 
ATOM     21  C   UNL     1       8.047  -4.882  26.413  0.00  0.00    +0.158 A 
ATOM     22  C   UNL     1       8.572  -3.601  26.271  0.00  0.00    +0.052 A 
BRANCH  20  23
ATOM     23  O   UNL     1       6.196  -6.328  26.854  0.00  0.00    -0.503 OA
ATOM     24  H   UNL     1       5.360  -6.297  26.348  0.00  0.00    +0.292 HD
ENDBRANCH  20  23
BRANCH  21  25
ATOM     25  O   UNL     1       8.812  -6.000  26.226  0.00  0.00    -0.503 OA
ATOM     26  H   UNL     1       9.618  -5.904  26.760  0.00  0.00    +0.292 HD
ENDBRANCH  21  25
ENDBRANCH  16  17
ENDBRANCH  15  16
ENDBRANCH   1  15
TORSDOF 10
ENDMDL
MODEL 5
REMARK VINA RESULT:      -6.1      3.519      5.463
REMARK  Name = 
REMARK  11 active torsions:
REMARK  status: ('A' for Active; 'I' for Inactive)
REMARK    1  A    between atoms: C_1  and  C_2
REMARK    2  A    between atoms: C_2  and  C_3
REMARK    3  A    between atoms: C_2  and  N_12
REMARK    4  A    between atoms: C_3  and  C_4
REMARK    5  A    between atoms: C_4  and  C_5
REMARK    6  A    between atoms: C_8  and  O_9
REMARK    7  A    between atoms: N_12  and  C_13
REMARK    8  A    between atoms: C_13  and  C_14
REMARK    9  A    between atoms: C_14  and  C_15
REMARK   10  A    between atoms: C_17  and  O_18
REMARK   11  A    between atoms: C_19  and  O_20
REMARK                            x       y       z     vdW  Elec       q    Type
REMARK                         _______ _______ _______ _____ _____    ______ ____
ROOT
ATOM      1  N   UNL     1       6.997  -2.537  24.448  0.00  0.00    -0.313 NA
ATOM      2  H   UNL     1       7.112  -2.268  23.469  0.00  0.00    +0.122 HD
ENDROOT
BRANCH   1   4
ATOM      3  C   UNL     1       6.850  -1.192  26.547  0.00  0.00    +0.024 C 
ATOM      4  C   UNL     1       6.269  -1.472  25.157  0.00  0.00    +0.051 C 
BRANCH   4   5
ATOM      5  C   UNL     1       6.303  -0.170  24.330  0.00  0.00    +0.023 C 
BRANCH   5   6
ATOM      6  C   UNL     1       6.952   1.015  25.059  0.00  0.00    +0.036 C 
BRANCH   6   7
ATOM      7  C   UNL     1       7.153   2.172  24.107  0.00  0.00    -0.047 A 
ATOM      8  C   UNL     1       6.558   2.161  22.838  0.00  0.00    +0.007 A 
ATOM      9  C   UNL     1       6.670   3.269  21.997  0.00  0.00    +0.045 A 
ATOM     10  C   UNL     1       7.370   4.390  22.425  0.00  0.00    +0.117 A 
ATOM     11  C   UNL     1       7.987   4.414  23.671  0.00  0.00    +0.045 A 
ATOM     12  C   UNL     1       7.878   3.303  24.512  0.00  0.00    +0.007 A 
BRANCH  10  13
ATOM     13  O   UNL     1       7.417   5.468  21.589  0.00  0.00    -0.507 OA
ATOM     14  H   UNL     1       7.691   5.161  20.710  0.00  0.00    +0.292 HD
ENDBRANCH  10  13
ENDBRANCH   6   7
ENDBRANCH   5   6
ENDBRANCH   4   5
ENDBRANCH   1   4
BRANCH   1  15
ATOM     15  C   UNL     1       8.323  -2.861  24.997  0.00  0.00    +0.086 C 
BRANCH  15  16
ATOM     16  C   UNL     1       9.450  -2.873  23.953  0.00  0.00    +0.050 C 
BRANCH  16  17
ATOM     17  C   UNL     1       9.671  -1.521  23.316  0.00  0.00    -0.042 A 
ATOM     18  C   UNL     1       9.238  -1.289  21.997  0.00  0.00    +0.007 A 
ATOM     19  C   UNL     1       9.383  -0.031  21.410  0.00  0.00    +0.049 A 
ATOM     20  C   UNL     1       9.968   0.990  22.142  0.00  0.00    +0.158 A 
ATOM     21  C   UNL     1      10.422   0.768  23.441  0.00  0.00    +0.158 A 
ATOM     22  C   UNL     1      10.284  -0.482  24.035  0.00  0.00    +0.052 A 
BRANCH  20  23
ATOM     23  O   UNL     1      10.087   2.229  21.580  0.00  0.00    -0.503 OA
ATOM     24  H   UNL     1      11.000   2.505  21.793  0.00  0.00    +0.292 HD
ENDBRANCH  20  23
BRANCH  21  25
ATOM     25  O   UNL     1      10.992   1.822  24.101  0.00  0.00    -0.503 OA
ATOM     26  H   UNL     1      11.287   2.468  23.436  0.00  0.00    +0.292 HD
ENDBRANCH  21  25
ENDBRANCH  16  17
ENDBRANCH  15  16
ENDBRANCH   1  15
TORSDOF 10
ENDMDL
MODEL 6
REMARK VINA RESULT:      -6.1      3.304      4.614
REMARK  Name = 
REMARK  11 active torsions:
REMARK  status: ('A' for Active; 'I' for Inactive)
REMARK    1  A    between atoms: C_1  and  C_2
REMARK    2  A    between atoms: C_2  and  C_3
REMARK    3  A    between atoms: C_2  and  N_12
REMARK    4  A    between atoms: C_3  and  C_4
REMARK    5  A    between atoms: C_4  and  C_5
REMARK    6  A    between atoms: C_8  and  O_9
REMARK    7  A    between atoms: N_12  and  C_13
REMARK    8  A    between atoms: C_13  and  C_14
REMARK    9  A    between atoms: C_14  and  C_15
REMARK   10  A    between atoms: C_17  and  O_18
REMARK   11  A    between atoms: C_19  and  O_20
REMARK                            x       y       z     vdW  Elec       q    Type
REMARK                         _______ _______ _______ _____ _____    ______ ____
ROOT
ATOM      1  N   UNL     1       8.066  -3.786  25.401  0.00  0.00    -0.313 NA
ATOM      2  H   UNL     1       8.364  -4.618  25.913  0.00  0.00    +0.122 HD
ENDROOT
BRANCH   1   4
ATOM      3  C   UNL     1       7.722  -3.628  22.933  0.00  0.00    +0.024 C 
ATOM      4  C   UNL     1       8.724  -3.768  24.084  0.00  0.00    +0.051 C 
BRANCH   4   5
ATOM      5  C   UNL     1       9.731  -2.602  24.015  0.00  0.00    +0.023 C 
BRANCH   5   6
ATOM      6  C   UNL     1       9.784  -1.904  22.648  0.00  0.00    +0.036 C 
BRANCH   6   7
ATOM      7  C   UNL     1       9.955  -0.413  22.826  0.00  0.00    -0.047 A 
ATOM      8  C   UNL     1      10.491   0.107  24.013  0.00  0.00    +0.007 A 
ATOM      9  C   UNL     1      10.733   1.475  24.139  0.00  0.00    +0.045 A 
ATOM     10  C   UNL     1      10.446   2.325  23.079  0.00  0.00    +0.117 A 
ATOM     11  C   UNL     1       9.893   1.835  21.900  0.00  0.00    +0.045 A 
ATOM     12  C   UNL     1       9.648   0.465  21.775  0.00  0.00    +0.007 A 
BRANCH  10  13
ATOM     13  O   UNL     1      10.738   3.650  23.228  0.00  0.00    -0.507 OA
ATOM     14  H   UNL     1       9.957   4.166  22.969  0.00  0.00    +0.292 HD
ENDBRANCH  10  13
ENDBRANCH   6   7
ENDBRANCH   5   6
ENDBRANCH   4   5
ENDBRANCH   1   4
BRANCH   1  15
ATOM     15  C   UNL     1       8.323  -2.607  26.245  0.00  0.00    +0.086 C 
BRANCH  15  16
ATOM     16  C   UNL     1       7.082  -1.741  26.509  0.00  0.00    +0.050 C 
BRANCH  16  17
ATOM     17  C   UNL     1       7.090  -0.452  25.722  0.00  0.00    -0.042 A 
ATOM     18  C   UNL     1       6.575  -0.428  24.413  0.00  0.00    +0.007 A 
ATOM     19  C   UNL     1       6.523   0.765  23.689  0.00  0.00    +0.049 A 
ATOM     20  C   UNL     1       6.992   1.929  24.275  0.00  0.00    +0.158 A 
ATOM     21  C   UNL     1       7.526   1.915  25.562  0.00  0.00    +0.158 A 
ATOM     22  C   UNL     1       7.585   0.732  26.292  0.00  0.00    +0.052 A 
BRANCH  20  23
ATOM     23  O   UNL     1       6.917   3.102  23.580  0.00  0.00    -0.503 OA
ATOM     24  H   UNL     1       7.694   3.613  23.883  0.00  0.00    +0.292 HD
ENDBRANCH  20  23
BRANCH  21  25
ATOM     25  O   UNL     1       7.973   3.102  26.075  0.00  0.00    -0.503 OA
ATOM     26  H   UNL     1       8.942   3.118  25.993  0.00  0.00    +0.292 HD
ENDBRANCH  21  25
ENDBRANCH  16  17
ENDBRANCH  15  16
ENDBRANCH   1  15
TORSDOF 10
ENDMDL
MODEL 7
REMARK VINA RESULT:      -6.1      2.716      4.859
REMARK  Name = 
REMARK  11 active torsions:
REMARK  status: ('A' for Active; 'I' for Inactive)
REMARK    1  A    between atoms: C_1  and  C_2
REMARK    2  A    between atoms: C_2  and  C_3
REMARK    3  A    between atoms: C_2  and  N_12
REMARK    4  A    between atoms: C_3  and  C_4
REMARK    5  A    between atoms: C_4  and  C_5
REMARK    6  A    between atoms: C_8  and  O_9
REMARK    7  A    between atoms: N_12  and  C_13
REMARK    8  A    between atoms: C_13  and  C_14
REMARK    9  A    between atoms: C_14  and  C_15
REMARK   10  A    between atoms: C_17  and  O_18
REMARK   11  A    between atoms: C_19  and  O_20
REMARK                            x       y       z     vdW  Elec       q    Type
REMARK                         _______ _______ _______ _____ _____    ______ ____
ROOT
ATOM      1  N   UNL     1       8.743   0.191  25.888  0.00  0.00    -0.313 NA
ATOM      2  H   UNL     1       7.944   0.794  25.682  0.00  0.00    +0.122 HD
ENDROOT
BRANCH   1   4
ATOM      3  C   UNL     1      10.894   0.506  24.661  0.00  0.00    +0.024 C 
ATOM      4  C   UNL     1       9.477  -0.079  24.642  0.00  0.00    +0.051 C 
BRANCH   4   5
ATOM      5  C   UNL     1       9.569  -1.600  24.403  0.00  0.00    +0.023 C 
BRANCH   5   6
ATOM      6  C   UNL     1       9.196  -2.031  22.978  0.00  0.00    +0.036 C 
BRANCH   6   7
ATOM      7  C   UNL     1       7.908  -2.824  22.988  0.00  0.00    -0.047 A 
ATOM      8  C   UNL     1       6.691  -2.208  22.664  0.00  0.00    +0.007 A 
ATOM      9  C   UNL     1       5.519  -2.961  22.584  0.00  0.00    +0.045 A 
ATOM     10  C   UNL     1       5.562  -4.329  22.822  0.00  0.00    +0.117 A 
ATOM     11  C   UNL     1       6.755  -4.956  23.167  0.00  0.00    +0.045 A 
ATOM     12  C   UNL     1       7.927  -4.202  23.250  0.00  0.00    +0.007 A 
BRANCH  10  13
ATOM     13  O   UNL     1       4.402  -5.035  22.692  0.00  0.00    -0.507 OA
ATOM     14  H   UNL     1       3.673  -4.405  22.568  0.00  0.00    +0.292 HD
ENDBRANCH  10  13
ENDBRANCH   6   7
ENDBRANCH   5   6
ENDBRANCH   4   5
ENDBRANCH   1   4
BRANCH   1  15
ATOM     15  C   UNL     1       8.250  -1.003  26.596  0.00  0.00    +0.086 C 
BRANCH  15  16
ATOM     16  C   UNL     1       6.772  -1.327  26.325  0.00  0.00    +0.050 C 
BRANCH  16  17
ATOM     17  C   UNL     1       6.454  -2.793  26.502  0.00  0.00    -0.042 A 
ATOM     18  C   UNL     1       5.130  -3.245  26.347  0.00  0.00    +0.007 A 
ATOM     19  C   UNL     1       4.824  -4.603  26.452  0.00  0.00    +0.049 A 
ATOM     20  C   UNL     1       5.841  -5.504  26.717  0.00  0.00    +0.158 A 
ATOM     21  C   UNL     1       7.153  -5.068  26.896  0.00  0.00    +0.158 A 
ATOM     22  C   UNL     1       7.469  -3.717  26.796  0.00  0.00    +0.052 A 
BRANCH  20  23
ATOM     23  O   UNL     1       5.549  -6.836  26.793  0.00  0.00    -0.503 OA
ATOM     24  H   UNL     1       5.654  -7.053  27.741  0.00  0.00    +0.292 HD
ENDBRANCH  20  23
BRANCH  21  25
ATOM     25  O   UNL     1       8.105  -6.015  27.158  0.00  0.00    -0.503 OA
ATOM     26  H   UNL     1       8.911  -5.556  27.451  0.00  0.00    +0.292 HD
ENDBRANCH  21  25
ENDBRANCH  16  17
ENDBRANCH  15  16
ENDBRANCH   1  15
TORSDOF 10
ENDMDL
MODEL 8
REMARK VINA RESULT:      -6.0      2.623      4.671
REMARK  Name = 
REMARK  11 active torsions:
REMARK  status: ('A' for Active; 'I' for Inactive)
REMARK    1  A    between atoms: C_1  and  C_2
REMARK    2  A    between atoms: C_2  and  C_3
REMARK    3  A    between atoms: C_2  and  N_12
REMARK    4  A    between atoms: C_3  and  C_4
REMARK    5  A    between atoms: C_4  and  C_5
REMARK    6  A    between atoms: C_8  and  O_9
REMARK    7  A    between atoms: N_12  and  C_13
REMARK    8  A    between atoms: C_13  and  C_14
REMARK    9  A    between atoms: C_14  and  C_15
REMARK   10  A    between atoms: C_17  and  O_18
REMARK   11  A    between atoms: C_19  and  O_20
REMARK                            x       y       z     vdW  Elec       q    Type
REMARK                         _______ _______ _______ _____ _____    ______ ____
ROOT
ATOM      1  N   UNL     1       7.312  -0.512  23.066  0.00  0.00    -0.313 NA
ATOM      2  H   UNL     1       6.873   0.370  22.795  0.00  0.00    +0.122 HD
ENDROOT
BRANCH   1   4
ATOM      3  C   UNL     1       9.638   0.362  22.815  0.00  0.00    +0.024 C 
ATOM      4  C   UNL     1       8.590  -0.655  22.350  0.00  0.00    +0.051 C 
BRANCH   4   5
ATOM      5  C   UNL     1       9.150  -2.078  22.553  0.00  0.00    +0.023 C 
BRANCH   5   6
ATOM      6  C   UNL     1       9.927  -2.261  23.864  0.00  0.00    +0.036 C 
BRANCH   6   7
ATOM      7  C   UNL     1       9.208  -3.237  24.769  0.00  0.00    -0.047 A 
ATOM      8  C   UNL     1       9.204  -4.608  24.477  0.00  0.00    +0.007 A 
ATOM      9  C   UNL     1       8.619  -5.516  25.360  0.00  0.00    +0.045 A 
ATOM     10  C   UNL     1       8.044  -5.057  26.539  0.00  0.00    +0.117 A 
ATOM     11  C   UNL     1       8.018  -3.698  26.837  0.00  0.00    +0.045 A 
ATOM     12  C   UNL     1       8.600  -2.789  25.951  0.00  0.00    +0.007 A 
BRANCH  10  13
ATOM     13  O   UNL     1       7.522  -5.981  27.395  0.00  0.00    -0.507 OA
ATOM     14  H   UNL     1       7.541  -5.612  28.293  0.00  0.00    +0.292 HD
ENDBRANCH  10  13
ENDBRANCH   6   7
ENDBRANCH   5   6
ENDBRANCH   4   5
ENDBRANCH   1   4
BRANCH   1  15
ATOM     15  C   UNL     1       6.344  -1.598  22.844  0.00  0.00    +0.086 C 
BRANCH  15  16
ATOM     16  C   UNL     1       5.663  -2.103  24.126  0.00  0.00    +0.050 C 
BRANCH  16  17
ATOM     17  C   UNL     1       5.400  -3.590  24.101  0.00  0.00    -0.042 A 
ATOM     18  C   UNL     1       4.763  -4.207  25.194  0.00  0.00    +0.007 A 
ATOM     19  C   UNL     1       4.462  -5.570  25.167  0.00  0.00    +0.049 A 
ATOM     20  C   UNL     1       4.803  -6.313  24.050  0.00  0.00    +0.158 A 
ATOM     21  C   UNL     1       5.455  -5.720  22.969  0.00  0.00    +0.158 A 
ATOM     22  C   UNL     1       5.762  -4.364  22.986  0.00  0.00    +0.052 A 
BRANCH  20  23
ATOM     23  O   UNL     1       4.485  -7.641  24.010  0.00  0.00    -0.503 OA
ATOM     24  H   UNL     1       4.064  -7.815  24.875  0.00  0.00    +0.292 HD
ENDBRANCH  20  23
BRANCH  21  25
ATOM     25  O   UNL     1       5.764  -6.518  21.901  0.00  0.00    -0.503 OA
ATOM     26  H   UNL     1       6.531  -7.063  22.147  0.00  0.00    +0.292 HD
ENDBRANCH  21  25
ENDBRANCH  16  17
ENDBRANCH  15  16
ENDBRANCH   1  15
TORSDOF 10
ENDMDL
MODEL 9
REMARK VINA RESULT:      -6.0      4.610      7.347
REMARK  Name = 
REMARK  11 active torsions:
REMARK  status: ('A' for Active; 'I' for Inactive)
REMARK    1  A    between atoms: C_1  and  C_2
REMARK    2  A    between atoms: C_2  and  C_3
REMARK    3  A    between atoms: C_2  and  N_12
REMARK    4  A    between atoms: C_3  and  C_4
REMARK    5  A    between atoms: C_4  and  C_5
REMARK    6  A    between atoms: C_8  and  O_9
REMARK    7  A    between atoms: N_12  and  C_13
REMARK    8  A    between atoms: C_13  and  C_14
REMARK    9  A    between atoms: C_14  and  C_15
REMARK   10  A    between atoms: C_17  and  O_18
REMARK   11  A    between atoms: C_19  and  O_20
REMARK                            x       y       z     vdW  Elec       q    Type
REMARK                         _______ _______ _______ _____ _____    ______ ____
ROOT
ATOM      1  N   UNL     1      10.752   5.244  23.361  0.00  0.00    -0.313 NA
ATOM      2  H   UNL     1      11.603   5.732  23.646  0.00  0.00    +0.122 HD
ENDROOT
BRANCH   1   4
ATOM      3  C   UNL     1       8.563   6.385  22.979  0.00  0.00    +0.024 C 
ATOM      4  C   UNL     1       9.592   5.885  24.000  0.00  0.00    +0.051 C 
BRANCH   4   5
ATOM      5  C   UNL     1       8.902   4.891  24.957  0.00  0.00    +0.023 C 
BRANCH   5   6
ATOM      6  C   UNL     1       7.418   4.652  24.645  0.00  0.00    +0.036 C 
BRANCH   6   7
ATOM      7  C   UNL     1       7.193   3.218  24.224  0.00  0.00    -0.047 A 
ATOM      8  C   UNL     1       7.139   2.195  25.182  0.00  0.00    +0.007 A 
ATOM      9  C   UNL     1       6.841   0.887  24.801  0.00  0.00    +0.045 A 
ATOM     10  C   UNL     1       6.590   0.599  23.465  0.00  0.00    +0.117 A 
ATOM     11  C   UNL     1       6.661   1.594  22.495  0.00  0.00    +0.045 A 
ATOM     12  C   UNL     1       6.963   2.903  22.877  0.00  0.00    +0.007 A 
BRANCH  10  13
ATOM     13  O   UNL     1       6.260  -0.685  23.141  0.00  0.00    -0.507 OA
ATOM     14  H   UNL     1       7.057  -1.233  23.214  0.00  0.00    +0.292 HD
ENDBRANCH  10  13
ENDBRANCH   6   7
ENDBRANCH   5   6
ENDBRANCH   4   5
ENDBRANCH   1   4
BRANCH   1  15
ATOM     15  C   UNL     1      10.918   3.812  23.657  0.00  0.00    +0.086 C 
BRANCH  15  16
ATOM     16  C   UNL     1      10.532   2.882  22.496  0.00  0.00    +0.050 C 
BRANCH  16  17
ATOM     17  C   UNL     1      10.369   1.444  22.927  0.00  0.00    -0.042 A 
ATOM     18  C   UNL     1      10.497   1.102  24.287  0.00  0.00    +0.007 A 
ATOM     19  C   UNL     1      10.297  -0.211  24.713  0.00  0.00    +0.049 A 
ATOM     20  C   UNL     1       9.976  -1.181  23.778  0.00  0.00    +0.158 A 
ATOM     21  C   UNL     1       9.868  -0.862  22.426  0.00  0.00    +0.158 A 
ATOM     22  C   UNL     1      10.068   0.443  21.989  0.00  0.00    +0.052 A 
BRANCH  20  23
ATOM     23  O   UNL     1       9.752  -2.462  24.197  0.00  0.00    -0.503 OA
ATOM     24  H   UNL     1       9.786  -2.407  25.173  0.00  0.00    +0.292 HD
ENDBRANCH  20  23
BRANCH  21  25
ATOM     25  O   UNL     1       9.551  -1.873  21.560  0.00  0.00    -0.503 OA
ATOM     26  H   UNL     1       9.934  -1.655  20.693  0.00  0.00    +0.292 HD
ENDBRANCH  21  25
ENDBRANCH  16  17
ENDBRANCH  15  16
ENDBRANCH   1  15
TORSDOF 10
ENDMDL
