MODEL 1
REMARK VINA RESULT:      -7.3      0.000      0.000
REMARK  Name = 
REMARK  11 active torsions:
REMARK  status: ('A' for Active; 'I' for Inactive)
REMARK    1  A    between atoms: N_10  and  C_11
REMARK    2  A    between atoms: C_14  and  C_16
REMARK    3  A    between atoms: C_16  and  O_17
REMARK    4  A    between atoms: O_17  and  P_18
REMARK    5  A    between atoms: P_18  and  O_19
REMARK    6  A    between atoms: P_18  and  O_20
REMARK    7  A    between atoms: C_22  and  O_24
REMARK    8  A    between atoms: O_24  and  P_25
REMARK    9  A    between atoms: P_25  and  O_26
REMARK   10  A    between atoms: P_25  and  O_27
REMARK   11  A    between atoms: C_29  and  O_31
REMARK                            x       y       z     vdW  Elec       q    Type
REMARK                         _______ _______ _______ _____ _____    ______ ____
ROOT
ATOM      1  C   UNL     1       9.711  -2.920  24.123  0.00  0.00    +0.253 C 
ATOM      2  C   UNL     1       9.427  -4.034  25.138  0.00  0.00    +0.196 C 
ATOM      3  C   UNL     1       8.014  -4.518  24.806  0.00  0.00    +0.194 C 
ATOM      4  C   UNL     1       7.643  -3.744  23.527  0.00  0.00    +0.179 C 
ATOM      5  O   UNL     1       8.891  -3.285  22.974  0.00  0.00    -0.346 OA
ENDROOT
BRANCH   1  13
ATOM      6  N   UNL     1       8.711   3.034  24.705  0.00  0.00    -0.341 N 
ATOM      7  H   UNL     1       8.074   2.824  25.465  0.00  0.00    +0.144 HD
ATOM      8  H   UNL     1       8.458   3.786  24.077  0.00  0.00    +0.144 HD
ATOM      9  C   UNL     1       9.129   1.905  24.015  0.00  0.00    +0.147 A 
ATOM     10  C   UNL     1       9.091   0.612  24.561  0.00  0.00    +0.147 A 
ATOM     11  N   UNL     1       8.670   0.129  25.784  0.00  0.00    -0.231 NA
ATOM     12  C   UNL     1       8.855  -1.175  25.714  0.00  0.00    +0.203 A 
ATOM     13  N   UNL     1       9.411  -1.556  24.516  0.00  0.00    -0.286 N 
ATOM     14  C   UNL     1       9.533  -0.424  23.754  0.00  0.00    +0.167 A 
ATOM     15  N   UNL     1       9.968  -0.318  22.490  0.00  0.00    -0.216 NA
ATOM     16  C   UNL     1       9.979   0.969  22.071  0.00  0.00    +0.225 A 
ATOM     17  N   UNL     1       9.562   2.056  22.746  0.00  0.00    -0.219 NA
ENDBRANCH   1  13
BRANCH   2  18
ATOM     18  O   UNL     1      10.356  -5.121  24.915  0.00  0.00    -0.385 OA
ATOM     19  H   UNL     1       9.869  -5.964  24.923  0.00  0.00    +0.210 HD
ENDBRANCH   2  18
BRANCH   3  20
ATOM     20  O   UNL     1       7.028  -4.239  25.785  0.00  0.00    -0.278 OA
BRANCH  20  21
ATOM     21  P   UNL     1       6.765  -5.265  26.977  0.00  0.00    +0.473 P 
ATOM     22  O   UNL     1       6.272  -4.715  28.267  0.00  0.00    -0.228 OA
BRANCH  21  23
ATOM     23  O   UNL     1       8.158  -6.024  27.147  0.00  0.00    -0.303 OA
ATOM     24  H   UNL     1       8.867  -5.385  27.358  0.00  0.00    +0.222 HD
ENDBRANCH  21  23
BRANCH  21  25
ATOM     25  O   UNL     1       5.878  -6.398  26.300  0.00  0.00    -0.303 OA
ATOM     26  H   UNL     1       6.331  -7.259  26.335  0.00  0.00    +0.222 HD
ENDBRANCH  21  25
ENDBRANCH  20  21
ENDBRANCH   3  20
BRANCH   4  27
ATOM     27  C   UNL     1       6.855  -4.651  22.584  0.00  0.00    +0.206 C 
BRANCH  27  28
ATOM     28  O   UNL     1       6.179  -5.772  23.202  0.00  0.00    -0.284 OA
BRANCH  28  29
ATOM     29  P   UNL     1       4.457  -5.800  23.025  0.00  0.00    +0.472 P 
ATOM     30  O   UNL     1       2.918  -5.825  22.868  0.00  0.00    -0.228 OA
BRANCH  29  31
ATOM     31  O   UNL     1       4.336  -4.798  24.307  0.00  0.00    -0.303 OA
ATOM     32  H   UNL     1       4.070  -5.366  25.058  0.00  0.00    +0.222 HD
ENDBRANCH  29  31
BRANCH  29  33
ATOM     33  O   UNL     1       4.479  -7.253  23.774  0.00  0.00    -0.303 OA
ATOM     34  H   UNL     1       5.192  -7.808  23.410  0.00  0.00    +0.222 HD
ENDBRANCH  29  33
ENDBRANCH  28  29
ENDBRANCH  27  28
ENDBRANCH   4  27
TORSDOF 11
ENDMDL
MODEL 2
REMARK VINA RESULT:      -6.5      1.263      1.808
REMARK  Name = 
REMARK  11 active torsions:
REMARK  status: ('A' for Active; 'I' for Inactive)
REMARK    1  A    between atoms: N_10  and  C_11
REMARK    2  A    between atoms: C_14  and  C_16
REMARK    3  A    between atoms: C_16  and  O_17
REMARK    4  A    between atoms: O_17  and  P_18
REMARK    5  A    between atoms: P_18  and  O_19
REMARK    6  A    between atoms: P_18  and  O_20
REMARK    7  A    between atoms: C_22  and  O_24
REMARK    8  A    between atoms: O_24  and  P_25
REMARK    9  A    between atoms: P_25  and  O_26
REMARK   10  A    between atoms: P_25  and  O_27
REMARK   11  A    between atoms: C_29  and  O_31
REMARK                            x       y       z     vdW  Elec       q    Type
REMARK                         _______ _______ _______ _____ _____    ______ ____
ROOT
ATOM      1  C   UNL     1       9.281  -3.862  24.806  0.00  0.00    +0.253 C 
ATOM      2  C   UNL     1       9.252  -4.836  25.992  0.00  0.00    +0.196 C 
ATOM      3  C   UNL     1       7.782  -5.236  26.136  0.00  0.00    +0.194 C 
ATOM      4  C   UNL     1       7.092  -4.575  24.927  0.00  0.00    +0.179 C 
ATOM      5  O   UNL     1       8.146  -4.280  23.992  0.00  0.00    -0.346 OA
ENDROOT
BRANCH   1  13
ATOM      6  N   UNL     1       9.102   2.199  24.934  0.00  0.00    -0.341 N 
ATOM      7  H   UNL     1       8.450   2.136  25.707  0.00  0.00    +0.144 HD
ATOM      8  H   UNL     1       8.949   2.929  24.250  0.00  0.00    +0.144 HD
ATOM      9  C   UNL     1       9.357   0.975  24.332  0.00  0.00    +0.147 A 
ATOM     10  C   UNL     1       9.150  -0.256  24.974  0.00  0.00    +0.147 A 
ATOM     11  N   UNL     1       8.678  -0.584  26.230  0.00  0.00    -0.231 NA
ATOM     12  C   UNL     1       8.683  -1.902  26.259  0.00  0.00    +0.203 A 
ATOM     13  N   UNL     1       9.172  -2.444  25.094  0.00  0.00    -0.286 N 
ATOM     14  C   UNL     1       9.439  -1.400  24.249  0.00  0.00    +0.167 A 
ATOM     15  N   UNL     1       9.873  -1.450  22.981  0.00  0.00    -0.216 NA
ATOM     16  C   UNL     1      10.055  -0.212  22.466  0.00  0.00    +0.225 A 
ATOM     17  N   UNL     1       9.796   0.970  23.056  0.00  0.00    -0.219 NA
ENDBRANCH   1  13
BRANCH   2  18
ATOM     18  O   UNL     1      10.024  -6.012  25.653  0.00  0.00    -0.385 OA
ATOM     19  H   UNL     1      10.625  -5.798  24.918  0.00  0.00    +0.210 HD
ENDBRANCH   2  18
BRANCH   3  20
ATOM     20  O   UNL     1       7.136  -4.775  27.310  0.00  0.00    -0.278 OA
BRANCH  20  21
ATOM     21  P   UNL     1       5.943  -5.615  27.954  0.00  0.00    +0.473 P 
ATOM     22  O   UNL     1       5.781  -7.029  27.524  0.00  0.00    -0.228 OA
BRANCH  21  23
ATOM     23  O   UNL     1       4.644  -4.743  27.638  0.00  0.00    -0.303 OA
ATOM     24  H   UNL     1       4.063  -4.708  28.423  0.00  0.00    +0.222 HD
ENDBRANCH  21  23
BRANCH  21  25
ATOM     25  O   UNL     1       6.113  -5.360  29.515  0.00  0.00    -0.303 OA
ATOM     26  H   UNL     1       7.038  -5.497  29.788  0.00  0.00    +0.222 HD
ENDBRANCH  21  25
ENDBRANCH  20  21
ENDBRANCH   3  20
BRANCH   4  27
ATOM     27  C   UNL     1       6.023  -5.510  24.367  0.00  0.00    +0.206 C 
BRANCH  27  28
ATOM     28  O   UNL     1       4.652  -5.068  24.517  0.00  0.00    -0.284 OA
BRANCH  28  29
ATOM     29  P   UNL     1       3.443  -6.286  24.296  0.00  0.00    +0.472 P 
ATOM     30  O   UNL     1       2.362  -7.375  24.097  0.00  0.00    -0.228 OA
BRANCH  29  31
ATOM     31  O   UNL     1       4.614  -7.330  23.847  0.00  0.00    -0.303 OA
ATOM     32  H   UNL     1       5.451  -6.829  23.917  0.00  0.00    +0.222 HD
ENDBRANCH  29  31
BRANCH  29  33
ATOM     33  O   UNL     1       3.099  -5.578  22.863  0.00  0.00    -0.303 OA
ATOM     34  H   UNL     1       3.077  -4.610  22.964  0.00  0.00    +0.222 HD
ENDBRANCH  29  33
ENDBRANCH  28  29
ENDBRANCH  27  28
ENDBRANCH   4  27
TORSDOF 11
ENDMDL
MODEL 3
REMARK VINA RESULT:      -6.4      1.791      3.879
REMARK  Name = 
REMARK  11 active torsions:
REMARK  status: ('A' for Active; 'I' for Inactive)
REMARK    1  A    between atoms: N_10  and  C_11
REMARK    2  A    between atoms: C_14  and  C_16
REMARK    3  A    between atoms: C_16  and  O_17
REMARK    4  A    between atoms: O_17  and  P_18
REMARK    5  A    between atoms: P_18  and  O_19
REMARK    6  A    between atoms: P_18  and  O_20
REMARK    7  A    between atoms: C_22  and  O_24
REMARK    8  A    between atoms: O_24  and  P_25
REMARK    9  A    between atoms: P_25  and  O_26
REMARK   10  A    between atoms: P_25  and  O_27
REMARK   11  A    between atoms: C_29  and  O_31
REMARK                            x       y       z     vdW  Elec       q    Type
REMARK                         _______ _______ _______ _____ _____    ______ ____
ROOT
ATOM      1  C   UNL     1       6.873  -1.539  24.961  0.00  0.00    +0.253 C 
ATOM      2  C   UNL     1       5.827  -2.242  24.086  0.00  0.00    +0.196 C 
ATOM      3  C   UNL     1       6.377  -3.654  23.876  0.00  0.00    +0.194 C 
ATOM      4  C   UNL     1       7.631  -3.707  24.768  0.00  0.00    +0.179 C 
ATOM      5  O   UNL     1       7.482  -2.631  25.712  0.00  0.00    -0.346 OA
ENDROOT
BRANCH   1  13
ATOM      6  N   UNL     1      10.363   2.288  21.804  0.00  0.00    -0.341 N 
ATOM      7  H   UNL     1      11.131   2.054  22.423  0.00  0.00    +0.144 HD
ATOM      8  H   UNL     1      10.284   3.249  21.499  0.00  0.00    +0.144 HD
ATOM      9  C   UNL     1       9.144   1.780  22.230  0.00  0.00    +0.147 A 
ATOM     10  C   UNL     1       9.029   0.691  23.109  0.00  0.00    +0.147 A 
ATOM     11  N   UNL     1       9.968  -0.096  23.745  0.00  0.00    -0.231 NA
ATOM     12  C   UNL     1       9.264  -0.949  24.463  0.00  0.00    +0.203 A 
ATOM     13  N   UNL     1       7.911  -0.777  24.292  0.00  0.00    -0.286 N 
ATOM     14  C   UNL     1       7.747   0.295  23.455  0.00  0.00    +0.167 A 
ATOM     15  N   UNL     1       6.603   0.868  23.056  0.00  0.00    -0.216 NA
ATOM     16  C   UNL     1       6.828   1.893  22.201  0.00  0.00    +0.225 A 
ATOM     17  N   UNL     1       8.017   2.384  21.802  0.00  0.00    -0.219 NA
ENDBRANCH   1  13
BRANCH   2  18
ATOM     18  O   UNL     1       4.583  -2.330  24.820  0.00  0.00    -0.385 OA
ATOM     19  H   UNL     1       4.220  -1.435  24.940  0.00  0.00    +0.210 HD
ENDBRANCH   2  18
BRANCH   3  20
ATOM     20  O   UNL     1       6.772  -3.964  22.550  0.00  0.00    -0.278 OA
BRANCH  20  21
ATOM     21  P   UNL     1       6.378  -5.366  21.900  0.00  0.00    +0.473 P 
ATOM     22  O   UNL     1       5.858  -5.360  20.507  0.00  0.00    -0.228 OA
BRANCH  21  23
ATOM     23  O   UNL     1       5.325  -5.985  22.927  0.00  0.00    -0.303 OA
ATOM     24  H   UNL     1       5.199  -5.381  23.684  0.00  0.00    +0.222 HD
ENDBRANCH  21  23
BRANCH  21  25
ATOM     25  O   UNL     1       7.653  -6.274  22.181  0.00  0.00    -0.303 OA
ATOM     26  H   UNL     1       7.434  -6.995  22.799  0.00  0.00    +0.222 HD
ENDBRANCH  21  25
ENDBRANCH  20  21
ENDBRANCH   3  20
BRANCH   4  27
ATOM     27  C   UNL     1       7.742  -5.082  25.423  0.00  0.00    +0.206 C 
BRANCH  27  28
ATOM     28  O   UNL     1       6.489  -5.721  25.771  0.00  0.00    -0.284 OA
BRANCH  28  29
ATOM     29  P   UNL     1       6.036  -5.627  27.438  0.00  0.00    +0.472 P 
ATOM     30  O   UNL     1       5.632  -5.543  28.930  0.00  0.00    -0.228 OA
BRANCH  29  31
ATOM     31  O   UNL     1       7.564  -6.025  27.848  0.00  0.00    -0.303 OA
ATOM     32  H   UNL     1       8.037  -5.175  27.951  0.00  0.00    +0.222 HD
ENDBRANCH  29  31
BRANCH  29  33
ATOM     33  O   UNL     1       5.369  -7.109  27.264  0.00  0.00    -0.303 OA
ATOM     34  H   UNL     1       4.855  -7.341  28.057  0.00  0.00    +0.222 HD
ENDBRANCH  29  33
ENDBRANCH  28  29
ENDBRANCH  27  28
ENDBRANCH   4  27
TORSDOF 11
ENDMDL
MODEL 4
REMARK VINA RESULT:      -6.4      1.498      1.949
REMARK  Name = 
REMARK  11 active torsions:
REMARK  status: ('A' for Active; 'I' for Inactive)
REMARK    1  A    between atoms: N_10  and  C_11
REMARK    2  A    between atoms: C_14  and  C_16
REMARK    3  A    between atoms: C_16  and  O_17
REMARK    4  A    between atoms: O_17  and  P_18
REMARK    5  A    between atoms: P_18  and  O_19
REMARK    6  A    between atoms: P_18  and  O_20
REMARK    7  A    between atoms: C_22  and  O_24
REMARK    8  A    between atoms: O_24  and  P_25
REMARK    9  A    between atoms: P_25  and  O_26
REMARK   10  A    between atoms: P_25  and  O_27
REMARK   11  A    between atoms: C_29  and  O_31
REMARK                            x       y       z     vdW  Elec       q    Type
REMARK                         _______ _______ _______ _____ _____    ______ ____
ROOT
ATOM      1  C   UNL     1       9.203  -3.847  24.887  0.00  0.00    +0.253 C 
ATOM      2  C   UNL     1       9.195  -4.831  26.065  0.00  0.00    +0.196 C 
ATOM      3  C   UNL     1       7.728  -5.228  26.235  0.00  0.00    +0.194 C 
ATOM      4  C   UNL     1       7.015  -4.556  25.046  0.00  0.00    +0.179 C 
ATOM      5  O   UNL     1       8.050  -4.256  24.092  0.00  0.00    -0.346 OA
ENDROOT
BRANCH   1  13
ATOM      6  N   UNL     1       9.087   2.214  25.080  0.00  0.00    -0.341 N 
ATOM      7  H   UNL     1       8.419   2.148  25.839  0.00  0.00    +0.144 HD
ATOM      8  H   UNL     1       8.955   2.953  24.402  0.00  0.00    +0.144 HD
ATOM      9  C   UNL     1       9.341   0.994  24.469  0.00  0.00    +0.147 A 
ATOM     10  C   UNL     1       9.107  -0.242  25.093  0.00  0.00    +0.147 A 
ATOM     11  N   UNL     1       8.608  -0.579  26.336  0.00  0.00    -0.231 NA
ATOM     12  C   UNL     1       8.598  -1.897  26.350  0.00  0.00    +0.203 A 
ATOM     13  N   UNL     1       9.104  -2.432  25.189  0.00  0.00    -0.286 N 
ATOM     14  C   UNL     1       9.399  -1.381  24.361  0.00  0.00    +0.167 A 
ATOM     15  N   UNL     1       9.857  -1.422  23.101  0.00  0.00    -0.216 NA
ATOM     16  C   UNL     1      10.062  -0.180  22.604  0.00  0.00    +0.225 A 
ATOM     17  N   UNL     1       9.804   0.998  23.202  0.00  0.00    -0.219 NA
ENDBRANCH   1  13
BRANCH   2  18
ATOM     18  O   UNL     1       9.957  -6.006  25.701  0.00  0.00    -0.385 OA
ATOM     19  H   UNL     1      10.698  -5.741  25.128  0.00  0.00    +0.210 HD
ENDBRANCH   2  18
BRANCH   3  20
ATOM     20  O   UNL     1       7.107  -4.776  27.426  0.00  0.00    -0.278 OA
BRANCH  20  21
ATOM     21  P   UNL     1       5.954  -5.640  28.111  0.00  0.00    +0.473 P 
ATOM     22  O   UNL     1       5.800  -7.055  27.679  0.00  0.00    -0.228 OA
BRANCH  21  23
ATOM     23  O   UNL     1       4.629  -4.790  27.851  0.00  0.00    -0.303 OA
ATOM     24  H   UNL     1       4.230  -4.521  28.702  0.00  0.00    +0.222 HD
ENDBRANCH  21  23
BRANCH  21  25
ATOM     25  O   UNL     1       6.181  -5.391  29.665  0.00  0.00    -0.303 OA
ATOM     26  H   UNL     1       7.118  -5.513  29.902  0.00  0.00    +0.222 HD
ENDBRANCH  21  25
ENDBRANCH  20  21
ENDBRANCH   3  20
BRANCH   4  27
ATOM     27  C   UNL     1       5.933  -5.484  24.500  0.00  0.00    +0.206 C 
BRANCH  27  28
ATOM     28  O   UNL     1       6.171  -6.026  23.178  0.00  0.00    -0.284 OA
BRANCH  28  29
ATOM     29  P   UNL     1       5.909  -4.935  21.861  0.00  0.00    +0.472 P 
ATOM     30  O   UNL     1       5.674  -3.959  20.683  0.00  0.00    -0.228 OA
BRANCH  29  31
ATOM     31  O   UNL     1       4.457  -4.555  22.500  0.00  0.00    -0.303 OA
ATOM     32  H   UNL     1       4.305  -3.617  22.265  0.00  0.00    +0.222 HD
ENDBRANCH  29  31
BRANCH  29  33
ATOM     33  O   UNL     1       5.515  -6.238  20.957  0.00  0.00    -0.303 OA
ATOM     34  H   UNL     1       5.938  -6.180  20.082  0.00  0.00    +0.222 HD
ENDBRANCH  29  33
ENDBRANCH  28  29
ENDBRANCH  27  28
ENDBRANCH   4  27
TORSDOF 11
ENDMDL
MODEL 5
REMARK VINA RESULT:      -6.4      1.752      2.138
REMARK  Name = 
REMARK  11 active torsions:
REMARK  status: ('A' for Active; 'I' for Inactive)
REMARK    1  A    between atoms: N_10  and  C_11
REMARK    2  A    between atoms: C_14  and  C_16
REMARK    3  A    between atoms: C_16  and  O_17
REMARK    4  A    between atoms: O_17  and  P_18
REMARK    5  A    between atoms: P_18  and  O_19
REMARK    6  A    between atoms: P_18  and  O_20
REMARK    7  A    between atoms: C_22  and  O_24
REMARK    8  A    between atoms: O_24  and  P_25
REMARK    9  A    between atoms: P_25  and  O_26
REMARK   10  A    between atoms: P_25  and  O_27
REMARK   11  A    between atoms: C_29  and  O_31
REMARK                            x       y       z     vdW  Elec       q    Type
REMARK                         _______ _______ _______ _____ _____    ______ ____
ROOT
ATOM      1  C   UNL     1       7.328  -3.056  23.289  0.00  0.00    +0.253 C 
ATOM      2  C   UNL     1       7.749  -4.150  24.279  0.00  0.00    +0.196 C 
ATOM      3  C   UNL     1       6.448  -4.594  24.951  0.00  0.00    +0.194 C 
ATOM      4  C   UNL     1       5.351  -3.823  24.193  0.00  0.00    +0.179 C 
ATOM      5  O   UNL     1       5.954  -3.409  22.953  0.00  0.00    -0.346 OA
ENDROOT
BRANCH   1  13
ATOM      6  N   UNL     1       8.638   2.574  25.126  0.00  0.00    -0.341 N 
ATOM      7  H   UNL     1       7.730   2.867  24.784  0.00  0.00    +0.144 HD
ATOM      8  H   UNL     1       9.414   3.211  24.997  0.00  0.00    +0.144 HD
ATOM      9  C   UNL     1       8.969   1.278  24.758  0.00  0.00    +0.147 A 
ATOM     10  C   UNL     1       8.015   0.315  24.390  0.00  0.00    +0.147 A 
ATOM     11  N   UNL     1       6.639   0.361  24.284  0.00  0.00    -0.231 NA
ATOM     12  C   UNL     1       6.292  -0.843  23.874  0.00  0.00    +0.203 A 
ATOM     13  N   UNL     1       7.376  -1.679  23.745  0.00  0.00    -0.286 N 
ATOM     14  C   UNL     1       8.490  -0.938  24.038  0.00  0.00    +0.167 A 
ATOM     15  N   UNL     1       9.775  -1.316  23.985  0.00  0.00    -0.216 NA
ATOM     16  C   UNL     1      10.605  -0.320  24.374  0.00  0.00    +0.225 A 
ATOM     17  N   UNL     1      10.274   0.938  24.721  0.00  0.00    -0.219 NA
ENDBRANCH   1  13
BRANCH   2  18
ATOM     18  O   UNL     1       8.296  -5.268  23.540  0.00  0.00    -0.385 OA
ATOM     19  H   UNL     1       9.038  -4.955  22.992  0.00  0.00    +0.210 HD
ENDBRANCH   2  18
BRANCH   3  20
ATOM     20  O   UNL     1       6.332  -4.274  26.327  0.00  0.00    -0.278 OA
BRANCH  20  21
ATOM     21  P   UNL     1       6.555  -5.399  27.436  0.00  0.00    +0.473 P 
ATOM     22  O   UNL     1       6.125  -5.095  28.826  0.00  0.00    -0.228 OA
BRANCH  21  23
ATOM     23  O   UNL     1       8.116  -5.721  27.351  0.00  0.00    -0.303 OA
ATOM     24  H   UNL     1       8.623  -4.895  27.228  0.00  0.00    +0.222 HD
ENDBRANCH  21  23
BRANCH  21  25
ATOM     25  O   UNL     1       5.935  -6.703  26.767  0.00  0.00    -0.303 OA
ATOM     26  H   UNL     1       4.967  -6.625  26.691  0.00  0.00    +0.222 HD
ENDBRANCH  21  25
ENDBRANCH  20  21
ENDBRANCH   3  20
BRANCH   4  27
ATOM     27  C   UNL     1       4.126  -4.715  24.007  0.00  0.00    +0.206 C 
BRANCH  27  28
ATOM     28  O   UNL     1       3.828  -5.617  25.100  0.00  0.00    -0.284 OA
BRANCH  28  29
ATOM     29  P   UNL     1       3.144  -7.142  24.650  0.00  0.00    +0.472 P 
ATOM     30  O   UNL     1       2.533  -8.506  24.248  0.00  0.00    -0.228 OA
BRANCH  29  31
ATOM     31  O   UNL     1       3.320  -7.646  26.192  0.00  0.00    -0.303 OA
ATOM     32  H   UNL     1       3.020  -6.898  26.747  0.00  0.00    +0.222 HD
ENDBRANCH  29  31
BRANCH  29  33
ATOM     33  O   UNL     1       4.607  -7.531  24.032  0.00  0.00    -0.303 OA
ATOM     34  H   UNL     1       5.062  -6.730  23.717  0.00  0.00    +0.222 HD
ENDBRANCH  29  33
ENDBRANCH  28  29
ENDBRANCH  27  28
ENDBRANCH   4  27
TORSDOF 11
ENDMDL
MODEL 6
REMARK VINA RESULT:      -6.3      1.890      2.700
REMARK  Name = 
REMARK  11 active torsions:
REMARK  status: ('A' for Active; 'I' for Inactive)
REMARK    1  A    between atoms: N_10  and  C_11
REMARK    2  A    between atoms: C_14  and  C_16
REMARK    3  A    between atoms: C_16  and  O_17
REMARK    4  A    between atoms: O_17  and  P_18
REMARK    5  A    between atoms: P_18  and  O_19
REMARK    6  A    between atoms: P_18  and  O_20
REMARK    7  A    between atoms: C_22  and  O_24
REMARK    8  A    between atoms: O_24  and  P_25
REMARK    9  A    between atoms: P_25  and  O_26
REMARK   10  A    between atoms: P_25  and  O_27
REMARK   11  A    between atoms: C_29  and  O_31
REMARK                            x       y       z     vdW  Elec       q    Type
REMARK                         _______ _______ _______ _____ _____    ______ ____
ROOT
ATOM      1  C   UNL     1       8.903  -3.180  24.410  0.00  0.00    +0.253 C 
ATOM      2  C   UNL     1       8.030  -2.964  25.654  0.00  0.00    +0.196 C 
ATOM      3  C   UNL     1       6.630  -3.418  25.235  0.00  0.00    +0.194 C 
ATOM      4  C   UNL     1       6.830  -4.001  23.823  0.00  0.00    +0.179 C 
ATOM      5  O   UNL     1       8.239  -4.275  23.712  0.00  0.00    -0.346 OA
ENDROOT
BRANCH   1  13
ATOM      6  N   UNL     1      10.079   2.007  21.495  0.00  0.00    -0.341 N 
ATOM      7  H   UNL     1      10.102   1.482  20.629  0.00  0.00    +0.144 HD
ATOM      8  H   UNL     1      10.748   2.758  21.605  0.00  0.00    +0.144 HD
ATOM      9  C   UNL     1      10.023   1.199  22.622  0.00  0.00    +0.147 A 
ATOM     10  C   UNL     1       9.566  -0.128  22.595  0.00  0.00    +0.147 A 
ATOM     11  N   UNL     1       9.107  -0.935  21.572  0.00  0.00    -0.231 NA
ATOM     12  C   UNL     1       8.843  -2.091  22.147  0.00  0.00    +0.203 A 
ATOM     13  N   UNL     1       9.073  -2.062  23.502  0.00  0.00    -0.286 N 
ATOM     14  C   UNL     1       9.572  -0.820  23.795  0.00  0.00    +0.167 A 
ATOM     15  N   UNL     1       9.998  -0.356  24.979  0.00  0.00    -0.216 NA
ATOM     16  C   UNL     1      10.399   0.934  24.895  0.00  0.00    +0.225 A 
ATOM     17  N   UNL     1      10.458   1.706  23.794  0.00  0.00    -0.219 NA
ENDBRANCH   1  13
BRANCH   2  18
ATOM     18  O   UNL     1       8.502  -3.827  26.715  0.00  0.00    -0.385 OA
ATOM     19  H   UNL     1       7.942  -4.622  26.753  0.00  0.00    +0.210 HD
ENDBRANCH   2  18
BRANCH   3  20
ATOM     20  O   UNL     1       5.657  -2.392  25.148  0.00  0.00    -0.278 OA
BRANCH  20  21
ATOM     21  P   UNL     1       4.255  -2.548  25.893  0.00  0.00    +0.473 P 
ATOM     22  O   UNL     1       3.688  -1.346  26.559  0.00  0.00    -0.228 OA
BRANCH  21  23
ATOM     23  O   UNL     1       4.496  -3.743  26.923  0.00  0.00    -0.303 OA
ATOM     24  H   UNL     1       4.232  -4.593  26.520  0.00  0.00    +0.222 HD
ENDBRANCH  21  23
BRANCH  21  25
ATOM     25  O   UNL     1       3.337  -3.259  24.805  0.00  0.00    -0.303 OA
ATOM     26  H   UNL     1       2.489  -2.790  24.709  0.00  0.00    +0.222 HD
ENDBRANCH  21  25
ENDBRANCH  20  21
ENDBRANCH   3  20
BRANCH   4  27
ATOM     27  C   UNL     1       5.953  -5.238  23.646  0.00  0.00    +0.206 C 
BRANCH  27  28
ATOM     28  O   UNL     1       5.312  -5.737  24.846  0.00  0.00    -0.284 OA
BRANCH  28  29
ATOM     29  P   UNL     1       4.149  -6.996  24.607  0.00  0.00    +0.472 P 
ATOM     30  O   UNL     1       3.108  -8.121  24.392  0.00  0.00    -0.228 OA
BRANCH  29  31
ATOM     31  O   UNL     1       3.875  -6.421  23.105  0.00  0.00    -0.303 OA
ATOM     32  H   UNL     1       3.648  -7.203  22.563  0.00  0.00    +0.222 HD
ENDBRANCH  29  31
BRANCH  29  33
ATOM     33  O   UNL     1       3.102  -6.091  25.476  0.00  0.00    -0.303 OA
ATOM     34  H   UNL     1       2.202  -6.175  25.112  0.00  0.00    +0.222 HD
ENDBRANCH  29  33
ENDBRANCH  28  29
ENDBRANCH  27  28
ENDBRANCH   4  27
TORSDOF 11
ENDMDL
MODEL 7
REMARK VINA RESULT:      -6.2      1.859      2.703
REMARK  Name = 
REMARK  11 active torsions:
REMARK  status: ('A' for Active; 'I' for Inactive)
REMARK    1  A    between atoms: N_10  and  C_11
REMARK    2  A    between atoms: C_14  and  C_16
REMARK    3  A    between atoms: C_16  and  O_17
REMARK    4  A    between atoms: O_17  and  P_18
REMARK    5  A    between atoms: P_18  and  O_19
REMARK    6  A    between atoms: P_18  and  O_20
REMARK    7  A    between atoms: C_22  and  O_24
REMARK    8  A    between atoms: O_24  and  P_25
REMARK    9  A    between atoms: P_25  and  O_26
REMARK   10  A    between atoms: P_25  and  O_27
REMARK   11  A    between atoms: C_29  and  O_31
REMARK                            x       y       z     vdW  Elec       q    Type
REMARK                         _______ _______ _______ _____ _____    ______ ____
ROOT
ATOM      1  C   UNL     1       7.468  -1.992  22.410  0.00  0.00    +0.253 C 
ATOM      2  C   UNL     1       7.898  -3.413  22.799  0.00  0.00    +0.196 C 
ATOM      3  C   UNL     1       7.423  -3.586  24.243  0.00  0.00    +0.194 C 
ATOM      4  C   UNL     1       6.624  -2.301  24.533  0.00  0.00    +0.179 C 
ATOM      5  O   UNL     1       6.297  -1.748  23.245  0.00  0.00    -0.346 OA
ENDROOT
BRANCH   1  13
ATOM      6  N   UNL     1      10.598   3.162  23.068  0.00  0.00    -0.341 N 
ATOM      7  H   UNL     1      11.275   2.647  23.619  0.00  0.00    +0.144 HD
ATOM      8  H   UNL     1      10.377   4.105  23.359  0.00  0.00    +0.144 HD
ATOM      9  C   UNL     1       9.453   2.429  22.786  0.00  0.00    +0.147 A 
ATOM     10  C   UNL     1       9.411   1.026  22.816  0.00  0.00    +0.147 A 
ATOM     11  N   UNL     1      10.364   0.071  23.110  0.00  0.00    -0.231 NA
ATOM     12  C   UNL     1       9.736  -1.081  22.993  0.00  0.00    +0.203 A 
ATOM     13  N   UNL     1       8.428  -0.921  22.601  0.00  0.00    -0.286 N 
ATOM     14  C   UNL     1       8.198   0.427  22.520  0.00  0.00    +0.167 A 
ATOM     15  N   UNL     1       7.049   1.056  22.233  0.00  0.00    -0.216 NA
ATOM     16  C   UNL     1       7.206   2.400  22.215  0.00  0.00    +0.225 A 
ATOM     17  N   UNL     1       8.320   3.101  22.500  0.00  0.00    -0.219 NA
ENDBRANCH   1  13
BRANCH   2  18
ATOM     18  O   UNL     1       7.196  -4.362  21.961  0.00  0.00    -0.385 OA
ATOM     19  H   UNL     1       7.828  -4.769  21.342  0.00  0.00    +0.210 HD
ENDBRANCH   2  18
BRANCH   3  20
ATOM     20  O   UNL     1       8.450  -3.688  25.215  0.00  0.00    -0.278 OA
BRANCH  20  21
ATOM     21  P   UNL     1       8.744  -5.082  25.932  0.00  0.00    +0.473 P 
ATOM     22  O   UNL     1       7.581  -5.856  26.441  0.00  0.00    -0.228 OA
BRANCH  21  23
ATOM     23  O   UNL     1       9.767  -4.707  27.098  0.00  0.00    -0.303 OA
ATOM     24  H   UNL     1       9.289  -4.306  27.850  0.00  0.00    +0.222 HD
ENDBRANCH  21  23
BRANCH  21  25
ATOM     25  O   UNL     1       9.704  -5.828  24.907  0.00  0.00    -0.303 OA
ATOM     26  H   UNL     1      10.619  -5.504  24.993  0.00  0.00    +0.222 HD
ENDBRANCH  21  25
ENDBRANCH  20  21
ENDBRANCH   3  20
BRANCH   4  27
ATOM     27  C   UNL     1       5.399  -2.635  25.382  0.00  0.00    +0.206 C 
BRANCH  27  28
ATOM     28  O   UNL     1       4.185  -2.935  24.651  0.00  0.00    -0.284 OA
BRANCH  28  29
ATOM     29  P   UNL     1       3.993  -4.584  24.161  0.00  0.00    +0.472 P 
ATOM     30  O   UNL     1       3.820  -6.058  23.723  0.00  0.00    -0.228 OA
BRANCH  29  31
ATOM     31  O   UNL     1       4.341  -4.142  22.630  0.00  0.00    -0.303 OA
ATOM     32  H   UNL     1       3.619  -4.510  22.081  0.00  0.00    +0.222 HD
ENDBRANCH  29  31
BRANCH  29  33
ATOM     33  O   UNL     1       2.379  -4.327  24.195  0.00  0.00    -0.303 OA
ATOM     34  H   UNL     1       2.187  -3.379  24.076  0.00  0.00    +0.222 HD
ENDBRANCH  29  33
ENDBRANCH  28  29
ENDBRANCH  27  28
ENDBRANCH   4  27
TORSDOF 11
ENDMDL
MODEL 8
REMARK VINA RESULT:      -6.2      4.779      7.504
REMARK  Name = 
REMARK  11 active torsions:
REMARK  status: ('A' for Active; 'I' for Inactive)
REMARK    1  A    between atoms: N_10  and  C_11
REMARK    2  A    between atoms: C_14  and  C_16
REMARK    3  A    between atoms: C_16  and  O_17
REMARK    4  A    between atoms: O_17  and  P_18
REMARK    5  A    between atoms: P_18  and  O_19
REMARK    6  A    between atoms: P_18  and  O_20
REMARK    7  A    between atoms: C_22  and  O_24
REMARK    8  A    between atoms: O_24  and  P_25
REMARK    9  A    between atoms: P_25  and  O_26
REMARK   10  A    between atoms: P_25  and  O_27
REMARK   11  A    between atoms: C_29  and  O_31
REMARK                            x       y       z     vdW  Elec       q    Type
REMARK                         _______ _______ _______ _____ _____    ______ ____
ROOT
ATOM      1  C   UNL     1       7.793  -5.386  26.550  0.00  0.00    +0.253 C 
ATOM      2  C   UNL     1       8.132  -5.197  25.065  0.00  0.00    +0.196 C 
ATOM      3  C   UNL     1       7.713  -3.760  24.747  0.00  0.00    +0.194 C 
ATOM      4  C   UNL     1       7.298  -3.178  26.111  0.00  0.00    +0.179 C 
ATOM      5  O   UNL     1       7.894  -4.039  27.099  0.00  0.00    -0.346 OA
ENDROOT
BRANCH   1  13
ATOM      6  N   UNL     1       2.663  -7.512  28.989  0.00  0.00    -0.341 N 
ATOM      7  H   UNL     1       2.195  -7.306  28.114  0.00  0.00    +0.144 HD
ATOM      8  H   UNL     1       2.151  -7.346  29.845  0.00  0.00    +0.144 HD
ATOM      9  C   UNL     1       3.952  -7.001  29.053  0.00  0.00    +0.147 A 
ATOM     10  C   UNL     1       4.706  -6.672  27.915  0.00  0.00    +0.147 A 
ATOM     11  N   UNL     1       4.429  -6.734  26.563  0.00  0.00    -0.231 NA
ATOM     12  C   UNL     1       5.513  -6.271  25.975  0.00  0.00    +0.203 A 
ATOM     13  N   UNL     1       6.495  -5.945  26.880  0.00  0.00    -0.286 N 
ATOM     14  C   UNL     1       5.976  -6.163  28.128  0.00  0.00    +0.167 A 
ATOM     15  N   UNL     1       6.549  -5.927  29.317  0.00  0.00    -0.216 NA
ATOM     16  C   UNL     1       5.745  -6.295  30.342  0.00  0.00    +0.225 A 
ATOM     17  N   UNL     1       4.492  -6.781  30.269  0.00  0.00    -0.219 NA
ENDBRANCH   1  13
BRANCH   2  18
ATOM     18  O   UNL     1       9.564  -5.315  24.891  0.00  0.00    -0.385 OA
ATOM     19  H   UNL     1       9.961  -5.632  25.721  0.00  0.00    +0.210 HD
ENDBRANCH   2  18
BRANCH   3  20
ATOM     20  O   UNL     1       6.613  -3.626  23.863  0.00  0.00    -0.278 OA
BRANCH  20  21
ATOM     21  P   UNL     1       6.726  -2.696  22.573  0.00  0.00    +0.473 P 
ATOM     22  O   UNL     1       8.073  -2.506  21.972  0.00  0.00    -0.228 OA
BRANCH  21  23
ATOM     23  O   UNL     1       6.079  -1.313  23.037  0.00  0.00    -0.303 OA
ATOM     24  H   UNL     1       6.624  -0.565  22.722  0.00  0.00    +0.222 HD
ENDBRANCH  21  23
BRANCH  21  25
ATOM     25  O   UNL     1       5.591  -3.260  21.612  0.00  0.00    -0.303 OA
ATOM     26  H   UNL     1       5.332  -2.590  20.953  0.00  0.00    +0.222 HD
ENDBRANCH  21  25
ENDBRANCH  20  21
ENDBRANCH   3  20
BRANCH   4  27
ATOM     27  C   UNL     1       7.755  -1.724  26.213  0.00  0.00    +0.206 C 
BRANCH  27  28
ATOM     28  O   UNL     1       9.048  -1.425  25.635  0.00  0.00    -0.284 OA
BRANCH  28  29
ATOM     29  P   UNL     1       9.126   0.013  24.674  0.00  0.00    +0.472 P 
ATOM     30  O   UNL     1       9.195   1.298  23.815  0.00  0.00    -0.228 OA
BRANCH  29  31
ATOM     31  O   UNL     1       9.881  -0.840  23.506  0.00  0.00    -0.303 OA
ATOM     32  H   UNL     1      10.773  -0.445  23.430  0.00  0.00    +0.222 HD
ENDBRANCH  29  31
BRANCH  29  33
ATOM     33  O   UNL     1      10.399   0.468  25.593  0.00  0.00    -0.303 OA
ATOM     34  H   UNL     1      11.203   0.526  25.047  0.00  0.00    +0.222 HD
ENDBRANCH  29  33
ENDBRANCH  28  29
ENDBRANCH  27  28
ENDBRANCH   4  27
TORSDOF 11
ENDMDL
MODEL 9
REMARK VINA RESULT:      -6.1      4.665      7.266
REMARK  Name = 
REMARK  11 active torsions:
REMARK  status: ('A' for Active; 'I' for Inactive)
REMARK    1  A    between atoms: N_10  and  C_11
REMARK    2  A    between atoms: C_14  and  C_16
REMARK    3  A    between atoms: C_16  and  O_17
REMARK    4  A    between atoms: O_17  and  P_18
REMARK    5  A    between atoms: P_18  and  O_19
REMARK    6  A    between atoms: P_18  and  O_20
REMARK    7  A    between atoms: C_22  and  O_24
REMARK    8  A    between atoms: O_24  and  P_25
REMARK    9  A    between atoms: P_25  and  O_26
REMARK   10  A    between atoms: P_25  and  O_27
REMARK   11  A    between atoms: C_29  and  O_31
REMARK                            x       y       z     vdW  Elec       q    Type
REMARK                         _______ _______ _______ _____ _____    ______ ____
ROOT
ATOM      1  C   UNL     1       7.996  -3.568  23.853  0.00  0.00    +0.253 C 
ATOM      2  C   UNL     1       6.936  -2.561  23.387  0.00  0.00    +0.196 C 
ATOM      3  C   UNL     1       7.446  -1.202  23.869  0.00  0.00    +0.194 C 
ATOM      4  C   UNL     1       8.839  -1.508  24.452  0.00  0.00    +0.179 C 
ATOM      5  O   UNL     1       9.222  -2.779  23.897  0.00  0.00    -0.346 OA
ENDROOT
BRANCH   1  13
ATOM      6  N   UNL     1       6.294  -6.789  28.703  0.00  0.00    -0.341 N 
ATOM      7  H   UNL     1       7.246  -6.724  29.045  0.00  0.00    +0.144 HD
ATOM      8  H   UNL     1       5.802  -7.661  28.851  0.00  0.00    +0.144 HD
ATOM      9  C   UNL     1       6.149  -6.331  27.401  0.00  0.00    +0.147 A 
ATOM     10  C   UNL     1       7.054  -5.447  26.791  0.00  0.00    +0.147 A 
ATOM     11  N   UNL     1       8.218  -4.852  27.235  0.00  0.00    -0.231 NA
ATOM     12  C   UNL     1       8.646  -4.140  26.212  0.00  0.00    +0.203 A 
ATOM     13  N   UNL     1       7.793  -4.216  25.136  0.00  0.00    -0.286 N 
ATOM     14  C   UNL     1       6.788  -5.080  25.482  0.00  0.00    +0.167 A 
ATOM     15  N   UNL     1       5.765  -5.507  24.728  0.00  0.00    -0.216 NA
ATOM     16  C   UNL     1       4.949  -6.338  25.416  0.00  0.00    +0.225 A 
ATOM     17  N   UNL     1       5.104  -6.784  26.678  0.00  0.00    -0.219 NA
ENDBRANCH   1  13
BRANCH   2  18
ATOM     18  O   UNL     1       6.895  -2.558  21.940  0.00  0.00    -0.385 OA
ATOM     19  H   UNL     1       6.765  -3.468  21.623  0.00  0.00    +0.210 HD
ENDBRANCH   2  18
BRANCH   3  20
ATOM     20  O   UNL     1       6.675  -0.586  24.886  0.00  0.00    -0.278 OA
BRANCH  20  21
ATOM     21  P   UNL     1       6.053   0.865  24.657  0.00  0.00    +0.473 P 
ATOM     22  O   UNL     1       4.637   1.082  25.054  0.00  0.00    -0.228 OA
BRANCH  21  23
ATOM     23  O   UNL     1       6.286   1.143  23.103  0.00  0.00    -0.303 OA
ATOM     24  H   UNL     1       7.109   1.653  22.971  0.00  0.00    +0.222 HD
ENDBRANCH  21  23
BRANCH  21  25
ATOM     25  O   UNL     1       7.132   1.835  25.308  0.00  0.00    -0.303 OA
ATOM     26  H   UNL     1       7.314   2.593  24.723  0.00  0.00    +0.222 HD
ENDBRANCH  21  25
ENDBRANCH  20  21
ENDBRANCH   3  20
BRANCH   4  27
ATOM     27  C   UNL     1       9.804  -0.376  24.107  0.00  0.00    +0.206 C 
BRANCH  27  28
ATOM     28  O   UNL     1       9.269   0.680  23.272  0.00  0.00    -0.284 OA
BRANCH  28  29
ATOM     29  P   UNL     1      10.177   2.153  23.252  0.00  0.00    +0.472 P 
ATOM     30  O   UNL     1      10.988   3.471  23.234  0.00  0.00    -0.228 OA
BRANCH  29  31
ATOM     31  O   UNL     1       8.789   2.981  23.478  0.00  0.00    -0.303 OA
ATOM     32  H   UNL     1       8.431   2.662  24.331  0.00  0.00    +0.222 HD
ENDBRANCH  29  31
BRANCH  29  33
ATOM     33  O   UNL     1      10.198   2.030  21.622  0.00  0.00    -0.303 OA
ATOM     34  H   UNL     1      11.116   2.049  21.296  0.00  0.00    +0.222 HD
ENDBRANCH  29  33
ENDBRANCH  28  29
ENDBRANCH  27  28
ENDBRANCH   4  27
TORSDOF 11
ENDMDL
