MODEL 1
REMARK VINA RESULT:      -5.5      0.000      0.000
REMARK  Name = 
REMARK  1 active torsions:
REMARK  status: ('A' for Active; 'I' for Inactive)
REMARK    1  A    between atoms: C_6  and  C_8
REMARK                            x       y       z     vdW  Elec       q    Type
REMARK                         _______ _______ _______ _____ _____    ______ ____
ROOT
ATOM      1  N   UNL     1       8.711   1.595  21.118  0.00  0.00    -0.315 N 
ATOM      2  H   UNL     1       8.335   1.012  20.380  0.00  0.00    +0.146 HD
ATOM      3  H   UNL     1       8.055   2.275  21.483  0.00  0.00    +0.146 HD
ATOM      4  C   UNL     1       9.383   0.923  22.073  0.00  0.00    +0.272 C 
ATOM      5  O   UNL     1       9.868  -0.263  21.654  0.00  0.00    -0.450 OA
ATOM      6  C   UNL     1      10.337  -0.931  22.842  0.00  0.00    +0.294 C 
ATOM      7  C   UNL     1      10.278   0.218  23.835  0.00  0.00    +0.286 C 
ATOM      8  O   UNL     1      10.763   0.203  24.960  0.00  0.00    -0.269 OA
ATOM      9  N   UNL     1       9.581   1.264  23.290  0.00  0.00    -0.128 NA
ENDROOT
BRANCH   6  10
ATOM     10  C   UNL     1       9.420  -2.105  23.125  0.00  0.00    +0.002 A 
ATOM     11  C   UNL     1       8.300  -2.393  22.329  0.00  0.00    +0.008 A 
ATOM     12  C   UNL     1       7.516  -3.522  22.584  0.00  0.00    +0.000 A 
ATOM     13  C   UNL     1       7.824  -4.365  23.649  0.00  0.00    +0.000 A 
ATOM     14  C   UNL     1       8.902  -4.069  24.478  0.00  0.00    +0.000 A 
ATOM     15  C   UNL     1       9.685  -2.942  24.224  0.00  0.00    +0.008 A 
ENDBRANCH   6  10
TORSDOF 1
ENDMDL
MODEL 2
REMARK VINA RESULT:      -5.5      3.529      4.978
REMARK  Name = 
REMARK  1 active torsions:
REMARK  status: ('A' for Active; 'I' for Inactive)
REMARK    1  A    between atoms: C_6  and  C_8
REMARK                            x       y       z     vdW  Elec       q    Type
REMARK                         _______ _______ _______ _____ _____    ______ ____
ROOT
ATOM      1  N   UNL     1      10.322  -5.654  25.657  0.00  0.00    -0.315 N 
ATOM      2  H   UNL     1      10.938  -5.733  24.857  0.00  0.00    +0.146 HD
ATOM      3  H   UNL     1      10.803  -5.572  26.544  0.00  0.00    +0.146 HD
ATOM      4  C   UNL     1       9.315  -4.772  25.502  0.00  0.00    +0.272 C 
ATOM      5  O   UNL     1       8.999  -4.541  24.212  0.00  0.00    -0.450 OA
ATOM      6  C   UNL     1       8.090  -3.422  24.231  0.00  0.00    +0.294 C 
ATOM      7  C   UNL     1       7.791  -3.347  25.720  0.00  0.00    +0.286 C 
ATOM      8  O   UNL     1       6.909  -2.665  26.228  0.00  0.00    -0.269 OA
ATOM      9  N   UNL     1       8.672  -4.139  26.408  0.00  0.00    -0.128 NA
ENDROOT
BRANCH   6  10
ATOM     10  C   UNL     1       8.795  -2.221  23.631  0.00  0.00    +0.002 A 
ATOM     11  C   UNL     1       9.570  -1.342  24.402  0.00  0.00    +0.008 A 
ATOM     12  C   UNL     1      10.257  -0.284  23.801  0.00  0.00    +0.000 A 
ATOM     13  C   UNL     1      10.162  -0.075  22.428  0.00  0.00    +0.000 A 
ATOM     14  C   UNL     1       9.360  -0.908  21.654  0.00  0.00    +0.000 A 
ATOM     15  C   UNL     1       8.674  -1.965  22.252  0.00  0.00    +0.008 A 
ENDBRANCH   6  10
TORSDOF 1
ENDMDL
MODEL 3
REMARK VINA RESULT:      -5.3      2.518      4.669
REMARK  Name = 
REMARK  1 active torsions:
REMARK  status: ('A' for Active; 'I' for Inactive)
REMARK    1  A    between atoms: C_6  and  C_8
REMARK                            x       y       z     vdW  Elec       q    Type
REMARK                         _______ _______ _______ _____ _____    ______ ____
ROOT
ATOM      1  N   UNL     1       8.624  -3.167  26.284  0.00  0.00    -0.315 N 
ATOM      2  H   UNL     1       9.391  -2.747  26.795  0.00  0.00    +0.146 HD
ATOM      3  H   UNL     1       7.719  -3.044  26.722  0.00  0.00    +0.146 HD
ATOM      4  C   UNL     1       8.627  -2.912  24.962  0.00  0.00    +0.272 C 
ATOM      5  O   UNL     1       9.847  -2.602  24.478  0.00  0.00    -0.450 OA
ATOM      6  C   UNL     1       9.624  -2.138  23.132  0.00  0.00    +0.294 C 
ATOM      7  C   UNL     1       8.172  -2.549  22.946  0.00  0.00    +0.286 C 
ATOM      8  O   UNL     1       7.568  -2.539  21.880  0.00  0.00    -0.269 OA
ATOM      9  N   UNL     1       7.635  -2.907  24.155  0.00  0.00    -0.128 NA
ENDROOT
BRANCH   6  10
ATOM     10  C   UNL     1       9.907  -0.649  23.085  0.00  0.00    +0.002 A 
ATOM     11  C   UNL     1       9.708   0.118  21.927  0.00  0.00    +0.008 A 
ATOM     12  C   UNL     1       9.920   1.499  21.942  0.00  0.00    +0.000 A 
ATOM     13  C   UNL     1      10.354   2.130  23.106  0.00  0.00    +0.000 A 
ATOM     14  C   UNL     1      10.603   1.379  24.250  0.00  0.00    +0.000 A 
ATOM     15  C   UNL     1      10.392  -0.000  24.236  0.00  0.00    +0.008 A 
ENDBRANCH   6  10
TORSDOF 1
ENDMDL
MODEL 4
REMARK VINA RESULT:      -5.3      2.687      4.420
REMARK  Name = 
REMARK  1 active torsions:
REMARK  status: ('A' for Active; 'I' for Inactive)
REMARK    1  A    between atoms: C_6  and  C_8
REMARK                            x       y       z     vdW  Elec       q    Type
REMARK                         _______ _______ _______ _____ _____    ______ ____
ROOT
ATOM      1  N   UNL     1       5.768  -2.484  22.324  0.00  0.00    -0.315 N 
ATOM      2  H   UNL     1       5.292  -1.592  22.270  0.00  0.00    +0.146 HD
ATOM      3  H   UNL     1       5.803  -2.989  21.446  0.00  0.00    +0.146 HD
ATOM      4  C   UNL     1       6.946  -2.450  22.978  0.00  0.00    +0.272 C 
ATOM      5  O   UNL     1       7.045  -1.427  23.850  0.00  0.00    -0.450 OA
ATOM      6  C   UNL     1       8.424  -1.409  24.270  0.00  0.00    +0.294 C 
ATOM      7  C   UNL     1       8.891  -2.741  23.706  0.00  0.00    +0.286 C 
ATOM      8  O   UNL     1       9.962  -3.279  23.965  0.00  0.00    -0.269 OA
ATOM      9  N   UNL     1       7.946  -3.236  22.848  0.00  0.00    -0.128 NA
ENDROOT
BRANCH   6  10
ATOM     10  C   UNL     1       9.084  -0.171  23.694  0.00  0.00    +0.002 A 
ATOM     11  C   UNL     1       9.210   0.038  22.312  0.00  0.00    +0.008 A 
ATOM     12  C   UNL     1       9.766   1.222  21.819  0.00  0.00    +0.000 A 
ATOM     13  C   UNL     1      10.226   2.201  22.696  0.00  0.00    +0.000 A 
ATOM     14  C   UNL     1      10.153   1.989  24.070  0.00  0.00    +0.000 A 
ATOM     15  C   UNL     1       9.598   0.808  24.563  0.00  0.00    +0.008 A 
ENDBRANCH   6  10
TORSDOF 1
ENDMDL
MODEL 5
REMARK VINA RESULT:      -5.1      3.874      5.520
REMARK  Name = 
REMARK  1 active torsions:
REMARK  status: ('A' for Active; 'I' for Inactive)
REMARK    1  A    between atoms: C_6  and  C_8
REMARK                            x       y       z     vdW  Elec       q    Type
REMARK                         _______ _______ _______ _____ _____    ______ ____
ROOT
ATOM      1  N   UNL     1       7.953  -5.828  27.143  0.00  0.00    -0.315 N 
ATOM      2  H   UNL     1       8.756  -5.549  27.694  0.00  0.00    +0.146 HD
ATOM      3  H   UNL     1       7.077  -5.813  27.652  0.00  0.00    +0.146 HD
ATOM      4  C   UNL     1       7.884  -5.256  25.926  0.00  0.00    +0.272 C 
ATOM      5  O   UNL     1       9.080  -4.843  25.459  0.00  0.00    -0.450 OA
ATOM      6  C   UNL     1       8.788  -4.062  24.284  0.00  0.00    +0.294 C 
ATOM      7  C   UNL     1       7.320  -4.408  24.092  0.00  0.00    +0.286 C 
ATOM      8  O   UNL     1       6.655  -4.135  23.099  0.00  0.00    -0.269 OA
ATOM      9  N   UNL     1       6.847  -5.049  25.206  0.00  0.00    -0.128 NA
ENDROOT
BRANCH   6  10
ATOM     10  C   UNL     1       9.096  -2.608  24.586  0.00  0.00    +0.002 A 
ATOM     11  C   UNL     1       8.610  -1.959  25.731  0.00  0.00    +0.008 A 
ATOM     12  C   UNL     1       8.970  -0.637  26.007  0.00  0.00    +0.000 A 
ATOM     13  C   UNL     1       9.800   0.062  25.134  0.00  0.00    +0.000 A 
ATOM     14  C   UNL     1      10.253  -0.550  23.969  0.00  0.00    +0.000 A 
ATOM     15  C   UNL     1       9.894  -1.870  23.692  0.00  0.00    +0.008 A 
ENDBRANCH   6  10
TORSDOF 1
ENDMDL
MODEL 6
REMARK VINA RESULT:      -5.1      1.937      2.604
REMARK  Name = 
REMARK  1 active torsions:
REMARK  status: ('A' for Active; 'I' for Inactive)
REMARK    1  A    between atoms: C_6  and  C_8
REMARK                            x       y       z     vdW  Elec       q    Type
REMARK                         _______ _______ _______ _____ _____    ______ ____
ROOT
ATOM      1  N   UNL     1      10.148   2.196  21.572  0.00  0.00    -0.315 N 
ATOM      2  H   UNL     1      10.772   1.470  21.240  0.00  0.00    +0.146 HD
ATOM      3  H   UNL     1       9.386   2.408  20.940  0.00  0.00    +0.146 HD
ATOM      4  C   UNL     1       9.766   2.058  22.857  0.00  0.00    +0.272 C 
ATOM      5  O   UNL     1      10.626   1.330  23.597  0.00  0.00    -0.450 OA
ATOM      6  C   UNL     1       9.953   1.092  24.849  0.00  0.00    +0.294 C 
ATOM      7  C   UNL     1       8.784   2.055  24.711  0.00  0.00    +0.286 C 
ATOM      8  O   UNL     1       8.015   2.363  25.613  0.00  0.00    -0.269 OA
ATOM      9  N   UNL     1       8.708   2.505  23.420  0.00  0.00    -0.128 NA
ENDROOT
BRANCH   6  10
ATOM     10  C   UNL     1       9.599  -0.380  24.931  0.00  0.00    +0.002 A 
ATOM     11  C   UNL     1       8.854  -0.916  25.993  0.00  0.00    +0.008 A 
ATOM     12  C   UNL     1       8.492  -2.266  26.000  0.00  0.00    +0.000 A 
ATOM     13  C   UNL     1       8.888  -3.104  24.961  0.00  0.00    +0.000 A 
ATOM     14  C   UNL     1       9.668  -2.601  23.924  0.00  0.00    +0.000 A 
ATOM     15  C   UNL     1      10.029  -1.254  23.916  0.00  0.00    +0.008 A 
ENDBRANCH   6  10
TORSDOF 1
ENDMDL
MODEL 7
REMARK VINA RESULT:      -5.0      2.005      2.981
REMARK  Name = 
REMARK  1 active torsions:
REMARK  status: ('A' for Active; 'I' for Inactive)
REMARK    1  A    between atoms: C_6  and  C_8
REMARK                            x       y       z     vdW  Elec       q    Type
REMARK                         _______ _______ _______ _____ _____    ______ ____
ROOT
ATOM      1  N   UNL     1       6.385   0.000  23.103  0.00  0.00    -0.315 N 
ATOM      2  H   UNL     1       5.535  -0.444  23.428  0.00  0.00    +0.146 HD
ATOM      3  H   UNL     1       6.637   0.837  23.615  0.00  0.00    +0.146 HD
ATOM      4  C   UNL     1       7.416  -0.844  22.904  0.00  0.00    +0.272 C 
ATOM      5  O   UNL     1       7.031  -2.116  22.676  0.00  0.00    -0.450 OA
ATOM      6  C   UNL     1       8.239  -2.900  22.723  0.00  0.00    +0.294 C 
ATOM      7  C   UNL     1       9.278  -1.790  22.709  0.00  0.00    +0.286 C 
ATOM      8  O   UNL     1      10.482  -1.954  22.545  0.00  0.00    -0.269 OA
ATOM      9  N   UNL     1       8.668  -0.585  22.931  0.00  0.00    -0.128 NA
ENDROOT
BRANCH   6  10
ATOM     10  C   UNL     1       8.202  -3.764  23.969  0.00  0.00    +0.002 A 
ATOM     11  C   UNL     1       9.321  -3.933  24.799  0.00  0.00    +0.008 A 
ATOM     12  C   UNL     1       9.229  -4.685  25.974  0.00  0.00    +0.000 A 
ATOM     13  C   UNL     1       8.028  -5.296  26.324  0.00  0.00    +0.000 A 
ATOM     14  C   UNL     1       6.921  -5.179  25.488  0.00  0.00    +0.000 A 
ATOM     15  C   UNL     1       7.012  -4.429  24.316  0.00  0.00    +0.008 A 
ENDBRANCH   6  10
TORSDOF 1
ENDMDL
MODEL 8
REMARK VINA RESULT:      -5.0      2.822      4.637
REMARK  Name = 
REMARK  1 active torsions:
REMARK  status: ('A' for Active; 'I' for Inactive)
REMARK    1  A    between atoms: C_6  and  C_8
REMARK                            x       y       z     vdW  Elec       q    Type
REMARK                         _______ _______ _______ _____ _____    ______ ____
ROOT
ATOM      1  N   UNL     1       5.818  -2.265  24.670  0.00  0.00    -0.315 N 
ATOM      2  H   UNL     1       5.423  -1.341  24.794  0.00  0.00    +0.146 HD
ATOM      3  H   UNL     1       5.373  -2.811  23.942  0.00  0.00    +0.146 HD
ATOM      4  C   UNL     1       7.164  -2.296  24.625  0.00  0.00    +0.272 C 
ATOM      5  O   UNL     1       7.745  -1.244  25.237  0.00  0.00    -0.450 OA
ATOM      6  C   UNL     1       9.143  -1.319  24.892  0.00  0.00    +0.294 C 
ATOM      7  C   UNL     1       9.192  -2.710  24.280  0.00  0.00    +0.286 C 
ATOM      8  O   UNL     1      10.217  -3.320  23.999  0.00  0.00    -0.269 OA
ATOM      9  N   UNL     1       7.918  -3.166  24.068  0.00  0.00    -0.128 NA
ENDROOT
BRANCH   6  10
ATOM     10  C   UNL     1       9.468  -0.168  23.959  0.00  0.00    +0.002 A 
ATOM     11  C   UNL     1       9.999   1.046  24.421  0.00  0.00    +0.008 A 
ATOM     12  C   UNL     1      10.346   2.059  23.523  0.00  0.00    +0.000 A 
ATOM     13  C   UNL     1      10.146   1.885  22.156  0.00  0.00    +0.000 A 
ATOM     14  C   UNL     1       9.575   0.707  21.684  0.00  0.00    +0.000 A 
ATOM     15  C   UNL     1       9.228  -0.306  22.579  0.00  0.00    +0.008 A 
ENDBRANCH   6  10
TORSDOF 1
ENDMDL
MODEL 9
REMARK VINA RESULT:      -5.0      3.442      4.640
REMARK  Name = 
REMARK  1 active torsions:
REMARK  status: ('A' for Active; 'I' for Inactive)
REMARK    1  A    between atoms: C_6  and  C_8
REMARK                            x       y       z     vdW  Elec       q    Type
REMARK                         _______ _______ _______ _____ _____    ______ ____
ROOT
ATOM      1  N   UNL     1       6.696  -5.327  21.819  0.00  0.00    -0.315 N 
ATOM      2  H   UNL     1       6.276  -4.640  21.204  0.00  0.00    +0.146 HD
ATOM      3  H   UNL     1       7.198  -6.062  21.336  0.00  0.00    +0.146 HD
ATOM      4  C   UNL     1       7.369  -4.805  22.862  0.00  0.00    +0.272 C 
ATOM      5  O   UNL     1       6.962  -3.563  23.196  0.00  0.00    -0.450 OA
ATOM      6  C   UNL     1       7.929  -3.083  24.151  0.00  0.00    +0.294 C 
ATOM      7  C   UNL     1       8.677  -4.374  24.444  0.00  0.00    +0.286 C 
ATOM      8  O   UNL     1       9.486  -4.528  25.352  0.00  0.00    -0.269 OA
ATOM      9  N   UNL     1       8.328  -5.328  23.527  0.00  0.00    -0.128 NA
ENDROOT
BRANCH   6  10
ATOM     10  C   UNL     1       8.736  -1.976  23.501  0.00  0.00    +0.002 A 
ATOM     11  C   UNL     1       8.648  -1.687  22.131  0.00  0.00    +0.008 A 
ATOM     12  C   UNL     1       9.359  -0.617  21.581  0.00  0.00    +0.000 A 
ATOM     13  C   UNL     1      10.186   0.163  22.385  0.00  0.00    +0.000 A 
ATOM     14  C   UNL     1      10.324  -0.138  23.736  0.00  0.00    +0.000 A 
ATOM     15  C   UNL     1       9.614  -1.206  24.287  0.00  0.00    +0.008 A 
ENDBRANCH   6  10
TORSDOF 1
ENDMDL
