MODEL 1
REMARK VINA RESULT:      -5.2      0.000      0.000
REMARK  Name = 
REMARK  4 active torsions:
REMARK  status: ('A' for Active; 'I' for Inactive)
REMARK    1  A    between atoms: C_7  and  C_9
REMARK    2  A    between atoms: C_9  and  O_10
REMARK    3  A    between atoms: C_14  and  C_15
REMARK    4  A    between atoms: C_15  and  O_16
REMARK                            x       y       z     vdW  Elec       q    Type
REMARK                         _______ _______ _______ _____ _____    ______ ____
ROOT
ATOM      1  C   UNL     1       7.581  -2.543  24.357  0.00  0.00    +0.274 C 
ATOM      2  O   UNL     1       6.729  -3.503  23.692  0.00  0.00    -0.472 OA
ATOM      3  C   UNL     1       7.564  -4.610  23.477  0.00  0.00    +0.130 C 
ATOM      4  C   UNL     1       7.230  -5.552  22.582  0.00  0.00    +0.044 C 
ATOM      5  C   UNL     1       8.896  -4.521  24.197  0.00  0.00    +0.253 C 
ATOM      6  N   UNL     1       8.946  -3.093  24.496  0.00  0.00    -0.245 N 
ATOM      7  C   UNL     1       9.448  -2.269  23.519  0.00  0.00    +0.224 C 
ATOM      8  O   UNL     1      10.454  -2.357  22.856  0.00  0.00    -0.275 OA
ATOM      9  C   UNL     1       8.180  -1.405  23.521  0.00  0.00    +0.161 C 
ENDROOT
BRANCH   5  10
ATOM     10  C   UNL     1       8.877  -5.340  25.499  0.00  0.00    +0.333 C 
ATOM     11  O   UNL     1       7.865  -5.677  26.096  0.00  0.00    -0.248 OA
BRANCH  10  12
ATOM     12  O   UNL     1      10.117  -5.693  25.935  0.00  0.00    -0.479 OA
ATOM     13  H   UNL     1      10.669  -4.895  26.067  0.00  0.00    +0.295 HD
ENDBRANCH  10  12
ENDBRANCH   5  10
BRANCH   4  14
ATOM     14  C   UNL     1       5.952  -5.596  21.813  0.00  0.00    +0.186 C 
BRANCH  14  15
ATOM     15  O   UNL     1       5.793  -4.350  21.153  0.00  0.00    -0.391 OA
ATOM     16  H   UNL     1       6.221  -3.682  21.713  0.00  0.00    +0.210 HD
ENDBRANCH  14  15
ENDBRANCH   4  14
TORSDOF 4
ENDMDL
MODEL 2
REMARK VINA RESULT:      -5.0      1.548      3.842
REMARK  Name = 
REMARK  4 active torsions:
REMARK  status: ('A' for Active; 'I' for Inactive)
REMARK    1  A    between atoms: C_7  and  C_9
REMARK    2  A    between atoms: C_9  and  O_10
REMARK    3  A    between atoms: C_14  and  C_15
REMARK    4  A    between atoms: C_15  and  O_16
REMARK                            x       y       z     vdW  Elec       q    Type
REMARK                         _______ _______ _______ _____ _____    ______ ____
ROOT
ATOM      1  C   UNL     1       9.014  -2.223  22.695  0.00  0.00    +0.274 C 
ATOM      2  O   UNL     1       9.432  -3.217  23.658  0.00  0.00    -0.472 OA
ATOM      3  C   UNL     1       8.243  -3.875  24.009  0.00  0.00    +0.130 C 
ATOM      4  C   UNL     1       8.177  -4.615  25.125  0.00  0.00    +0.044 C 
ATOM      5  C   UNL     1       7.063  -3.517  23.126  0.00  0.00    +0.253 C 
ATOM      6  N   UNL     1       7.548  -2.284  22.512  0.00  0.00    -0.245 N 
ATOM      7  C   UNL     1       7.346  -1.119  23.210  0.00  0.00    +0.224 C 
ATOM      8  O   UNL     1       6.354  -0.684  23.746  0.00  0.00    -0.275 OA
ATOM      9  C   UNL     1       8.841  -0.775  23.175  0.00  0.00    +0.161 C 
ENDROOT
BRANCH   5  10
ATOM     10  C   UNL     1       6.828  -4.593  22.052  0.00  0.00    +0.333 C 
ATOM     11  O   UNL     1       7.438  -5.651  21.981  0.00  0.00    -0.248 OA
BRANCH  10  12
ATOM     12  O   UNL     1       5.839  -4.276  21.174  0.00  0.00    -0.479 OA
ATOM     13  H   UNL     1       5.365  -5.086  20.891  0.00  0.00    +0.295 HD
ENDBRANCH  10  12
ENDBRANCH   5  10
BRANCH   4  14
ATOM     14  C   UNL     1       9.322  -4.900  26.039  0.00  0.00    +0.186 C 
BRANCH  14  15
ATOM     15  O   UNL     1      10.309  -5.604  25.301  0.00  0.00    -0.391 OA
ATOM     16  H   UNL     1      10.834  -6.104  25.946  0.00  0.00    +0.210 HD
ENDBRANCH  14  15
ENDBRANCH   4  14
TORSDOF 4
ENDMDL
MODEL 3
REMARK VINA RESULT:      -5.0      1.592      3.643
REMARK  Name = 
REMARK  4 active torsions:
REMARK  status: ('A' for Active; 'I' for Inactive)
REMARK    1  A    between atoms: C_7  and  C_9
REMARK    2  A    between atoms: C_9  and  O_10
REMARK    3  A    between atoms: C_14  and  C_15
REMARK    4  A    between atoms: C_15  and  O_16
REMARK                            x       y       z     vdW  Elec       q    Type
REMARK                         _______ _______ _______ _____ _____    ______ ____
ROOT
ATOM      1  C   UNL     1       6.981  -5.249  22.629  0.00  0.00    +0.274 C 
ATOM      2  O   UNL     1       7.754  -4.086  22.254  0.00  0.00    -0.472 OA
ATOM      3  C   UNL     1       8.060  -3.470  23.478  0.00  0.00    +0.130 C 
ATOM      4  C   UNL     1       8.460  -2.190  23.515  0.00  0.00    +0.044 C 
ATOM      5  C   UNL     1       7.722  -4.316  24.690  0.00  0.00    +0.253 C 
ATOM      6  N   UNL     1       6.806  -5.286  24.096  0.00  0.00    -0.245 N 
ATOM      7  C   UNL     1       5.484  -4.924  24.014  0.00  0.00    +0.224 C 
ATOM      8  O   UNL     1       4.744  -4.450  24.842  0.00  0.00    -0.275 OA
ATOM      9  C   UNL     1       5.454  -5.177  22.500  0.00  0.00    +0.161 C 
ENDROOT
BRANCH   5  10
ATOM     10  C   UNL     1       8.974  -5.026  25.235  0.00  0.00    +0.333 C 
ATOM     11  O   UNL     1      10.110  -4.855  24.817  0.00  0.00    -0.248 OA
BRANCH  10  12
ATOM     12  O   UNL     1       8.711  -5.870  26.270  0.00  0.00    -0.479 OA
ATOM     13  H   UNL     1       9.389  -5.769  26.969  0.00  0.00    +0.295 HD
ENDBRANCH  10  12
ENDBRANCH   5  10
BRANCH   4  14
ATOM     14  C   UNL     1       8.714  -1.332  22.322  0.00  0.00    +0.186 C 
BRANCH  14  15
ATOM     15  O   UNL     1       9.845  -1.850  21.640  0.00  0.00    -0.391 OA
ATOM     16  H   UNL     1      10.228  -1.112  21.137  0.00  0.00    +0.210 HD
ENDBRANCH  14  15
ENDBRANCH   4  14
TORSDOF 4
ENDMDL
MODEL 4
REMARK VINA RESULT:      -5.0      1.763      4.054
REMARK  Name = 
REMARK  4 active torsions:
REMARK  status: ('A' for Active; 'I' for Inactive)
REMARK    1  A    between atoms: C_7  and  C_9
REMARK    2  A    between atoms: C_9  and  O_10
REMARK    3  A    between atoms: C_14  and  C_15
REMARK    4  A    between atoms: C_15  and  O_16
REMARK                            x       y       z     vdW  Elec       q    Type
REMARK                         _______ _______ _______ _____ _____    ______ ____
ROOT
ATOM      1  C   UNL     1       7.228  -5.815  22.682  0.00  0.00    +0.274 C 
ATOM      2  O   UNL     1       8.176  -4.790  23.062  0.00  0.00    -0.472 OA
ATOM      3  C   UNL     1       7.573  -4.155  24.158  0.00  0.00    +0.130 C 
ATOM      4  C   UNL     1       7.985  -2.942  24.555  0.00  0.00    +0.044 C 
ATOM      5  C   UNL     1       6.350  -4.879  24.688  0.00  0.00    +0.253 C 
ATOM      6  N   UNL     1       6.037  -5.746  23.555  0.00  0.00    -0.245 N 
ATOM      7  C   UNL     1       5.257  -5.212  22.560  0.00  0.00    +0.224 C 
ATOM      8  O   UNL     1       4.219  -4.597  22.617  0.00  0.00    -0.275 OA
ATOM      9  C   UNL     1       6.305  -5.541  21.488  0.00  0.00    +0.161 C 
ENDROOT
BRANCH   5  10
ATOM     10  C   UNL     1       6.700  -5.722  25.926  0.00  0.00    +0.333 C 
ATOM     11  O   UNL     1       7.787  -5.721  26.486  0.00  0.00    -0.248 OA
BRANCH  10  12
ATOM     12  O   UNL     1       5.662  -6.476  26.380  0.00  0.00    -0.479 OA
ATOM     13  H   UNL     1       4.816  -5.998  26.254  0.00  0.00    +0.295 HD
ENDBRANCH  10  12
ENDBRANCH   5  10
BRANCH   4  14
ATOM     14  C   UNL     1       9.140  -2.194  23.978  0.00  0.00    +0.186 C 
BRANCH  14  15
ATOM     15  O   UNL     1      10.246  -3.079  23.903  0.00  0.00    -0.391 OA
ATOM     16  H   UNL     1      10.302  -3.376  22.980  0.00  0.00    +0.210 HD
ENDBRANCH  14  15
ENDBRANCH   4  14
TORSDOF 4
ENDMDL
MODEL 5
REMARK VINA RESULT:      -4.9      3.408      5.214
REMARK  Name = 
REMARK  4 active torsions:
REMARK  status: ('A' for Active; 'I' for Inactive)
REMARK    1  A    between atoms: C_7  and  C_9
REMARK    2  A    between atoms: C_9  and  O_10
REMARK    3  A    between atoms: C_14  and  C_15
REMARK    4  A    between atoms: C_15  and  O_16
REMARK                            x       y       z     vdW  Elec       q    Type
REMARK                         _______ _______ _______ _____ _____    ______ ____
ROOT
ATOM      1  C   UNL     1       7.225  -0.381  23.309  0.00  0.00    +0.274 C 
ATOM      2  O   UNL     1       8.197   0.595  22.869  0.00  0.00    -0.472 OA
ATOM      3  C   UNL     1       9.357   0.272  23.590  0.00  0.00    +0.130 C 
ATOM      4  C   UNL     1      10.354   1.161  23.711  0.00  0.00    +0.044 C 
ATOM      5  C   UNL     1       9.271  -1.050  24.327  0.00  0.00    +0.253 C 
ATOM      6  N   UNL     1       7.827  -1.263  24.332  0.00  0.00    -0.245 N 
ATOM      7  C   UNL     1       7.114  -0.680  25.350  0.00  0.00    +0.224 C 
ATOM      8  O   UNL     1       7.306  -0.673  26.542  0.00  0.00    -0.275 OA
ATOM      9  C   UNL     1       6.193   0.047  24.361  0.00  0.00    +0.161 C 
ENDROOT
BRANCH   5  10
ATOM     10  C   UNL     1       9.975  -2.169  23.540  0.00  0.00    +0.333 C 
ATOM     11  O   UNL     1      10.225  -3.281  23.982  0.00  0.00    -0.248 OA
BRANCH  10  12
ATOM     12  O   UNL     1      10.286  -1.820  22.262  0.00  0.00    -0.479 OA
ATOM     13  H   UNL     1      10.050  -2.545  21.646  0.00  0.00    +0.295 HD
ENDBRANCH  10  12
ENDBRANCH   5  10
BRANCH   4  14
ATOM     14  C   UNL     1      10.402   2.498  23.049  0.00  0.00    +0.186 C 
BRANCH  14  15
ATOM     15  O   UNL     1      10.253   2.303  21.651  0.00  0.00    -0.391 OA
ATOM     16  H   UNL     1      10.245   3.186  21.248  0.00  0.00    +0.210 HD
ENDBRANCH  14  15
ENDBRANCH   4  14
TORSDOF 4
ENDMDL
MODEL 6
REMARK VINA RESULT:      -4.8      1.786      4.321
REMARK  Name = 
REMARK  4 active torsions:
REMARK  status: ('A' for Active; 'I' for Inactive)
REMARK    1  A    between atoms: C_7  and  C_9
REMARK    2  A    between atoms: C_9  and  O_10
REMARK    3  A    between atoms: C_14  and  C_15
REMARK    4  A    between atoms: C_15  and  O_16
REMARK                            x       y       z     vdW  Elec       q    Type
REMARK                         _______ _______ _______ _____ _____    ______ ____
ROOT
ATOM      1  C   UNL     1       6.065  -2.420  23.869  0.00  0.00    +0.274 C 
ATOM      2  O   UNL     1       7.060  -2.940  24.781  0.00  0.00    -0.472 OA
ATOM      3  C   UNL     1       8.167  -3.210  23.962  0.00  0.00    +0.130 C 
ATOM      4  C   UNL     1       9.147  -4.022  24.386  0.00  0.00    +0.044 C 
ATOM      5  C   UNL     1       8.037  -2.658  22.556  0.00  0.00    +0.253 C 
ATOM      6  N   UNL     1       6.597  -2.423  22.490  0.00  0.00    -0.245 N 
ATOM      7  C   UNL     1       5.809  -3.484  22.118  0.00  0.00    +0.224 C 
ATOM      8  O   UNL     1       5.914  -4.259  21.197  0.00  0.00    -0.275 OA
ATOM      9  C   UNL     1       4.956  -3.366  23.389  0.00  0.00    +0.161 C 
ENDROOT
BRANCH   5  10
ATOM     10  C   UNL     1       8.803  -1.332  22.409  0.00  0.00    +0.333 C 
ATOM     11  O   UNL     1       8.821  -0.441  23.246  0.00  0.00    -0.248 OA
BRANCH  10  12
ATOM     12  O   UNL     1       9.502  -1.236  21.245  0.00  0.00    -0.479 OA
ATOM     13  H   UNL     1      10.192  -1.931  21.207  0.00  0.00    +0.295 HD
ENDBRANCH  10  12
ENDBRANCH   5  10
BRANCH   4  14
ATOM     14  C   UNL     1       9.233  -4.631  25.746  0.00  0.00    +0.186 C 
BRANCH  14  15
ATOM     15  O   UNL     1       9.890  -5.883  25.627  0.00  0.00    -0.391 OA
ATOM     16  H   UNL     1       9.489  -6.335  24.866  0.00  0.00    +0.210 HD
ENDBRANCH  14  15
ENDBRANCH   4  14
TORSDOF 4
ENDMDL
MODEL 7
REMARK VINA RESULT:      -4.7      1.810      3.865
REMARK  Name = 
REMARK  4 active torsions:
REMARK  status: ('A' for Active; 'I' for Inactive)
REMARK    1  A    between atoms: C_7  and  C_9
REMARK    2  A    between atoms: C_9  and  O_10
REMARK    3  A    between atoms: C_14  and  C_15
REMARK    4  A    between atoms: C_15  and  O_16
REMARK                            x       y       z     vdW  Elec       q    Type
REMARK                         _______ _______ _______ _____ _____    ______ ____
ROOT
ATOM      1  C   UNL     1       6.121  -3.340  23.523  0.00  0.00    +0.274 C 
ATOM      2  O   UNL     1       6.139  -3.780  24.900  0.00  0.00    -0.472 OA
ATOM      3  C   UNL     1       7.407  -4.361  25.057  0.00  0.00    +0.130 C 
ATOM      4  C   UNL     1       7.657  -5.186  26.085  0.00  0.00    +0.044 C 
ATOM      5  C   UNL     1       8.344  -4.110  23.891  0.00  0.00    +0.253 C 
ATOM      6  N   UNL     1       7.390  -3.707  22.861  0.00  0.00    -0.245 N 
ATOM      7  C   UNL     1       6.798  -4.710  22.134  0.00  0.00    +0.224 C 
ATOM      8  O   UNL     1       7.278  -5.670  21.580  0.00  0.00    -0.275 OA
ATOM      9  C   UNL     1       5.391  -4.213  22.492  0.00  0.00    +0.161 C 
ENDROOT
BRANCH   5  10
ATOM     10  C   UNL     1       9.315  -2.958  24.201  0.00  0.00    +0.333 C 
ATOM     11  O   UNL     1      10.392  -2.787  23.648  0.00  0.00    -0.248 OA
BRANCH  10  12
ATOM     12  O   UNL     1       8.855  -2.102  25.153  0.00  0.00    -0.479 OA
ATOM     13  H   UNL     1       8.122  -2.516  25.654  0.00  0.00    +0.295 HD
ENDBRANCH  10  12
ENDBRANCH   5  10
BRANCH   4  14
ATOM     14  C   UNL     1       6.704  -5.497  27.191  0.00  0.00    +0.186 C 
BRANCH  14  15
ATOM     15  O   UNL     1       7.397  -6.256  28.168  0.00  0.00    -0.391 OA
ATOM     16  H   UNL     1       7.856  -5.619  28.740  0.00  0.00    +0.210 HD
ENDBRANCH  14  15
ENDBRANCH   4  14
TORSDOF 4
ENDMDL
MODEL 8
REMARK VINA RESULT:      -4.7      1.780      4.080
REMARK  Name = 
REMARK  4 active torsions:
REMARK  status: ('A' for Active; 'I' for Inactive)
REMARK    1  A    between atoms: C_7  and  C_9
REMARK    2  A    between atoms: C_9  and  O_10
REMARK    3  A    between atoms: C_14  and  C_15
REMARK    4  A    between atoms: C_15  and  O_16
REMARK                            x       y       z     vdW  Elec       q    Type
REMARK                         _______ _______ _______ _____ _____    ______ ____
ROOT
ATOM      1  C   UNL     1       6.885  -3.543  24.784  0.00  0.00    +0.274 C 
ATOM      2  O   UNL     1       7.216  -2.290  24.143  0.00  0.00    -0.472 OA
ATOM      3  C   UNL     1       7.682  -2.668  22.874  0.00  0.00    +0.130 C 
ATOM      4  C   UNL     1       8.404  -1.816  22.131  0.00  0.00    +0.044 C 
ATOM      5  C   UNL     1       7.447  -4.130  22.546  0.00  0.00    +0.253 C 
ATOM      6  N   UNL     1       7.200  -4.669  23.880  0.00  0.00    -0.245 N 
ATOM      7  C   UNL     1       8.298  -5.039  24.616  0.00  0.00    +0.224 C 
ATOM      8  O   UNL     1       9.257  -5.710  24.317  0.00  0.00    -0.275 OA
ATOM      9  C   UNL     1       7.887  -4.133  25.785  0.00  0.00    +0.161 C 
ENDROOT
BRANCH   5  10
ATOM     10  C   UNL     1       6.202  -4.304  21.659  0.00  0.00    +0.333 C 
ATOM     11  O   UNL     1       6.019  -5.237  20.890  0.00  0.00    -0.248 OA
BRANCH  10  12
ATOM     12  O   UNL     1       5.279  -3.318  21.821  0.00  0.00    -0.479 OA
ATOM     13  H   UNL     1       5.500  -2.772  22.605  0.00  0.00    +0.295 HD
ENDBRANCH  10  12
ENDBRANCH   5  10
BRANCH   4  14
ATOM     14  C   UNL     1       8.704  -0.399  22.493  0.00  0.00    +0.186 C 
BRANCH  14  15
ATOM     15  O   UNL     1       7.472   0.287  22.645  0.00  0.00    -0.391 OA
ATOM     16  H   UNL     1       7.672   1.116  23.111  0.00  0.00    +0.210 HD
ENDBRANCH  14  15
ENDBRANCH   4  14
TORSDOF 4
ENDMDL
MODEL 9
REMARK VINA RESULT:      -4.7      1.699      1.825
REMARK  Name = 
REMARK  4 active torsions:
REMARK  status: ('A' for Active; 'I' for Inactive)
REMARK    1  A    between atoms: C_7  and  C_9
REMARK    2  A    between atoms: C_9  and  O_10
REMARK    3  A    between atoms: C_14  and  C_15
REMARK    4  A    between atoms: C_15  and  O_16
REMARK                            x       y       z     vdW  Elec       q    Type
REMARK                         _______ _______ _______ _____ _____    ______ ____
ROOT
ATOM      1  C   UNL     1       8.765  -1.942  25.465  0.00  0.00    +0.274 C 
ATOM      2  O   UNL     1       7.370  -2.306  25.351  0.00  0.00    -0.472 OA
ATOM      3  C   UNL     1       7.383  -3.478  24.579  0.00  0.00    +0.130 C 
ATOM      4  C   UNL     1       6.266  -3.909  23.975  0.00  0.00    +0.044 C 
ATOM      5  C   UNL     1       8.769  -4.056  24.369  0.00  0.00    +0.253 C 
ATOM      6  N   UNL     1       9.598  -2.904  24.712  0.00  0.00    -0.245 N 
ATOM      7  C   UNL     1       9.852  -2.000  23.710  0.00  0.00    +0.224 C 
ATOM      8  O   UNL     1      10.226  -2.169  22.574  0.00  0.00    -0.275 OA
ATOM      9  C   UNL     1       9.302  -0.837  24.546  0.00  0.00    +0.161 C 
ENDROOT
BRANCH   5  10
ATOM     10  C   UNL     1       9.037  -5.217  25.343  0.00  0.00    +0.333 C 
ATOM     11  O   UNL     1       8.188  -5.751  26.041  0.00  0.00    -0.248 OA
BRANCH  10  12
ATOM     12  O   UNL     1      10.333  -5.632  25.347  0.00  0.00    -0.479 OA
ATOM     13  H   UNL     1      10.735  -5.477  26.228  0.00  0.00    +0.295 HD
ENDBRANCH  10  12
ENDBRANCH   5  10
BRANCH   4  14
ATOM     14  C   UNL     1       4.916  -3.290  24.118  0.00  0.00    +0.186 C 
BRANCH  14  15
ATOM     15  O   UNL     1       5.063  -1.882  24.014  0.00  0.00    -0.391 OA
ATOM     16  H   UNL     1       5.875  -1.725  23.504  0.00  0.00    +0.210 HD
ENDBRANCH  14  15
ENDBRANCH   4  14
TORSDOF 4
ENDMDL
