MODEL 1
REMARK VINA RESULT:      -6.9      0.000      0.000
REMARK  Name = 
REMARK  11 active torsions:
REMARK  status: ('A' for Active; 'I' for Inactive)
REMARK    1  A    between atoms: C_1  and  C_2
REMARK    2  A    between atoms: C_2  and  O_4
REMARK    3  A    between atoms: O_4  and  C_5
REMARK    4  A    between atoms: C_5  and  C_6
REMARK    5  A    between atoms: C_9  and  N_23
REMARK    6  A    between atoms: C_11  and  O_13
REMARK    7  A    between atoms: O_13  and  C_14
REMARK    8  A    between atoms: C_14  and  C_15
REMARK    9  A    between atoms: C_17  and  O_19
REMARK   10  A    between atoms: O_19  and  C_20
REMARK   11  A    between atoms: C_20  and  C_21
REMARK                            x       y       z     vdW  Elec       q    Type
REMARK                         _______ _______ _______ _____ _____    ______ ____
ROOT
ATOM      1  C   UNL     1       8.843  -0.142  24.481  0.00  0.00    +0.203 C 
ATOM      2  C   UNL     1       7.906  -0.500  23.317  0.00  0.00    +0.253 C 
ATOM      3  C   UNL     1       7.529  -1.971  23.561  0.00  0.00    +0.269 C 
ATOM      4  C   UNL     1       8.549  -2.414  24.618  0.00  0.00    +0.268 C 
ATOM      5  O   UNL     1       8.817  -1.241  25.403  0.00  0.00    -0.342 OA
ENDROOT
BRANCH   4   6
ATOM      6  N   UNL     1       8.103  -3.496  25.493  0.00  0.00    -0.270 N 
ATOM      7  C   UNL     1       8.896  -4.634  25.560  0.00  0.00    +0.331 A 
ATOM      8  O   UNL     1       9.908  -4.807  24.884  0.00  0.00    -0.246 OA
ATOM      9  N   UNL     1       8.499  -5.587  26.464  0.00  0.00    -0.275 N 
ATOM     10  H   UNL     1       9.093  -6.394  26.566  0.00  0.00    +0.173 HD
ATOM     11  C   UNL     1       7.418  -5.508  27.295  0.00  0.00    +0.254 A 
ATOM     12  O   UNL     1       7.154  -6.357  28.136  0.00  0.00    -0.268 OA
ATOM     13  C   UNL     1       6.571  -4.316  27.121  0.00  0.00    +0.088 A 
ATOM     14  C   UNL     1       6.947  -3.380  26.250  0.00  0.00    +0.098 A 
ENDBRANCH   4   6
BRANCH   1  15
ATOM     15  C   UNL     1       8.482   1.146  25.222  0.00  0.00    +0.267 C 
BRANCH  15  16
ATOM     16  O   UNL     1       9.340   2.238  24.866  0.00  0.00    -0.462 OA
BRANCH  16  18
ATOM     17  C   UNL     1       9.636   4.338  23.854  0.00  0.00    +0.136 C 
ATOM     18  C   UNL     1       8.711   3.411  24.584  0.00  0.00    +0.304 C 
ATOM     19  O   UNL     1       7.574   3.702  24.925  0.00  0.00    -0.251 OA
ENDBRANCH  16  18
ENDBRANCH  15  16
ENDBRANCH   1  15
BRANCH   2  20
ATOM     20  O   UNL     1       8.650  -0.364  22.087  0.00  0.00    -0.455 OA
BRANCH  20  21
ATOM     21  C   UNL     1       9.038   0.887  21.730  0.00  0.00    +0.304 C 
ATOM     22  O   UNL     1      10.189   1.294  21.699  0.00  0.00    -0.251 OA
ATOM     23  C   UNL     1       7.836   1.729  21.423  0.00  0.00    +0.136 C 
ENDBRANCH  20  21
ENDBRANCH   2  20
BRANCH   3  24
ATOM     24  O   UNL     1       7.646  -2.744  22.353  0.00  0.00    -0.453 OA
BRANCH  24  25
ATOM     25  C   UNL     1       6.644  -3.611  22.065  0.00  0.00    +0.304 C 
ATOM     26  O   UNL     1       5.528  -3.295  21.678  0.00  0.00    -0.251 OA
ATOM     27  C   UNL     1       7.090  -5.029  22.272  0.00  0.00    +0.136 C 
ENDBRANCH  24  25
ENDBRANCH   3  24
TORSDOF 8
ENDMDL
MODEL 2
REMARK VINA RESULT:      -6.6      2.506      7.234
REMARK  Name = 
REMARK  11 active torsions:
REMARK  status: ('A' for Active; 'I' for Inactive)
REMARK    1  A    between atoms: C_1  and  C_2
REMARK    2  A    between atoms: C_2  and  O_4
REMARK    3  A    between atoms: O_4  and  C_5
REMARK    4  A    between atoms: C_5  and  C_6
REMARK    5  A    between atoms: C_9  and  N_23
REMARK    6  A    between atoms: C_11  and  O_13
REMARK    7  A    between atoms: O_13  and  C_14
REMARK    8  A    between atoms: C_14  and  C_15
REMARK    9  A    between atoms: C_17  and  O_19
REMARK   10  A    between atoms: O_19  and  C_20
REMARK   11  A    between atoms: C_20  and  C_21
REMARK                            x       y       z     vdW  Elec       q    Type
REMARK                         _______ _______ _______ _____ _____    ______ ____
ROOT
ATOM      1  C   UNL     1       6.784  -2.771  22.570  0.00  0.00    +0.203 C 
ATOM      2  C   UNL     1       7.542  -2.766  23.906  0.00  0.00    +0.253 C 
ATOM      3  C   UNL     1       8.100  -1.337  24.031  0.00  0.00    +0.269 C 
ATOM      4  C   UNL     1       7.917  -0.775  22.616  0.00  0.00    +0.268 C 
ATOM      5  O   UNL     1       6.738  -1.415  22.101  0.00  0.00    -0.342 OA
ENDROOT
BRANCH   4   6
ATOM      6  N   UNL     1       7.756   0.676  22.542  0.00  0.00    -0.270 N 
ATOM      7  C   UNL     1       8.794   1.408  21.980  0.00  0.00    +0.331 A 
ATOM      8  O   UNL     1       9.855   0.916  21.603  0.00  0.00    -0.246 OA
ATOM      9  N   UNL     1       8.567   2.754  21.838  0.00  0.00    -0.275 N 
ATOM     10  H   UNL     1       9.286   3.291  21.381  0.00  0.00    +0.173 HD
ATOM     11  C   UNL     1       7.427   3.420  22.185  0.00  0.00    +0.254 A 
ATOM     12  O   UNL     1       7.251   4.611  21.966  0.00  0.00    -0.268 OA
ATOM     13  C   UNL     1       6.395   2.606  22.849  0.00  0.00    +0.088 A 
ATOM     14  C   UNL     1       6.599   1.296  22.990  0.00  0.00    +0.098 A 
ENDBRANCH   4   6
BRANCH   1  15
ATOM     15  C   UNL     1       5.362  -3.327  22.642  0.00  0.00    +0.267 C 
BRANCH  15  16
ATOM     16  O   UNL     1       5.217  -4.548  21.905  0.00  0.00    -0.462 OA
BRANCH  16  18
ATOM     17  C   UNL     1       6.795  -6.288  21.845  0.00  0.00    +0.136 C 
ATOM     18  C   UNL     1       5.623  -5.676  22.549  0.00  0.00    +0.304 C 
ATOM     19  O   UNL     1       5.080  -6.161  23.531  0.00  0.00    -0.251 OA
ENDBRANCH  16  18
ENDBRANCH  15  16
ENDBRANCH   1  15
BRANCH   2  20
ATOM     20  O   UNL     1       8.620  -3.723  23.812  0.00  0.00    -0.455 OA
BRANCH  20  21
ATOM     21  C   UNL     1       8.626  -4.742  24.710  0.00  0.00    +0.304 C 
ATOM     22  O   UNL     1       9.415  -5.673  24.725  0.00  0.00    -0.251 OA
ATOM     23  C   UNL     1       7.479  -4.592  25.664  0.00  0.00    +0.136 C 
ENDBRANCH  20  21
ENDBRANCH   2  20
BRANCH   3  24
ATOM     24  O   UNL     1       9.484  -1.352  24.422  0.00  0.00    -0.453 OA
BRANCH  24  25
ATOM     25  C   UNL     1       9.902  -0.390  25.282  0.00  0.00    +0.304 C 
ATOM     26  O   UNL     1      10.797   0.413  25.061  0.00  0.00    -0.251 OA
ATOM     27  C   UNL     1       9.103  -0.427  26.553  0.00  0.00    +0.136 C 
ENDBRANCH  24  25
ENDBRANCH   3  24
TORSDOF 8
ENDMDL
MODEL 3
REMARK VINA RESULT:      -6.4      2.295      6.982
REMARK  Name = 
REMARK  11 active torsions:
REMARK  status: ('A' for Active; 'I' for Inactive)
REMARK    1  A    between atoms: C_1  and  C_2
REMARK    2  A    between atoms: C_2  and  O_4
REMARK    3  A    between atoms: O_4  and  C_5
REMARK    4  A    between atoms: C_5  and  C_6
REMARK    5  A    between atoms: C_9  and  N_23
REMARK    6  A    between atoms: C_11  and  O_13
REMARK    7  A    between atoms: O_13  and  C_14
REMARK    8  A    between atoms: C_14  and  C_15
REMARK    9  A    between atoms: C_17  and  O_19
REMARK   10  A    between atoms: O_19  and  C_20
REMARK   11  A    between atoms: C_20  and  C_21
REMARK                            x       y       z     vdW  Elec       q    Type
REMARK                         _______ _______ _______ _____ _____    ______ ____
ROOT
ATOM      1  C   UNL     1       8.468  -4.488  24.376  0.00  0.00    +0.203 C 
ATOM      2  C   UNL     1       7.506  -3.848  25.389  0.00  0.00    +0.253 C 
ATOM      3  C   UNL     1       7.795  -2.340  25.299  0.00  0.00    +0.269 C 
ATOM      4  C   UNL     1       9.117  -2.291  24.522  0.00  0.00    +0.268 C 
ATOM      5  O   UNL     1       9.079  -3.421  23.636  0.00  0.00    -0.342 OA
ENDROOT
BRANCH   4   6
ATOM      6  N   UNL     1       9.335  -1.070  23.749  0.00  0.00    -0.270 N 
ATOM      7  C   UNL     1      10.018  -0.032  24.370  0.00  0.00    +0.331 A 
ATOM      8  O   UNL     1      10.389  -0.058  25.542  0.00  0.00    -0.246 OA
ATOM      9  N   UNL     1      10.290   1.058  23.583  0.00  0.00    -0.275 N 
ATOM     10  H   UNL     1      10.833   1.797  24.001  0.00  0.00    +0.173 HD
ATOM     11  C   UNL     1       9.964   1.203  22.265  0.00  0.00    +0.254 A 
ATOM     12  O   UNL     1      10.299   2.168  21.592  0.00  0.00    -0.268 OA
ATOM     13  C   UNL     1       9.172   0.105  21.685  0.00  0.00    +0.088 A 
ATOM     14  C   UNL     1       8.903  -0.962  22.436  0.00  0.00    +0.098 A 
ENDBRANCH   4   6
BRANCH   1  15
ATOM     15  C   UNL     1       7.814  -5.467  23.401  0.00  0.00    +0.267 C 
BRANCH  15  16
ATOM     16  O   UNL     1       6.384  -5.371  23.411  0.00  0.00    -0.462 OA
BRANCH  16  18
ATOM     17  C   UNL     1       6.380  -5.722  21.087  0.00  0.00    +0.136 C 
ATOM     18  C   UNL     1       5.814  -4.959  22.246  0.00  0.00    +0.304 C 
ATOM     19  O   UNL     1       4.998  -4.055  22.142  0.00  0.00    -0.251 OA
ENDBRANCH  16  18
ENDBRANCH  15  16
ENDBRANCH   1  15
BRANCH   2  20
ATOM     20  O   UNL     1       7.841  -4.351  26.701  0.00  0.00    -0.455 OA
BRANCH  20  21
ATOM     21  C   UNL     1       6.955  -5.197  27.286  0.00  0.00    +0.304 C 
ATOM     22  O   UNL     1       7.235  -6.094  28.066  0.00  0.00    -0.251 OA
ATOM     23  C   UNL     1       5.567  -4.908  26.796  0.00  0.00    +0.136 C 
ENDBRANCH  20  21
ENDBRANCH   2  20
BRANCH   3  24
ATOM     24  O   UNL     1       7.926  -1.758  26.609  0.00  0.00    -0.453 OA
BRANCH  24  25
ATOM     25  C   UNL     1       7.269  -0.595  26.845  0.00  0.00    +0.304 C 
ATOM     26  O   UNL     1       7.565   0.219  27.707  0.00  0.00    -0.251 OA
ATOM     27  C   UNL     1       6.124  -0.426  25.890  0.00  0.00    +0.136 C 
ENDBRANCH  24  25
ENDBRANCH   3  24
TORSDOF 8
ENDMDL
MODEL 4
REMARK VINA RESULT:      -6.4      1.758      2.242
REMARK  Name = 
REMARK  11 active torsions:
REMARK  status: ('A' for Active; 'I' for Inactive)
REMARK    1  A    between atoms: C_1  and  C_2
REMARK    2  A    between atoms: C_2  and  O_4
REMARK    3  A    between atoms: O_4  and  C_5
REMARK    4  A    between atoms: C_5  and  C_6
REMARK    5  A    between atoms: C_9  and  N_23
REMARK    6  A    between atoms: C_11  and  O_13
REMARK    7  A    between atoms: O_13  and  C_14
REMARK    8  A    between atoms: C_14  and  C_15
REMARK    9  A    between atoms: C_17  and  O_19
REMARK   10  A    between atoms: O_19  and  C_20
REMARK   11  A    between atoms: C_20  and  C_21
REMARK                            x       y       z     vdW  Elec       q    Type
REMARK                         _______ _______ _______ _____ _____    ______ ____
ROOT
ATOM      1  C   UNL     1       8.273  -0.816  24.120  0.00  0.00    +0.203 C 
ATOM      2  C   UNL     1       7.511  -1.490  22.969  0.00  0.00    +0.253 C 
ATOM      3  C   UNL     1       7.236  -2.919  23.470  0.00  0.00    +0.269 C 
ATOM      4  C   UNL     1       8.160  -3.037  24.689  0.00  0.00    +0.268 C 
ATOM      5  O   UNL     1       8.234  -1.712  25.240  0.00  0.00    -0.342 OA
ENDROOT
BRANCH   4   6
ATOM      6  N   UNL     1       7.709  -3.970  25.719  0.00  0.00    -0.270 N 
ATOM      7  C   UNL     1       8.429  -5.147  25.876  0.00  0.00    +0.331 A 
ATOM      8  O   UNL     1       9.376  -5.474  25.163  0.00  0.00    -0.246 OA
ATOM      9  N   UNL     1       8.037  -5.953  26.916  0.00  0.00    -0.275 N 
ATOM     10  H   UNL     1       8.584  -6.783  27.079  0.00  0.00    +0.173 HD
ATOM     11  C   UNL     1       7.028  -5.695  27.798  0.00  0.00    +0.254 A 
ATOM     12  O   UNL     1       6.771  -6.416  28.754  0.00  0.00    -0.268 OA
ATOM     13  C   UNL     1       6.250  -4.474  27.532  0.00  0.00    +0.088 A 
ATOM     14  C   UNL     1       6.621  -3.679  26.529  0.00  0.00    +0.098 A 
ENDBRANCH   4   6
BRANCH   1  15
ATOM     15  C   UNL     1       7.719   0.545  24.544  0.00  0.00    +0.267 C 
BRANCH  15  16
ATOM     16  O   UNL     1       6.895   0.457  25.713  0.00  0.00    -0.462 OA
BRANCH  16  18
ATOM     17  C   UNL     1       4.845  -0.493  26.359  0.00  0.00    +0.136 C 
ATOM     18  C   UNL     1       5.553   0.502  25.490  0.00  0.00    +0.304 C 
ATOM     19  O   UNL     1       4.999   1.208  24.661  0.00  0.00    -0.251 OA
ENDBRANCH  16  18
ENDBRANCH  15  16
ENDBRANCH   1  15
BRANCH   2  20
ATOM     20  O   UNL     1       8.379  -1.517  21.814  0.00  0.00    -0.455 OA
BRANCH  20  21
ATOM     21  C   UNL     1       9.659  -1.099  21.989  0.00  0.00    +0.304 C 
ATOM     22  O   UNL     1      10.579  -1.779  22.416  0.00  0.00    -0.251 OA
ATOM     23  C   UNL     1       9.779   0.352  21.630  0.00  0.00    +0.136 C 
ENDBRANCH  20  21
ENDBRANCH   2  20
BRANCH   3  24
ATOM     24  O   UNL     1       7.558  -3.893  22.462  0.00  0.00    -0.453 OA
BRANCH  24  25
ATOM     25  C   UNL     1       6.530  -4.575  21.899  0.00  0.00    +0.304 C 
ATOM     26  O   UNL     1       5.777  -4.133  21.043  0.00  0.00    -0.251 OA
ATOM     27  C   UNL     1       6.441  -5.965  22.458  0.00  0.00    +0.136 C 
ENDBRANCH  24  25
ENDBRANCH   3  24
TORSDOF 8
ENDMDL
MODEL 5
REMARK VINA RESULT:      -6.1      2.577      6.791
REMARK  Name = 
REMARK  11 active torsions:
REMARK  status: ('A' for Active; 'I' for Inactive)
REMARK    1  A    between atoms: C_1  and  C_2
REMARK    2  A    between atoms: C_2  and  O_4
REMARK    3  A    between atoms: O_4  and  C_5
REMARK    4  A    between atoms: C_5  and  C_6
REMARK    5  A    between atoms: C_9  and  N_23
REMARK    6  A    between atoms: C_11  and  O_13
REMARK    7  A    between atoms: O_13  and  C_14
REMARK    8  A    between atoms: C_14  and  C_15
REMARK    9  A    between atoms: C_17  and  O_19
REMARK   10  A    between atoms: O_19  and  C_20
REMARK   11  A    between atoms: C_20  and  C_21
REMARK                            x       y       z     vdW  Elec       q    Type
REMARK                         _______ _______ _______ _____ _____    ______ ____
ROOT
ATOM      1  C   UNL     1       5.537  -3.019  23.879  0.00  0.00    +0.203 C 
ATOM      2  C   UNL     1       6.919  -3.348  23.296  0.00  0.00    +0.253 C 
ATOM      3  C   UNL     1       7.672  -2.006  23.301  0.00  0.00    +0.269 C 
ATOM      4  C   UNL     1       6.552  -0.987  23.546  0.00  0.00    +0.268 C 
ATOM      5  O   UNL     1       5.589  -1.670  24.366  0.00  0.00    -0.342 OA
ENDROOT
BRANCH   4   6
ATOM      6  N   UNL     1       6.971   0.246  24.208  0.00  0.00    -0.270 N 
ATOM      7  C   UNL     1       6.904   1.423  23.473  0.00  0.00    +0.331 A 
ATOM      8  O   UNL     1       6.576   1.476  22.290  0.00  0.00    -0.246 OA
ATOM      9  N   UNL     1       7.212   2.572  24.157  0.00  0.00    -0.275 N 
ATOM     10  H   UNL     1       7.115   3.440  23.655  0.00  0.00    +0.173 HD
ATOM     11  C   UNL     1       7.560   2.657  25.474  0.00  0.00    +0.254 A 
ATOM     12  O   UNL     1       7.751   3.720  26.051  0.00  0.00    -0.268 OA
ATOM     13  C   UNL     1       7.692   1.371  26.179  0.00  0.00    +0.088 A 
ATOM     14  C   UNL     1       7.392   0.247  25.529  0.00  0.00    +0.098 A 
ENDBRANCH   4   6
BRANCH   1  15
ATOM     15  C   UNL     1       5.081  -3.944  25.008  0.00  0.00    +0.267 C 
BRANCH  15  16
ATOM     16  O   UNL     1       6.026  -4.988  25.271  0.00  0.00    -0.462 OA
BRANCH  16  18
ATOM     17  C   UNL     1       4.588  -6.750  24.680  0.00  0.00    +0.136 C 
ATOM     18  C   UNL     1       5.497  -6.161  25.715  0.00  0.00    +0.304 C 
ATOM     19  O   UNL     1       5.685  -6.645  26.822  0.00  0.00    -0.251 OA
ENDBRANCH  16  18
ENDBRANCH  15  16
ENDBRANCH   1  15
BRANCH   2  20
ATOM     20  O   UNL     1       6.733  -3.819  21.943  0.00  0.00    -0.455 OA
BRANCH  20  21
ATOM     21  C   UNL     1       6.401  -5.125  21.781  0.00  0.00    +0.304 C 
ATOM     22  O   UNL     1       5.328  -5.542  21.371  0.00  0.00    -0.251 OA
ATOM     23  C   UNL     1       7.531  -6.002  22.229  0.00  0.00    +0.136 C 
ENDBRANCH  20  21
ENDBRANCH   2  20
BRANCH   3  24
ATOM     24  O   UNL     1       8.333  -1.778  22.044  0.00  0.00    -0.453 OA
BRANCH  24  25
ATOM     25  C   UNL     1       9.607  -1.312  22.082  0.00  0.00    +0.304 C 
ATOM     26  O   UNL     1      10.577  -1.945  22.473  0.00  0.00    -0.251 OA
ATOM     27  C   UNL     1       9.677   0.094  21.562  0.00  0.00    +0.136 C 
ENDBRANCH  24  25
ENDBRANCH   3  24
TORSDOF 8
ENDMDL
MODEL 6
REMARK VINA RESULT:      -5.7      2.527      7.285
REMARK  Name = 
REMARK  11 active torsions:
REMARK  status: ('A' for Active; 'I' for Inactive)
REMARK    1  A    between atoms: C_1  and  C_2
REMARK    2  A    between atoms: C_2  and  O_4
REMARK    3  A    between atoms: O_4  and  C_5
REMARK    4  A    between atoms: C_5  and  C_6
REMARK    5  A    between atoms: C_9  and  N_23
REMARK    6  A    between atoms: C_11  and  O_13
REMARK    7  A    between atoms: O_13  and  C_14
REMARK    8  A    between atoms: C_14  and  C_15
REMARK    9  A    between atoms: C_17  and  O_19
REMARK   10  A    between atoms: O_19  and  C_20
REMARK   11  A    between atoms: C_20  and  C_21
REMARK                            x       y       z     vdW  Elec       q    Type
REMARK                         _______ _______ _______ _____ _____    ______ ____
ROOT
ATOM      1  C   UNL     1       6.883  -4.830  23.320  0.00  0.00    +0.203 C 
ATOM      2  C   UNL     1       6.483  -4.324  24.714  0.00  0.00    +0.253 C 
ATOM      3  C   UNL     1       7.118  -2.927  24.817  0.00  0.00    +0.269 C 
ATOM      4  C   UNL     1       8.101  -2.910  23.639  0.00  0.00    +0.268 C 
ATOM      5  O   UNL     1       7.496  -3.732  22.627  0.00  0.00    -0.342 OA
ENDROOT
BRANCH   4   6
ATOM      6  N   UNL     1       8.385  -1.587  23.088  0.00  0.00    -0.270 N 
ATOM      7  C   UNL     1       9.645  -1.377  22.543  0.00  0.00    +0.331 A 
ATOM      8  O   UNL     1      10.547  -2.213  22.556  0.00  0.00    -0.246 OA
ATOM      9  N   UNL     1       9.843  -0.157  21.949  0.00  0.00    -0.275 N 
ATOM     10  H   UNL     1      10.733  -0.007  21.500  0.00  0.00    +0.173 HD
ATOM     11  C   UNL     1       8.921   0.845  21.839  0.00  0.00    +0.254 A 
ATOM     12  O   UNL     1       9.130   1.886  21.230  0.00  0.00    -0.268 OA
ATOM     13  C   UNL     1       7.632   0.595  22.504  0.00  0.00    +0.088 A 
ATOM     14  C   UNL     1       7.424  -0.587  23.082  0.00  0.00    +0.098 A 
ENDBRANCH   4   6
BRANCH   1  15
ATOM     15  C   UNL     1       5.727  -5.373  22.479  0.00  0.00    +0.267 C 
BRANCH  15  16
ATOM     16  O   UNL     1       4.455  -5.169  23.107  0.00  0.00    -0.462 OA
BRANCH  16  18
ATOM     17  C   UNL     1       2.323  -6.157  23.145  0.00  0.00    +0.136 C 
ATOM     18  C   UNL     1       3.783  -6.300  23.454  0.00  0.00    +0.304 C 
ATOM     19  O   UNL     1       4.279  -7.277  23.994  0.00  0.00    -0.251 OA
ENDBRANCH  16  18
ENDBRANCH  15  16
ENDBRANCH   1  15
BRANCH   2  20
ATOM     20  O   UNL     1       7.060  -5.215  25.694  0.00  0.00    -0.455 OA
BRANCH  20  21
ATOM     21  C   UNL     1       6.455  -5.277  26.908  0.00  0.00    +0.304 C 
ATOM     22  O   UNL     1       7.025  -5.372  27.984  0.00  0.00    -0.251 OA
ATOM     23  C   UNL     1       4.965  -5.265  26.741  0.00  0.00    +0.136 C 
ENDBRANCH  20  21
ENDBRANCH   2  20
BRANCH   3  24
ATOM     24  O   UNL     1       7.793  -2.754  26.075  0.00  0.00    -0.453 OA
BRANCH  24  25
ATOM     25  C   UNL     1       7.622  -1.574  26.721  0.00  0.00    +0.304 C 
ATOM     26  O   UNL     1       6.565  -1.172  27.186  0.00  0.00    -0.251 OA
ATOM     27  C   UNL     1       8.917  -0.820  26.806  0.00  0.00    +0.136 C 
ENDBRANCH  24  25
ENDBRANCH   3  24
TORSDOF 8
ENDMDL
MODEL 7
REMARK VINA RESULT:      -5.7      2.490      3.803
REMARK  Name = 
REMARK  11 active torsions:
REMARK  status: ('A' for Active; 'I' for Inactive)
REMARK    1  A    between atoms: C_1  and  C_2
REMARK    2  A    between atoms: C_2  and  O_4
REMARK    3  A    between atoms: O_4  and  C_5
REMARK    4  A    between atoms: C_5  and  C_6
REMARK    5  A    between atoms: C_9  and  N_23
REMARK    6  A    between atoms: C_11  and  O_13
REMARK    7  A    between atoms: O_13  and  C_14
REMARK    8  A    between atoms: C_14  and  C_15
REMARK    9  A    between atoms: C_17  and  O_19
REMARK   10  A    between atoms: O_19  and  C_20
REMARK   11  A    between atoms: C_20  and  C_21
REMARK                            x       y       z     vdW  Elec       q    Type
REMARK                         _______ _______ _______ _____ _____    ______ ____
ROOT
ATOM      1  C   UNL     1       7.970  -2.427  23.855  0.00  0.00    +0.203 C 
ATOM      2  C   UNL     1       7.201  -1.305  24.569  0.00  0.00    +0.253 C 
ATOM      3  C   UNL     1       6.235  -2.038  25.515  0.00  0.00    +0.269 C 
ATOM      4  C   UNL     1       6.288  -3.484  25.005  0.00  0.00    +0.268 C 
ATOM      5  O   UNL     1       7.621  -3.661  24.500  0.00  0.00    -0.342 OA
ENDROOT
BRANCH   4   6
ATOM      6  N   UNL     1       6.006  -4.506  26.010  0.00  0.00    -0.270 N 
ATOM      7  C   UNL     1       5.536  -5.734  25.561  0.00  0.00    +0.331 A 
ATOM      8  O   UNL     1       5.286  -5.985  24.385  0.00  0.00    -0.246 OA
ATOM      9  N   UNL     1       5.376  -6.700  26.523  0.00  0.00    -0.275 N 
ATOM     10  H   UNL     1       5.090  -7.613  26.208  0.00  0.00    +0.173 HD
ATOM     11  C   UNL     1       5.645  -6.563  27.854  0.00  0.00    +0.254 A 
ATOM     12  O   UNL     1       5.555  -7.484  28.656  0.00  0.00    -0.268 OA
ATOM     13  C   UNL     1       6.063  -5.218  28.282  0.00  0.00    +0.088 A 
ATOM     14  C   UNL     1       6.227  -4.270  27.359  0.00  0.00    +0.098 A 
ENDBRANCH   4   6
BRANCH   1  15
ATOM     15  C   UNL     1       9.490  -2.267  23.863  0.00  0.00    +0.267 C 
BRANCH  15  16
ATOM     16  O   UNL     1       9.997  -1.818  22.599  0.00  0.00    -0.462 OA
BRANCH  16  18
ATOM     17  C   UNL     1      10.649   0.142  23.718  0.00  0.00    +0.136 C 
ATOM     18  C   UNL     1      10.115  -0.470  22.459  0.00  0.00    +0.304 C 
ATOM     19  O   UNL     1       9.782   0.168  21.472  0.00  0.00    -0.251 OA
ENDBRANCH  16  18
ENDBRANCH  15  16
ENDBRANCH   1  15
BRANCH   2  20
ATOM     20  O   UNL     1       6.466  -0.563  23.571  0.00  0.00    -0.455 OA
BRANCH  20  21
ATOM     21  C   UNL     1       6.808   0.738  23.388  0.00  0.00    +0.304 C 
ATOM     22  O   UNL     1       6.797   1.334  22.322  0.00  0.00    -0.251 OA
ATOM     23  C   UNL     1       7.259   1.339  24.685  0.00  0.00    +0.136 C 
ENDBRANCH  20  21
ENDBRANCH   2  20
BRANCH   3  24
ATOM     24  O   UNL     1       4.907  -1.492  25.428  0.00  0.00    -0.453 OA
BRANCH  24  25
ATOM     25  C   UNL     1       4.535  -0.596  26.376  0.00  0.00    +0.304 C 
ATOM     26  O   UNL     1       3.728   0.307  26.214  0.00  0.00    -0.251 OA
ATOM     27  C   UNL     1       5.242  -0.867  27.672  0.00  0.00    +0.136 C 
ENDBRANCH  24  25
ENDBRANCH   3  24
TORSDOF 8
ENDMDL
MODEL 8
REMARK VINA RESULT:      -5.6      2.932      7.271
REMARK  Name = 
REMARK  11 active torsions:
REMARK  status: ('A' for Active; 'I' for Inactive)
REMARK    1  A    between atoms: C_1  and  C_2
REMARK    2  A    between atoms: C_2  and  O_4
REMARK    3  A    between atoms: O_4  and  C_5
REMARK    4  A    between atoms: C_5  and  C_6
REMARK    5  A    between atoms: C_9  and  N_23
REMARK    6  A    between atoms: C_11  and  O_13
REMARK    7  A    between atoms: O_13  and  C_14
REMARK    8  A    between atoms: C_14  and  C_15
REMARK    9  A    between atoms: C_17  and  O_19
REMARK   10  A    between atoms: O_19  and  C_20
REMARK   11  A    between atoms: C_20  and  C_21
REMARK                            x       y       z     vdW  Elec       q    Type
REMARK                         _______ _______ _______ _____ _____    ______ ____
ROOT
ATOM      1  C   UNL     1       8.825  -0.771  24.738  0.00  0.00    +0.203 C 
ATOM      2  C   UNL     1       7.648  -0.516  23.786  0.00  0.00    +0.253 C 
ATOM      3  C   UNL     1       7.689   0.998  23.514  0.00  0.00    +0.269 C 
ATOM      4  C   UNL     1       8.646   1.513  24.597  0.00  0.00    +0.268 C 
ATOM      5  O   UNL     1       9.582   0.445  24.816  0.00  0.00    -0.342 OA
ENDROOT
BRANCH   4   6
ATOM      6  N   UNL     1       9.369   2.735  24.254  0.00  0.00    -0.270 N 
ATOM      7  C   UNL     1       8.853   3.938  24.719  0.00  0.00    +0.331 A 
ATOM      8  O   UNL     1       7.798   4.037  25.342  0.00  0.00    -0.246 OA
ATOM      9  N   UNL     1       9.610   5.052  24.461  0.00  0.00    -0.275 N 
ATOM     10  H   UNL     1       9.279   5.926  24.839  0.00  0.00    +0.173 HD
ATOM     11  C   UNL     1      10.810   5.078  23.809  0.00  0.00    +0.254 A 
ATOM     12  O   UNL     1      11.479   6.095  23.673  0.00  0.00    -0.268 OA
ATOM     13  C   UNL     1      11.266   3.787  23.270  0.00  0.00    +0.088 A 
ATOM     14  C   UNL     1      10.543   2.694  23.516  0.00  0.00    +0.098 A 
ENDBRANCH   4   6
BRANCH   1  15
ATOM     15  C   UNL     1       9.751  -1.914  24.321  0.00  0.00    +0.267 C 
BRANCH  15  16
ATOM     16  O   UNL     1       9.031  -3.118  24.026  0.00  0.00    -0.462 OA
BRANCH  16  18
ATOM     17  C   UNL     1       8.070  -4.241  25.853  0.00  0.00    +0.136 C 
ATOM     18  C   UNL     1       9.221  -4.145  24.898  0.00  0.00    +0.304 C 
ATOM     19  O   UNL     1      10.213  -4.858  24.943  0.00  0.00    -0.251 OA
ENDBRANCH  16  18
ENDBRANCH  15  16
ENDBRANCH   1  15
BRANCH   2  20
ATOM     20  O   UNL     1       6.430  -0.873  24.475  0.00  0.00    -0.455 OA
BRANCH  20  21
ATOM     21  C   UNL     1       5.768  -1.975  24.037  0.00  0.00    +0.304 C 
ATOM     22  O   UNL     1       4.978  -2.638  24.690  0.00  0.00    -0.251 OA
ATOM     23  C   UNL     1       6.187  -2.301  22.634  0.00  0.00    +0.136 C 
ENDBRANCH  20  21
ENDBRANCH   2  20
BRANCH   3  24
ATOM     24  O   UNL     1       6.381   1.584  23.638  0.00  0.00    -0.453 OA
BRANCH  24  25
ATOM     25  C   UNL     1       6.042   2.553  22.752  0.00  0.00    +0.304 C 
ATOM     26  O   UNL     1       6.780   3.008  21.889  0.00  0.00    -0.251 OA
ATOM     27  C   UNL     1       4.622   2.991  22.957  0.00  0.00    +0.136 C 
ENDBRANCH  24  25
ENDBRANCH   3  24
TORSDOF 8
ENDMDL
MODEL 9
REMARK VINA RESULT:      -5.4      2.127      4.687
REMARK  Name = 
REMARK  11 active torsions:
REMARK  status: ('A' for Active; 'I' for Inactive)
REMARK    1  A    between atoms: C_1  and  C_2
REMARK    2  A    between atoms: C_2  and  O_4
REMARK    3  A    between atoms: O_4  and  C_5
REMARK    4  A    between atoms: C_5  and  C_6
REMARK    5  A    between atoms: C_9  and  N_23
REMARK    6  A    between atoms: C_11  and  O_13
REMARK    7  A    between atoms: O_13  and  C_14
REMARK    8  A    between atoms: C_14  and  C_15
REMARK    9  A    between atoms: C_17  and  O_19
REMARK   10  A    between atoms: O_19  and  C_20
REMARK   11  A    between atoms: C_20  and  C_21
REMARK                            x       y       z     vdW  Elec       q    Type
REMARK                         _______ _______ _______ _____ _____    ______ ____
ROOT
ATOM      1  C   UNL     1       7.516  -0.273  24.901  0.00  0.00    +0.203 C 
ATOM      2  C   UNL     1       8.401  -1.129  25.820  0.00  0.00    +0.253 C 
ATOM      3  C   UNL     1       8.039  -2.581  25.465  0.00  0.00    +0.269 C 
ATOM      4  C   UNL     1       6.750  -2.422  24.649  0.00  0.00    +0.268 C 
ATOM      5  O   UNL     1       6.883  -1.163  23.970  0.00  0.00    -0.342 OA
ENDROOT
BRANCH   4   6
ATOM      6  N   UNL     1       6.502  -3.480  23.672  0.00  0.00    -0.270 N 
ATOM      7  C   UNL     1       5.188  -3.900  23.502  0.00  0.00    +0.331 A 
ATOM      8  O   UNL     1       4.243  -3.481  24.166  0.00  0.00    -0.246 OA
ATOM      9  N   UNL     1       4.981  -4.824  22.509  0.00  0.00    -0.275 N 
ATOM     10  H   UNL     1       4.027  -5.098  22.335  0.00  0.00    +0.173 HD
ATOM     11  C   UNL     1       5.933  -5.346  21.682  0.00  0.00    +0.254 A 
ATOM     12  O   UNL     1       5.678  -6.112  20.762  0.00  0.00    -0.268 OA
ATOM     13  C   UNL     1       7.316  -4.924  21.962  0.00  0.00    +0.088 A 
ATOM     14  C   UNL     1       7.533  -4.024  22.921  0.00  0.00    +0.098 A 
ENDBRANCH   4   6
BRANCH   1  15
ATOM     15  C   UNL     1       8.261   0.817  24.129  0.00  0.00    +0.267 C 
BRANCH  15  16
ATOM     16  O   UNL     1       8.221   0.604  22.712  0.00  0.00    -0.462 OA
BRANCH  16  18
ATOM     17  C   UNL     1       9.812  -0.929  21.913  0.00  0.00    +0.136 C 
ATOM     18  C   UNL     1       9.432   0.508  22.098  0.00  0.00    +0.304 C 
ATOM     19  O   UNL     1      10.142   1.453  21.789  0.00  0.00    -0.251 OA
ENDBRANCH  16  18
ENDBRANCH  15  16
ENDBRANCH   1  15
BRANCH   2  20
ATOM     20  O   UNL     1       8.038  -0.836  27.188  0.00  0.00    -0.455 OA
BRANCH  20  21
ATOM     21  C   UNL     1       7.088   0.112  27.389  0.00  0.00    +0.304 C 
ATOM     22  O   UNL     1       7.283   1.317  27.432  0.00  0.00    -0.251 OA
ATOM     23  C   UNL     1       5.753  -0.535  27.605  0.00  0.00    +0.136 C 
ENDBRANCH  20  21
ENDBRANCH   2  20
BRANCH   3  24
ATOM     24  O   UNL     1       7.823  -3.367  26.651  0.00  0.00    -0.453 OA
BRANCH  24  25
ATOM     25  C   UNL     1       8.233  -4.660  26.628  0.00  0.00    +0.304 C 
ATOM     26  O   UNL     1       7.639  -5.597  27.141  0.00  0.00    -0.251 OA
ATOM     27  C   UNL     1       9.520  -4.798  25.868  0.00  0.00    +0.136 C 
ENDBRANCH  24  25
ENDBRANCH   3  24
TORSDOF 8
ENDMDL
