MODEL 1
REMARK VINA RESULT:      -6.8      0.000      0.000
REMARK  Name = 
REMARK  14 active torsions:
REMARK  status: ('A' for Active; 'I' for Inactive)
REMARK    1  A    between atoms: C_2  and  C_3
REMARK    2  A    between atoms: C_2  and  N_10
REMARK    3  A    between atoms: C_2  and  C_16
REMARK    4  A    between atoms: C_3  and  C_4
REMARK    5  A    between atoms: C_11  and  O_13
REMARK    6  A    between atoms: O_13  and  C_14
REMARK    7  A    between atoms: C_14  and  C_15
REMARK    8  A    between atoms: C_22  and  C_24
REMARK    9  A    between atoms: N_26  and  N_27
REMARK   10  A    between atoms: N_27  and  C_28
REMARK   11  A    between atoms: C_28  and  C_29
REMARK   12  A    between atoms: C_29  and  C_30
REMARK   13  A    between atoms: C_30  and  C_31
REMARK   14  A    between atoms: C_31  and  N_32
REMARK                            x       y       z     vdW  Elec       q    Type
REMARK                         _______ _______ _______ _____ _____    ______ ____
ROOT
ATOM      1  C   UNL     1       5.892   0.338  24.513  0.00  0.00    +0.237 C 
ATOM      2  N   UNL     1       6.247   1.453  23.765  0.00  0.00    -0.288 N 
ATOM      3  C   UNL     1       6.862   1.447  22.424  0.00  0.00    +0.163 C 
ATOM      4  C   UNL     1       6.480   2.805  21.812  0.00  0.00    +0.033 C 
ATOM      5  C   UNL     1       5.492   3.448  22.778  0.00  0.00    +0.021 C 
ATOM      6  C   UNL     1       5.743   2.770  24.107  0.00  0.00    +0.109 C 
ATOM      7  O   UNL     1       5.037   0.413  25.401  0.00  0.00    -0.274 OA
ENDROOT
BRANCH   3   8
ATOM      8  C   UNL     1       8.400   1.331  22.443  0.00  0.00    +0.247 C 
ATOM      9  N   UNL     1       9.062   2.476  22.010  0.00  0.00    -0.249 N 
ATOM     10  H   UNL     1       8.545   3.339  21.876  0.00  0.00    +0.169 HD
ATOM     11  O   UNL     1       8.987   0.274  22.665  0.00  0.00    -0.272 OA
BRANCH   9  12
ATOM     12  N   UNL     1      10.473   2.521  22.024  0.00  0.00    -0.241 NA
ATOM     13  H   UNL     1      10.757   3.157  21.265  0.00  0.00    +0.144 HD
BRANCH  12  14
ATOM     14  C   UNL     1      10.978   3.100  23.278  0.00  0.00    +0.102 C 
BRANCH  14  15
ATOM     15  C   UNL     1      10.631   4.582  23.468  0.00  0.00    +0.018 C 
BRANCH  15  16
ATOM     16  C   UNL     1      11.860   5.446  23.777  0.00  0.00    +0.016 C 
BRANCH  16  17
ATOM     17  C   UNL     1      12.875   5.476  22.635  0.00  0.00    +0.077 C 
BRANCH  17  18
ATOM     18  N   UNL     1      14.209   5.089  23.077  0.00  0.00    -0.330 NA
ATOM     19  H   UNL     1      14.156   4.207  23.585  0.00  0.00    +0.118 HD
ATOM     20  H   UNL     1      14.802   4.914  22.265  0.00  0.00    +0.118 HD
ENDBRANCH  17  18
ENDBRANCH  16  17
ENDBRANCH  15  16
ENDBRANCH  14  15
ENDBRANCH  12  14
ENDBRANCH   9  12
ENDBRANCH   3   8
BRANCH   1  21
ATOM     21  C   UNL     1       6.601  -1.003  24.220  0.00  0.00    +0.167 C 
BRANCH  21  22
ATOM     22  N   UNL     1       5.779  -1.894  23.399  0.00  0.00    -0.269 N 
ATOM     23  H   UNL     1       4.887  -2.212  23.754  0.00  0.00    +0.153 HD
ATOM     24  C   UNL     1       6.323  -2.638  22.389  0.00  0.00    +0.401 C 
ATOM     25  O   UNL     1       7.417  -2.428  21.890  0.00  0.00    -0.226 OA
BRANCH  24  26
ATOM     26  O   UNL     1       5.496  -3.663  22.074  0.00  0.00    -0.451 OA
BRANCH  26  27
ATOM     27  C   UNL     1       6.148  -4.855  21.598  0.00  0.00    +0.230 C 
ATOM     28  C   UNL     1       6.693  -5.674  22.758  0.00  0.00    +0.048 C 
ENDBRANCH  26  27
ENDBRANCH  24  26
ENDBRANCH  21  22
BRANCH  21  29
ATOM     29  C   UNL     1       6.950  -1.664  25.582  0.00  0.00    +0.067 C 
BRANCH  29  30
ATOM     30  C   UNL     1       7.776  -2.935  25.540  0.00  0.00    -0.045 A 
ATOM     31  C   UNL     1       7.335  -4.063  26.257  0.00  0.00    +0.004 A 
ATOM     32  C   UNL     1       8.064  -5.257  26.228  0.00  0.00    +0.000 A 
ATOM     33  C   UNL     1       9.231  -5.343  25.476  0.00  0.00    +0.000 A 
ATOM     34  C   UNL     1       9.698  -4.223  24.797  0.00  0.00    +0.000 A 
ATOM     35  C   UNL     1       8.992  -3.021  24.858  0.00  0.00    +0.004 A 
ENDBRANCH  29  30
ENDBRANCH  21  29
ENDBRANCH   1  21
TORSDOF 13
ENDMDL
MODEL 2
REMARK VINA RESULT:      -6.6      2.584      4.979
REMARK  Name = 
REMARK  14 active torsions:
REMARK  status: ('A' for Active; 'I' for Inactive)
REMARK    1  A    between atoms: C_2  and  C_3
REMARK    2  A    between atoms: C_2  and  N_10
REMARK    3  A    between atoms: C_2  and  C_16
REMARK    4  A    between atoms: C_3  and  C_4
REMARK    5  A    between atoms: C_11  and  O_13
REMARK    6  A    between atoms: O_13  and  C_14
REMARK    7  A    between atoms: C_14  and  C_15
REMARK    8  A    between atoms: C_22  and  C_24
REMARK    9  A    between atoms: N_26  and  N_27
REMARK   10  A    between atoms: N_27  and  C_28
REMARK   11  A    between atoms: C_28  and  C_29
REMARK   12  A    between atoms: C_29  and  C_30
REMARK   13  A    between atoms: C_30  and  C_31
REMARK   14  A    between atoms: C_31  and  N_32
REMARK                            x       y       z     vdW  Elec       q    Type
REMARK                         _______ _______ _______ _____ _____    ______ ____
ROOT
ATOM      1  C   UNL     1       9.530  -1.228  23.010  0.00  0.00    +0.237 C 
ATOM      2  N   UNL     1       9.390   0.138  23.221  0.00  0.00    -0.288 N 
ATOM      3  C   UNL     1       8.560   0.782  24.258  0.00  0.00    +0.163 C 
ATOM      4  C   UNL     1       9.208   2.159  24.478  0.00  0.00    +0.033 C 
ATOM      5  C   UNL     1      10.505   2.155  23.679  0.00  0.00    +0.021 C 
ATOM      6  C   UNL     1      10.318   1.083  22.629  0.00  0.00    +0.109 C 
ATOM      7  O   UNL     1      10.519  -1.683  22.427  0.00  0.00    -0.274 OA
ENDROOT
BRANCH   3   8
ATOM      8  C   UNL     1       7.090   0.989  23.842  0.00  0.00    +0.247 C 
ATOM      9  N   UNL     1       6.195   1.012  24.908  0.00  0.00    -0.249 N 
ATOM     10  H   UNL     1       6.544   1.062  25.859  0.00  0.00    +0.169 HD
ATOM     11  O   UNL     1       6.719   0.975  22.670  0.00  0.00    -0.272 OA
BRANCH   9  12
ATOM     12  N   UNL     1       4.823   1.244  24.670  0.00  0.00    -0.241 NA
ATOM     13  H   UNL     1       4.305   0.730  25.397  0.00  0.00    +0.144 HD
BRANCH  12  14
ATOM     14  C   UNL     1       4.485   2.666  24.830  0.00  0.00    +0.102 C 
BRANCH  14  15
ATOM     15  C   UNL     1       3.546   3.213  23.748  0.00  0.00    +0.018 C 
BRANCH  15  16
ATOM     16  C   UNL     1       4.295   3.702  22.502  0.00  0.00    +0.016 C 
BRANCH  16  17
ATOM     17  C   UNL     1       5.626   4.380  22.829  0.00  0.00    +0.077 C 
BRANCH  17  18
ATOM     18  N   UNL     1       6.680   3.995  21.900  0.00  0.00    -0.330 NA
ATOM     19  H   UNL     1       6.673   4.624  21.098  0.00  0.00    +0.118 HD
ATOM     20  H   UNL     1       7.590   4.114  22.346  0.00  0.00    +0.118 HD
ENDBRANCH  17  18
ENDBRANCH  16  17
ENDBRANCH  15  16
ENDBRANCH  14  15
ENDBRANCH  12  14
ENDBRANCH   9  12
ENDBRANCH   3   8
BRANCH   1  21
ATOM     21  C   UNL     1       8.411  -2.170  23.507  0.00  0.00    +0.167 C 
BRANCH  21  22
ATOM     22  N   UNL     1       8.900  -3.130  24.499  0.00  0.00    -0.269 N 
ATOM     23  H   UNL     1       9.180  -4.054  24.198  0.00  0.00    +0.153 HD
ATOM     24  C   UNL     1       8.606  -2.995  25.827  0.00  0.00    +0.401 C 
ATOM     25  O   UNL     1       8.195  -1.967  26.343  0.00  0.00    -0.226 OA
BRANCH  24  26
ATOM     26  O   UNL     1       8.784  -4.178  26.462  0.00  0.00    -0.451 OA
BRANCH  26  27
ATOM     27  C   UNL     1       8.218  -5.323  25.798  0.00  0.00    +0.230 C 
ATOM     28  C   UNL     1       6.746  -5.478  26.147  0.00  0.00    +0.048 C 
ENDBRANCH  26  27
ENDBRANCH  24  26
ENDBRANCH  21  22
BRANCH  21  29
ATOM     29  C   UNL     1       7.818  -2.899  22.270  0.00  0.00    +0.067 C 
BRANCH  29  30
ATOM     30  C   UNL     1       6.692  -3.882  22.523  0.00  0.00    -0.045 A 
ATOM     31  C   UNL     1       6.900  -5.247  22.254  0.00  0.00    +0.004 A 
ATOM     32  C   UNL     1       5.887  -6.184  22.490  0.00  0.00    +0.000 A 
ATOM     33  C   UNL     1       4.663  -5.772  23.008  0.00  0.00    +0.000 A 
ATOM     34  C   UNL     1       4.432  -4.420  23.238  0.00  0.00    +0.000 A 
ATOM     35  C   UNL     1       5.428  -3.482  22.966  0.00  0.00    +0.004 A 
ENDBRANCH  29  30
ENDBRANCH  21  29
ENDBRANCH   1  21
TORSDOF 13
ENDMDL
MODEL 3
REMARK VINA RESULT:      -6.6      2.488      4.566
REMARK  Name = 
REMARK  14 active torsions:
REMARK  status: ('A' for Active; 'I' for Inactive)
REMARK    1  A    between atoms: C_2  and  C_3
REMARK    2  A    between atoms: C_2  and  N_10
REMARK    3  A    between atoms: C_2  and  C_16
REMARK    4  A    between atoms: C_3  and  C_4
REMARK    5  A    between atoms: C_11  and  O_13
REMARK    6  A    between atoms: O_13  and  C_14
REMARK    7  A    between atoms: C_14  and  C_15
REMARK    8  A    between atoms: C_22  and  C_24
REMARK    9  A    between atoms: N_26  and  N_27
REMARK   10  A    between atoms: N_27  and  C_28
REMARK   11  A    between atoms: C_28  and  C_29
REMARK   12  A    between atoms: C_29  and  C_30
REMARK   13  A    between atoms: C_30  and  C_31
REMARK   14  A    between atoms: C_31  and  N_32
REMARK                            x       y       z     vdW  Elec       q    Type
REMARK                         _______ _______ _______ _____ _____    ______ ____
ROOT
ATOM      1  C   UNL     1       9.522  -1.024  22.959  0.00  0.00    +0.237 C 
ATOM      2  N   UNL     1       9.285   0.327  23.176  0.00  0.00    -0.288 N 
ATOM      3  C   UNL     1       8.418   0.906  24.220  0.00  0.00    +0.163 C 
ATOM      4  C   UNL     1       8.965   2.326  24.441  0.00  0.00    +0.033 C 
ATOM      5  C   UNL     1      10.254   2.419  23.634  0.00  0.00    +0.021 C 
ATOM      6  C   UNL     1      10.138   1.339  22.581  0.00  0.00    +0.109 C 
ATOM      7  O   UNL     1      10.538  -1.405  22.368  0.00  0.00    -0.274 OA
ENDROOT
BRANCH   3   8
ATOM      8  C   UNL     1       6.933   1.008  23.814  0.00  0.00    +0.247 C 
ATOM      9  N   UNL     1       6.604   2.189  23.155  0.00  0.00    -0.249 N 
ATOM     10  H   UNL     1       7.339   2.812  22.838  0.00  0.00    +0.169 HD
ATOM     11  O   UNL     1       6.084   0.197  24.178  0.00  0.00    -0.272 OA
BRANCH   9  12
ATOM     12  N   UNL     1       5.288   2.389  22.685  0.00  0.00    -0.241 NA
ATOM     13  H   UNL     1       4.771   1.518  22.870  0.00  0.00    +0.144 HD
BRANCH  12  14
ATOM     14  C   UNL     1       4.609   3.457  23.434  0.00  0.00    +0.102 C 
BRANCH  14  15
ATOM     15  C   UNL     1       5.544   4.567  23.929  0.00  0.00    +0.018 C 
BRANCH  15  16
ATOM     16  C   UNL     1       5.530   5.805  23.023  0.00  0.00    +0.016 C 
BRANCH  16  17
ATOM     17  C   UNL     1       6.846   6.015  22.274  0.00  0.00    +0.077 C 
BRANCH  17  18
ATOM     18  N   UNL     1       7.433   4.756  21.833  0.00  0.00    -0.330 NA
ATOM     19  H   UNL     1       6.690   4.100  21.593  0.00  0.00    +0.118 HD
ATOM     20  H   UNL     1       7.965   4.908  20.976  0.00  0.00    +0.118 HD
ENDBRANCH  17  18
ENDBRANCH  16  17
ENDBRANCH  15  16
ENDBRANCH  14  15
ENDBRANCH  12  14
ENDBRANCH   9  12
ENDBRANCH   3   8
BRANCH   1  21
ATOM     21  C   UNL     1       8.478  -2.046  23.460  0.00  0.00    +0.167 C 
BRANCH  21  22
ATOM     22  N   UNL     1       9.038  -2.961  24.457  0.00  0.00    -0.269 N 
ATOM     23  H   UNL     1       9.499  -3.806  24.151  0.00  0.00    +0.153 HD
ATOM     24  C   UNL     1       8.610  -2.948  25.756  0.00  0.00    +0.401 C 
ATOM     25  O   UNL     1       7.983  -2.033  26.268  0.00  0.00    -0.226 OA
BRANCH  24  26
ATOM     26  O   UNL     1       8.934  -4.115  26.361  0.00  0.00    -0.451 OA
BRANCH  26  27
ATOM     27  C   UNL     1       8.380  -5.297  25.754  0.00  0.00    +0.230 C 
ATOM     28  C   UNL     1       6.890  -5.404  26.037  0.00  0.00    +0.048 C 
ENDBRANCH  26  27
ENDBRANCH  24  26
ENDBRANCH  21  22
BRANCH  21  29
ATOM     29  C   UNL     1       7.945  -2.825  22.226  0.00  0.00    +0.067 C 
BRANCH  29  30
ATOM     30  C   UNL     1       6.829  -3.823  22.470  0.00  0.00    -0.045 A 
ATOM     31  C   UNL     1       5.616  -3.373  23.022  0.00  0.00    +0.004 A 
ATOM     32  C   UNL     1       4.559  -4.264  23.245  0.00  0.00    +0.000 A 
ATOM     33  C   UNL     1       4.697  -5.607  22.909  0.00  0.00    +0.000 A 
ATOM     34  C   UNL     1       5.906  -6.070  22.402  0.00  0.00    +0.000 A 
ATOM     35  C   UNL     1       6.972  -5.190  22.216  0.00  0.00    +0.004 A 
ENDBRANCH  29  30
ENDBRANCH  21  29
ENDBRANCH   1  21
TORSDOF 13
ENDMDL
MODEL 4
REMARK VINA RESULT:      -6.6      2.632      5.338
REMARK  Name = 
REMARK  14 active torsions:
REMARK  status: ('A' for Active; 'I' for Inactive)
REMARK    1  A    between atoms: C_2  and  C_3
REMARK    2  A    between atoms: C_2  and  N_10
REMARK    3  A    between atoms: C_2  and  C_16
REMARK    4  A    between atoms: C_3  and  C_4
REMARK    5  A    between atoms: C_11  and  O_13
REMARK    6  A    between atoms: O_13  and  C_14
REMARK    7  A    between atoms: C_14  and  C_15
REMARK    8  A    between atoms: C_22  and  C_24
REMARK    9  A    between atoms: N_26  and  N_27
REMARK   10  A    between atoms: N_27  and  C_28
REMARK   11  A    between atoms: C_28  and  C_29
REMARK   12  A    between atoms: C_29  and  C_30
REMARK   13  A    between atoms: C_30  and  C_31
REMARK   14  A    between atoms: C_31  and  N_32
REMARK                            x       y       z     vdW  Elec       q    Type
REMARK                         _______ _______ _______ _____ _____    ______ ____
ROOT
ATOM      1  C   UNL     1       9.440  -1.083  22.735  0.00  0.00    +0.237 C 
ATOM      2  N   UNL     1       9.332   0.264  23.054  0.00  0.00    -0.288 N 
ATOM      3  C   UNL     1       8.666   0.831  24.242  0.00  0.00    +0.163 C 
ATOM      4  C   UNL     1       9.337   2.199  24.453  0.00  0.00    +0.033 C 
ATOM      5  C   UNL     1      10.501   2.260  23.471  0.00  0.00    +0.021 C 
ATOM      6  C   UNL     1      10.161   1.255  22.393  0.00  0.00    +0.109 C 
ATOM      7  O   UNL     1      10.332  -1.490  21.984  0.00  0.00    -0.274 OA
ENDROOT
BRANCH   3   8
ATOM      8  C   UNL     1       7.150   1.050  24.064  0.00  0.00    +0.247 C 
ATOM      9  N   UNL     1       6.372   0.485  25.071  0.00  0.00    -0.249 N 
ATOM     10  H   UNL     1       6.814   0.130  25.912  0.00  0.00    +0.169 HD
ATOM     11  O   UNL     1       6.660   1.536  23.047  0.00  0.00    -0.272 OA
BRANCH   9  12
ATOM     12  N   UNL     1       4.970   0.653  25.055  0.00  0.00    -0.241 NA
ATOM     13  H   UNL     1       4.572  -0.212  24.664  0.00  0.00    +0.144 HD
BRANCH  12  14
ATOM     14  C   UNL     1       4.433   0.794  26.417  0.00  0.00    +0.102 C 
BRANCH  14  15
ATOM     15  C   UNL     1       5.208   0.006  27.480  0.00  0.00    +0.018 C 
BRANCH  15  16
ATOM     16  C   UNL     1       5.577   0.858  28.700  0.00  0.00    +0.016 C 
BRANCH  16  17
ATOM     17  C   UNL     1       7.070   1.179  28.780  0.00  0.00    +0.077 C 
BRANCH  17  18
ATOM     18  N   UNL     1       7.846   0.422  27.806  0.00  0.00    -0.330 NA
ATOM     19  H   UNL     1       8.532   1.035  27.368  0.00  0.00    +0.118 HD
ATOM     20  H   UNL     1       8.378  -0.305  28.283  0.00  0.00    +0.118 HD
ENDBRANCH  17  18
ENDBRANCH  16  17
ENDBRANCH  15  16
ENDBRANCH  14  15
ENDBRANCH  12  14
ENDBRANCH   9  12
ENDBRANCH   3   8
BRANCH   1  21
ATOM     21  C   UNL     1       8.409  -2.067  23.332  0.00  0.00    +0.167 C 
BRANCH  21  22
ATOM     22  N   UNL     1       8.992  -2.907  24.380  0.00  0.00    -0.269 N 
ATOM     23  H   UNL     1       9.529  -3.723  24.120  0.00  0.00    +0.153 HD
ATOM     24  C   UNL     1       8.507  -2.890  25.658  0.00  0.00    +0.401 C 
ATOM     25  O   UNL     1       7.791  -2.012  26.114  0.00  0.00    -0.226 OA
BRANCH  24  26
ATOM     26  O   UNL     1       8.892  -4.011  26.313  0.00  0.00    -0.451 OA
BRANCH  26  27
ATOM     27  C   UNL     1       8.387  -5.245  25.769  0.00  0.00    +0.230 C 
ATOM     28  C   UNL     1       6.919  -5.430  26.121  0.00  0.00    +0.048 C 
ENDBRANCH  26  27
ENDBRANCH  24  26
ENDBRANCH  21  22
BRANCH  21  29
ATOM     29  C   UNL     1       7.852  -2.933  22.168  0.00  0.00    +0.067 C 
BRANCH  29  30
ATOM     30  C   UNL     1       6.707  -3.872  22.495  0.00  0.00    -0.045 A 
ATOM     31  C   UNL     1       6.871  -5.254  22.287  0.00  0.00    +0.004 A 
ATOM     32  C   UNL     1       5.841  -6.150  22.592  0.00  0.00    +0.000 A 
ATOM     33  C   UNL     1       4.642  -5.680  23.120  0.00  0.00    +0.000 A 
ATOM     34  C   UNL     1       4.453  -4.314  23.291  0.00  0.00    +0.000 A 
ATOM     35  C   UNL     1       5.466  -3.417  22.950  0.00  0.00    +0.004 A 
ENDBRANCH  29  30
ENDBRANCH  21  29
ENDBRANCH   1  21
TORSDOF 13
ENDMDL
MODEL 5
REMARK VINA RESULT:      -6.6      2.615      5.808
REMARK  Name = 
REMARK  14 active torsions:
REMARK  status: ('A' for Active; 'I' for Inactive)
REMARK    1  A    between atoms: C_2  and  C_3
REMARK    2  A    between atoms: C_2  and  N_10
REMARK    3  A    between atoms: C_2  and  C_16
REMARK    4  A    between atoms: C_3  and  C_4
REMARK    5  A    between atoms: C_11  and  O_13
REMARK    6  A    between atoms: O_13  and  C_14
REMARK    7  A    between atoms: C_14  and  C_15
REMARK    8  A    between atoms: C_22  and  C_24
REMARK    9  A    between atoms: N_26  and  N_27
REMARK   10  A    between atoms: N_27  and  C_28
REMARK   11  A    between atoms: C_28  and  C_29
REMARK   12  A    between atoms: C_29  and  C_30
REMARK   13  A    between atoms: C_30  and  C_31
REMARK   14  A    between atoms: C_31  and  N_32
REMARK                            x       y       z     vdW  Elec       q    Type
REMARK                         _______ _______ _______ _____ _____    ______ ____
ROOT
ATOM      1  C   UNL     1       8.968  -3.512  24.343  0.00  0.00    +0.237 C 
ATOM      2  N   UNL     1       8.176  -3.797  25.447  0.00  0.00    -0.288 N 
ATOM      3  C   UNL     1       6.704  -3.907  25.462  0.00  0.00    +0.163 C 
ATOM      4  C   UNL     1       6.391  -4.809  26.668  0.00  0.00    +0.033 C 
ATOM      5  C   UNL     1       7.731  -5.330  27.172  0.00  0.00    +0.021 C 
ATOM      6  C   UNL     1       8.757  -4.343  26.660  0.00  0.00    +0.109 C 
ATOM      7  O   UNL     1      10.159  -3.837  24.312  0.00  0.00    -0.274 OA
ENDROOT
BRANCH   3   8
ATOM      8  C   UNL     1       5.980  -2.559  25.655  0.00  0.00    +0.247 C 
ATOM      9  N   UNL     1       6.750  -1.585  26.285  0.00  0.00    -0.249 N 
ATOM     10  H   UNL     1       7.743  -1.738  26.425  0.00  0.00    +0.169 HD
ATOM     11  O   UNL     1       4.783  -2.404  25.421  0.00  0.00    -0.272 OA
BRANCH   9  12
ATOM     12  N   UNL     1       6.224  -0.289  26.480  0.00  0.00    -0.241 NA
ATOM     13  H   UNL     1       6.281  -0.094  27.490  0.00  0.00    +0.144 HD
BRANCH  12  14
ATOM     14  C   UNL     1       7.042   0.727  25.801  0.00  0.00    +0.102 C 
BRANCH  14  15
ATOM     15  C   UNL     1       6.730   0.887  24.308  0.00  0.00    +0.018 C 
BRANCH  15  16
ATOM     16  C   UNL     1       6.743   2.351  23.851  0.00  0.00    +0.016 C 
BRANCH  16  17
ATOM     17  C   UNL     1       6.196   2.544  22.436  0.00  0.00    +0.077 C 
BRANCH  17  18
ATOM     18  N   UNL     1       6.440   3.889  21.933  0.00  0.00    -0.330 NA
ATOM     19  H   UNL     1       7.238   3.876  21.299  0.00  0.00    +0.118 HD
ATOM     20  H   UNL     1       5.641   4.197  21.377  0.00  0.00    +0.118 HD
ENDBRANCH  17  18
ENDBRANCH  16  17
ENDBRANCH  15  16
ENDBRANCH  14  15
ENDBRANCH  12  14
ENDBRANCH   9  12
ENDBRANCH   3   8
BRANCH   1  21
ATOM     21  C   UNL     1       8.330  -2.763  23.151  0.00  0.00    +0.167 C 
BRANCH  21  22
ATOM     22  N   UNL     1       7.542  -3.654  22.298  0.00  0.00    -0.269 N 
ATOM     23  H   UNL     1       8.010  -4.380  21.772  0.00  0.00    +0.153 HD
ATOM     24  C   UNL     1       6.297  -3.301  21.857  0.00  0.00    +0.401 C 
ATOM     25  O   UNL     1       5.621  -2.406  22.339  0.00  0.00    -0.226 OA
BRANCH  24  26
ATOM     26  O   UNL     1       5.959  -4.051  20.781  0.00  0.00    -0.451 OA
BRANCH  26  27
ATOM     27  C   UNL     1       6.158  -5.469  20.932  0.00  0.00    +0.230 C 
ATOM     28  C   UNL     1       5.392  -5.998  22.135  0.00  0.00    +0.048 C 
ENDBRANCH  26  27
ENDBRANCH  24  26
ENDBRANCH  21  22
BRANCH  21  29
ATOM     29  C   UNL     1       9.476  -2.089  22.345  0.00  0.00    +0.067 C 
BRANCH  29  30
ATOM     30  C   UNL     1       9.767  -0.632  22.648  0.00  0.00    -0.045 A 
ATOM     31  C   UNL     1      10.228  -0.276  23.928  0.00  0.00    +0.004 A 
ATOM     32  C   UNL     1      10.521   1.057  24.236  0.00  0.00    +0.000 A 
ATOM     33  C   UNL     1      10.371   2.046  23.269  0.00  0.00    +0.000 A 
ATOM     34  C   UNL     1       9.876   1.711  22.013  0.00  0.00    +0.000 A 
ATOM     35  C   UNL     1       9.547   0.388  21.719  0.00  0.00    +0.004 A 
ENDBRANCH  29  30
ENDBRANCH  21  29
ENDBRANCH   1  21
TORSDOF 13
ENDMDL
MODEL 6
REMARK VINA RESULT:      -6.1      3.183      8.293
REMARK  Name = 
REMARK  14 active torsions:
REMARK  status: ('A' for Active; 'I' for Inactive)
REMARK    1  A    between atoms: C_2  and  C_3
REMARK    2  A    between atoms: C_2  and  N_10
REMARK    3  A    between atoms: C_2  and  C_16
REMARK    4  A    between atoms: C_3  and  C_4
REMARK    5  A    between atoms: C_11  and  O_13
REMARK    6  A    between atoms: O_13  and  C_14
REMARK    7  A    between atoms: C_14  and  C_15
REMARK    8  A    between atoms: C_22  and  C_24
REMARK    9  A    between atoms: N_26  and  N_27
REMARK   10  A    between atoms: N_27  and  C_28
REMARK   11  A    between atoms: C_28  and  C_29
REMARK   12  A    between atoms: C_29  and  C_30
REMARK   13  A    between atoms: C_30  and  C_31
REMARK   14  A    between atoms: C_31  and  N_32
REMARK                            x       y       z     vdW  Elec       q    Type
REMARK                         _______ _______ _______ _____ _____    ______ ____
ROOT
ATOM      1  C   UNL     1       8.021  -3.143  23.046  0.00  0.00    +0.237 C 
ATOM      2  N   UNL     1       7.337  -4.335  23.244  0.00  0.00    -0.288 N 
ATOM      3  C   UNL     1       6.552  -4.705  24.438  0.00  0.00    +0.163 C 
ATOM      4  C   UNL     1       5.542  -5.750  23.934  0.00  0.00    +0.033 C 
ATOM      5  C   UNL     1       5.679  -5.782  22.416  0.00  0.00    +0.021 C 
ATOM      6  C   UNL     1       7.059  -5.228  22.134  0.00  0.00    +0.109 C 
ATOM      7  O   UNL     1       8.293  -2.746  21.909  0.00  0.00    -0.274 OA
ENDROOT
BRANCH   3   8
ATOM      8  C   UNL     1       7.392  -5.337  25.566  0.00  0.00    +0.247 C 
ATOM      9  N   UNL     1       6.739  -5.400  26.793  0.00  0.00    -0.249 N 
ATOM     10  H   UNL     1       5.746  -5.202  26.849  0.00  0.00    +0.169 HD
ATOM     11  O   UNL     1       8.583  -5.614  25.438  0.00  0.00    -0.272 OA
BRANCH   9  12
ATOM     12  N   UNL     1       7.377  -6.001  27.901  0.00  0.00    -0.241 NA
ATOM     13  H   UNL     1       8.002  -5.289  28.305  0.00  0.00    +0.144 HD
BRANCH  12  14
ATOM     14  C   UNL     1       6.408  -6.364  28.945  0.00  0.00    +0.102 C 
BRANCH  14  15
ATOM     15  C   UNL     1       5.014  -6.715  28.411  0.00  0.00    +0.018 C 
BRANCH  15  16
ATOM     16  C   UNL     1       3.928  -5.751  28.903  0.00  0.00    +0.016 C 
BRANCH  16  17
ATOM     17  C   UNL     1       4.481  -4.393  29.337  0.00  0.00    +0.077 C 
BRANCH  17  18
ATOM     18  N   UNL     1       4.579  -3.459  28.223  0.00  0.00    -0.330 NA
ATOM     19  H   UNL     1       3.786  -2.819  28.246  0.00  0.00    +0.118 HD
ATOM     20  H   UNL     1       5.413  -2.882  28.333  0.00  0.00    +0.118 HD
ENDBRANCH  17  18
ENDBRANCH  16  17
ENDBRANCH  15  16
ENDBRANCH  14  15
ENDBRANCH  12  14
ENDBRANCH   9  12
ENDBRANCH   3   8
BRANCH   1  21
ATOM     21  C   UNL     1       8.452  -2.325  24.285  0.00  0.00    +0.167 C 
BRANCH  21  22
ATOM     22  N   UNL     1       7.509  -1.247  24.587  0.00  0.00    -0.269 N 
ATOM     23  H   UNL     1       7.540  -0.394  24.044  0.00  0.00    +0.153 HD
ATOM     24  C   UNL     1       6.890  -1.161  25.804  0.00  0.00    +0.401 C 
ATOM     25  O   UNL     1       6.818  -2.078  26.608  0.00  0.00    -0.226 OA
BRANCH  24  26
ATOM     26  O   UNL     1       6.426   0.096  25.998  0.00  0.00    -0.451 OA
BRANCH  26  27
ATOM     27  C   UNL     1       5.195   0.189  26.738  0.00  0.00    +0.230 C 
ATOM     28  C   UNL     1       5.397   0.963  28.032  0.00  0.00    +0.048 C 
ENDBRANCH  26  27
ENDBRANCH  24  26
ENDBRANCH  21  22
BRANCH  21  29
ATOM     29  C   UNL     1       9.874  -1.763  24.012  0.00  0.00    +0.067 C 
BRANCH  29  30
ATOM     30  C   UNL     1       9.973  -0.304  23.608  0.00  0.00    -0.045 A 
ATOM     31  C   UNL     1      10.195   0.668  24.600  0.00  0.00    +0.004 A 
ATOM     32  C   UNL     1      10.307   2.021  24.261  0.00  0.00    +0.000 A 
ATOM     33  C   UNL     1      10.211   2.417  22.930  0.00  0.00    +0.000 A 
ATOM     34  C   UNL     1       9.949   1.470  21.947  0.00  0.00    +0.000 A 
ATOM     35  C   UNL     1       9.799   0.126  22.290  0.00  0.00    +0.004 A 
ENDBRANCH  29  30
ENDBRANCH  21  29
ENDBRANCH   1  21
TORSDOF 13
ENDMDL
MODEL 7
REMARK VINA RESULT:      -6.1      2.761      6.407
REMARK  Name = 
REMARK  14 active torsions:
REMARK  status: ('A' for Active; 'I' for Inactive)
REMARK    1  A    between atoms: C_2  and  C_3
REMARK    2  A    between atoms: C_2  and  N_10
REMARK    3  A    between atoms: C_2  and  C_16
REMARK    4  A    between atoms: C_3  and  C_4
REMARK    5  A    between atoms: C_11  and  O_13
REMARK    6  A    between atoms: O_13  and  C_14
REMARK    7  A    between atoms: C_14  and  C_15
REMARK    8  A    between atoms: C_22  and  C_24
REMARK    9  A    between atoms: N_26  and  N_27
REMARK   10  A    between atoms: N_27  and  C_28
REMARK   11  A    between atoms: C_28  and  C_29
REMARK   12  A    between atoms: C_29  and  C_30
REMARK   13  A    between atoms: C_30  and  C_31
REMARK   14  A    between atoms: C_31  and  N_32
REMARK                            x       y       z     vdW  Elec       q    Type
REMARK                         _______ _______ _______ _____ _____    ______ ____
ROOT
ATOM      1  C   UNL     1       9.161   0.000  25.077  0.00  0.00    +0.237 C 
ATOM      2  N   UNL     1       9.207   0.130  23.696  0.00  0.00    -0.288 N 
ATOM      3  C   UNL     1       8.048   0.183  22.783  0.00  0.00    +0.163 C 
ATOM      4  C   UNL     1       8.560   0.932  21.542  0.00  0.00    +0.033 C 
ATOM      5  C   UNL     1       9.952   1.442  21.893  0.00  0.00    +0.021 C 
ATOM      6  C   UNL     1      10.422   0.557  23.027  0.00  0.00    +0.109 C 
ATOM      7  O   UNL     1      10.104   0.371  25.783  0.00  0.00    -0.274 OA
ENDROOT
BRANCH   3   8
ATOM      8  C   UNL     1       7.535  -1.204  22.345  0.00  0.00    +0.247 C 
ATOM      9  N   UNL     1       6.192  -1.430  22.631  0.00  0.00    -0.249 N 
ATOM     10  H   UNL     1       5.604  -0.662  22.937  0.00  0.00    +0.169 HD
ATOM     11  O   UNL     1       8.279  -2.090  21.927  0.00  0.00    -0.272 OA
BRANCH   9  12
ATOM     12  N   UNL     1       5.583  -2.642  22.238  0.00  0.00    -0.241 NA
ATOM     13  H   UNL     1       6.286  -3.166  21.698  0.00  0.00    +0.144 HD
BRANCH  12  14
ATOM     14  C   UNL     1       5.236  -3.469  23.404  0.00  0.00    +0.102 C 
BRANCH  14  15
ATOM     15  C   UNL     1       5.273  -4.978  23.134  0.00  0.00    +0.018 C 
BRANCH  15  16
ATOM     16  C   UNL     1       6.699  -5.520  22.980  0.00  0.00    +0.016 C 
BRANCH  16  17
ATOM     17  C   UNL     1       7.062  -5.853  21.533  0.00  0.00    +0.077 C 
BRANCH  17  18
ATOM     18  N   UNL     1       5.994  -5.502  20.605  0.00  0.00    -0.330 NA
ATOM     19  H   UNL     1       6.144  -4.556  20.257  0.00  0.00    +0.118 HD
ATOM     20  H   UNL     1       6.033  -6.114  19.790  0.00  0.00    +0.118 HD
ENDBRANCH  17  18
ENDBRANCH  16  17
ENDBRANCH  15  16
ENDBRANCH  14  15
ENDBRANCH  12  14
ENDBRANCH   9  12
ENDBRANCH   3   8
BRANCH   1  21
ATOM     21  C   UNL     1       7.905  -0.634  25.717  0.00  0.00    +0.167 C 
BRANCH  21  22
ATOM     22  N   UNL     1       7.044   0.368  26.348  0.00  0.00    -0.269 N 
ATOM     23  H   UNL     1       7.337   0.800  27.214  0.00  0.00    +0.153 HD
ATOM     24  C   UNL     1       5.708   0.439  26.065  0.00  0.00    +0.401 C 
ATOM     25  O   UNL     1       5.179  -0.081  25.094  0.00  0.00    -0.226 OA
BRANCH  24  26
ATOM     26  O   UNL     1       5.064   1.117  27.044  0.00  0.00    -0.451 OA
BRANCH  26  27
ATOM     27  C   UNL     1       4.327   2.274  26.608  0.00  0.00    +0.230 C 
ATOM     28  C   UNL     1       3.054   2.445  27.423  0.00  0.00    +0.048 C 
ENDBRANCH  26  27
ENDBRANCH  24  26
ENDBRANCH  21  22
BRANCH  21  29
ATOM     29  C   UNL     1       8.382  -1.691  26.751  0.00  0.00    +0.067 C 
BRANCH  29  30
ATOM     30  C   UNL     1       7.688  -3.039  26.729  0.00  0.00    -0.045 A 
ATOM     31  C   UNL     1       8.446  -4.197  26.477  0.00  0.00    +0.004 A 
ATOM     32  C   UNL     1       7.841  -5.459  26.464  0.00  0.00    +0.000 A 
ATOM     33  C   UNL     1       6.478  -5.580  26.714  0.00  0.00    +0.000 A 
ATOM     34  C   UNL     1       5.711  -4.439  26.922  0.00  0.00    +0.000 A 
ATOM     35  C   UNL     1       6.307  -3.179  26.896  0.00  0.00    +0.004 A 
ENDBRANCH  29  30
ENDBRANCH  21  29
ENDBRANCH   1  21
TORSDOF 13
ENDMDL
MODEL 8
REMARK VINA RESULT:      -6.0      2.304      8.319
REMARK  Name = 
REMARK  14 active torsions:
REMARK  status: ('A' for Active; 'I' for Inactive)
REMARK    1  A    between atoms: C_2  and  C_3
REMARK    2  A    between atoms: C_2  and  N_10
REMARK    3  A    between atoms: C_2  and  C_16
REMARK    4  A    between atoms: C_3  and  C_4
REMARK    5  A    between atoms: C_11  and  O_13
REMARK    6  A    between atoms: O_13  and  C_14
REMARK    7  A    between atoms: C_14  and  C_15
REMARK    8  A    between atoms: C_22  and  C_24
REMARK    9  A    between atoms: N_26  and  N_27
REMARK   10  A    between atoms: N_27  and  C_28
REMARK   11  A    between atoms: C_28  and  C_29
REMARK   12  A    between atoms: C_29  and  C_30
REMARK   13  A    between atoms: C_30  and  C_31
REMARK   14  A    between atoms: C_31  and  N_32
REMARK                            x       y       z     vdW  Elec       q    Type
REMARK                         _______ _______ _______ _____ _____    ______ ____
ROOT
ATOM      1  C   UNL     1       7.972  -1.317  25.928  0.00  0.00    +0.237 C 
ATOM      2  N   UNL     1       8.212  -2.657  25.658  0.00  0.00    -0.288 N 
ATOM      3  C   UNL     1       8.995  -3.196  24.529  0.00  0.00    +0.163 C 
ATOM      4  C   UNL     1       9.476  -4.576  25.008  0.00  0.00    +0.033 C 
ATOM      5  C   UNL     1       9.096  -4.675  26.480  0.00  0.00    +0.021 C 
ATOM      6  C   UNL     1       7.976  -3.675  26.666  0.00  0.00    +0.109 C 
ATOM      7  O   UNL     1       7.681  -0.939  27.068  0.00  0.00    -0.274 OA
ENDROOT
BRANCH   3   8
ATOM      8  C   UNL     1       8.178  -3.381  23.235  0.00  0.00    +0.247 C 
ATOM      9  N   UNL     1       7.536  -4.613  23.140  0.00  0.00    -0.249 N 
ATOM     10  H   UNL     1       7.493  -5.224  23.948  0.00  0.00    +0.169 HD
ATOM     11  O   UNL     1       8.217  -2.585  22.300  0.00  0.00    -0.272 OA
BRANCH   9  12
ATOM     12  N   UNL     1       6.713  -4.894  22.027  0.00  0.00    -0.241 NA
ATOM     13  H   UNL     1       7.336  -5.207  21.269  0.00  0.00    +0.144 HD
BRANCH  12  14
ATOM     14  C   UNL     1       5.792  -6.005  22.310  0.00  0.00    +0.102 C 
BRANCH  14  15
ATOM     15  C   UNL     1       4.706  -5.672  23.340  0.00  0.00    +0.018 C 
BRANCH  15  16
ATOM     16  C   UNL     1       4.622  -6.705  24.471  0.00  0.00    +0.016 C 
BRANCH  16  17
ATOM     17  C   UNL     1       4.819  -6.095  25.858  0.00  0.00    +0.077 C 
BRANCH  17  18
ATOM     18  N   UNL     1       5.087  -7.108  26.870  0.00  0.00    -0.330 NA
ATOM     19  H   UNL     1       5.886  -6.821  27.435  0.00  0.00    +0.118 HD
ATOM     20  H   UNL     1       4.296  -7.172  27.510  0.00  0.00    +0.118 HD
ENDBRANCH  17  18
ENDBRANCH  16  17
ENDBRANCH  15  16
ENDBRANCH  14  15
ENDBRANCH  12  14
ENDBRANCH   9  12
ENDBRANCH   3   8
BRANCH   1  21
ATOM     21  C   UNL     1       8.062  -0.303  24.766  0.00  0.00    +0.167 C 
BRANCH  21  22
ATOM     22  N   UNL     1       9.181   0.628  24.933  0.00  0.00    -0.269 N 
ATOM     23  H   UNL     1       9.043   1.479  25.461  0.00  0.00    +0.153 HD
ATOM     24  C   UNL     1      10.250   0.616  24.081  0.00  0.00    +0.401 C 
ATOM     25  O   UNL     1      10.524  -0.306  23.328  0.00  0.00    -0.226 OA
BRANCH  24  26
ATOM     26  O   UNL     1      10.916   1.793  24.160  0.00  0.00    -0.451 OA
BRANCH  26  27
ATOM     27  C   UNL     1      10.552   2.773  23.171  0.00  0.00    +0.230 C 
ATOM     28  C   UNL     1      10.158   4.087  23.829  0.00  0.00    +0.048 C 
ENDBRANCH  26  27
ENDBRANCH  24  26
ENDBRANCH  21  22
BRANCH  21  29
ATOM     29  C   UNL     1       6.710   0.459  24.693  0.00  0.00    +0.067 C 
BRANCH  29  30
ATOM     30  C   UNL     1       6.704   1.785  23.958  0.00  0.00    -0.045 A 
ATOM     31  C   UNL     1       6.908   1.799  22.567  0.00  0.00    +0.004 A 
ATOM     32  C   UNL     1       6.893   3.004  21.855  0.00  0.00    +0.000 A 
ATOM     33  C   UNL     1       6.662   4.204  22.520  0.00  0.00    +0.000 A 
ATOM     34  C   UNL     1       6.501   4.206  23.901  0.00  0.00    +0.000 A 
ATOM     35  C   UNL     1       6.555   3.009  24.616  0.00  0.00    +0.004 A 
ENDBRANCH  29  30
ENDBRANCH  21  29
ENDBRANCH   1  21
TORSDOF 13
ENDMDL
MODEL 9
REMARK VINA RESULT:      -6.0      2.699      3.535
REMARK  Name = 
REMARK  14 active torsions:
REMARK  status: ('A' for Active; 'I' for Inactive)
REMARK    1  A    between atoms: C_2  and  C_3
REMARK    2  A    between atoms: C_2  and  N_10
REMARK    3  A    between atoms: C_2  and  C_16
REMARK    4  A    between atoms: C_3  and  C_4
REMARK    5  A    between atoms: C_11  and  O_13
REMARK    6  A    between atoms: O_13  and  C_14
REMARK    7  A    between atoms: C_14  and  C_15
REMARK    8  A    between atoms: C_22  and  C_24
REMARK    9  A    between atoms: N_26  and  N_27
REMARK   10  A    between atoms: N_27  and  C_28
REMARK   11  A    between atoms: C_28  and  C_29
REMARK   12  A    between atoms: C_29  and  C_30
REMARK   13  A    between atoms: C_30  and  C_31
REMARK   14  A    between atoms: C_31  and  N_32
REMARK                            x       y       z     vdW  Elec       q    Type
REMARK                         _______ _______ _______ _____ _____    ______ ____
ROOT
ATOM      1  C   UNL     1       4.521  -1.846  25.609  0.00  0.00    +0.237 C 
ATOM      2  N   UNL     1       5.293  -0.719  25.361  0.00  0.00    -0.288 N 
ATOM      3  C   UNL     1       6.171  -0.500  24.195  0.00  0.00    +0.163 C 
ATOM      4  C   UNL     1       6.276   1.029  24.065  0.00  0.00    +0.033 C 
ATOM      5  C   UNL     1       5.284   1.612  25.064  0.00  0.00    +0.021 C 
ATOM      6  C   UNL     1       5.060   0.517  26.084  0.00  0.00    +0.109 C 
ATOM      7  O   UNL     1       3.534  -1.792  26.349  0.00  0.00    -0.274 OA
ENDROOT
BRANCH   3   8
ATOM      8  C   UNL     1       7.591  -1.078  24.365  0.00  0.00    +0.247 C 
ATOM      9  N   UNL     1       8.101  -1.678  23.217  0.00  0.00    -0.249 N 
ATOM     10  H   UNL     1       7.621  -1.564  22.331  0.00  0.00    +0.169 HD
ATOM     11  O   UNL     1       8.157  -1.148  25.454  0.00  0.00    -0.272 OA
BRANCH   9  12
ATOM     12  N   UNL     1       9.411  -2.205  23.222  0.00  0.00    -0.241 NA
ATOM     13  H   UNL     1       9.382  -3.078  22.675  0.00  0.00    +0.144 HD
BRANCH  12  14
ATOM     14  C   UNL     1      10.352  -1.305  22.539  0.00  0.00    +0.102 C 
BRANCH  14  15
ATOM     15  C   UNL     1       9.680  -0.155  21.780  0.00  0.00    +0.018 C 
BRANCH  15  16
ATOM     16  C   UNL     1       9.988   1.220  22.386  0.00  0.00    +0.016 C 
BRANCH  16  17
ATOM     17  C   UNL     1      10.659   1.135  23.757  0.00  0.00    +0.077 C 
BRANCH  17  18
ATOM     18  N   UNL     1       9.755   1.515  24.835  0.00  0.00    -0.330 NA
ATOM     19  H   UNL     1      10.289   1.937  25.593  0.00  0.00    +0.118 HD
ATOM     20  H   UNL     1       9.113   2.236  24.505  0.00  0.00    +0.118 HD
ENDBRANCH  17  18
ENDBRANCH  16  17
ENDBRANCH  15  16
ENDBRANCH  14  15
ENDBRANCH  12  14
ENDBRANCH   9  12
ENDBRANCH   3   8
BRANCH   1  21
ATOM     21  C   UNL     1       4.931  -3.182  24.948  0.00  0.00    +0.167 C 
BRANCH  21  22
ATOM     22  N   UNL     1       3.790  -3.868  24.339  0.00  0.00    -0.269 N 
ATOM     23  H   UNL     1       3.017  -4.159  24.921  0.00  0.00    +0.153 HD
ATOM     24  C   UNL     1       3.900  -4.496  23.129  0.00  0.00    +0.401 C 
ATOM     25  O   UNL     1       4.807  -4.308  22.333  0.00  0.00    -0.226 OA
BRANCH  24  26
ATOM     26  O   UNL     1       2.893  -5.389  22.980  0.00  0.00    -0.451 OA
BRANCH  26  27
ATOM     27  C   UNL     1       2.444  -6.018  24.195  0.00  0.00    +0.230 C 
ATOM     28  C   UNL     1       2.481  -7.533  24.067  0.00  0.00    +0.048 C 
ENDBRANCH  26  27
ENDBRANCH  24  26
ENDBRANCH  21  22
BRANCH  21  29
ATOM     29  C   UNL     1       5.596  -4.067  26.039  0.00  0.00    +0.067 C 
BRANCH  29  30
ATOM     30  C   UNL     1       7.039  -4.472  25.812  0.00  0.00    -0.045 A 
ATOM     31  C   UNL     1       7.409  -5.030  24.575  0.00  0.00    +0.004 A 
ATOM     32  C   UNL     1       8.736  -5.401  24.327  0.00  0.00    +0.000 A 
ATOM     33  C   UNL     1       9.708  -5.207  25.303  0.00  0.00    +0.000 A 
ATOM     34  C   UNL     1       9.346  -4.696  26.544  0.00  0.00    +0.000 A 
ATOM     35  C   UNL     1       8.017  -4.362  26.805  0.00  0.00    +0.004 A 
ENDBRANCH  29  30
ENDBRANCH  21  29
ENDBRANCH   1  21
TORSDOF 13
ENDMDL
