MODEL 1
REMARK VINA RESULT:      -8.5      0.000      0.000
REMARK  Name = 
REMARK  13 active torsions:
REMARK  status: ('A' for Active; 'I' for Inactive)
REMARK    1  A    between atoms: C_5  and  C_6
REMARK    2  A    between atoms: C_6  and  S_7
REMARK    3  A    between atoms: S_7  and  C_8
REMARK    4  A    between atoms: N_12  and  C_13
REMARK    5  A    between atoms: CA_14  and  C_44
REMARK    6  A    between atoms: CA_18  and  N_20
REMARK    7  A    between atoms: C_21  and  CA_23
REMARK    8  A    between atoms: CA_23  and  N_24
REMARK    9  A    between atoms: CA_23  and  C_37
REMARK   10  A    between atoms: N_30  and  C_31
REMARK   11  A    between atoms: C_31  and  C_32
REMARK   12  A    between atoms: C_40  and  O_41
REMARK   13  A    between atoms: C_44  and  O_45
REMARK                            x       y       z     vdW  Elec       q    Type
REMARK                         _______ _______ _______ _____ _____    ______ ____
ROOT
ATOM      1  N   UNL     1       9.484   0.806  23.828  0.00  0.00    -0.300 N 
ATOM      2  H   UNL     1       9.350   1.108  24.790  0.00  0.00    +0.150 HD
ATOM      3  C   UNL     1       9.548   1.817  22.884  0.00  0.00    +0.239 C 
ATOM      4  O   UNL     1      10.102   1.654  21.798  0.00  0.00    -0.273 OA
ENDROOT
BRANCH   1   6
ATOM      5  C   UNL     1       9.731  -1.687  24.576  0.00  0.00    +0.169 C 
ATOM      6  CA  UNL     1      10.110  -0.533  23.590  0.00  0.00    +0.191 C 
ATOM      7  C   UNL     1       9.347  -1.411  22.539  0.00  0.00    +0.244 C 
ATOM      8  O   UNL     1       9.089  -1.414  21.361  0.00  0.00    -0.273 OA
ATOM      9  N   UNL     1       8.883  -2.217  23.518  0.00  0.00    -0.249 N 
ATOM     10  CA  UNL     1       7.904  -3.164  23.676  0.00  0.00    +0.123 C 
ATOM     11  C   UNL     1       7.530  -3.542  24.933  0.00  0.00    -0.021 C 
ATOM     12  C   UNL     1       8.048  -2.885  26.206  0.00  0.00    +0.104 C 
ATOM     13  S   UNL     1       8.697  -1.218  25.976  0.00  0.00    -0.131 S 
BRANCH  10  14
ATOM     14  C   UNL     1       7.187  -3.728  22.465  0.00  0.00    +0.351 C 
ATOM     15  OXT UNL     1       7.410  -4.835  21.997  0.00  0.00    -0.244 OA
BRANCH  14  16
ATOM     16  O   UNL     1       6.304  -2.913  21.857  0.00  0.00    -0.476 OA
ATOM     17  H   UNL     1       6.064  -2.094  22.343  0.00  0.00    +0.295 HD
ENDBRANCH  14  16
ENDBRANCH  10  14
BRANCH  11  18
ATOM     18  C   UNL     1       6.449  -4.570  25.275  0.00  0.00    +0.111 C 
BRANCH  18  19
ATOM     19  S   UNL     1       5.502  -4.247  26.784  0.00  0.00    -0.080 S 
BRANCH  19  20
ATOM     20  C   UNL     1       5.816  -5.605  27.783  0.00  0.00    +0.209 A 
ATOM     21  N   UNL     1       4.871  -6.545  28.089  0.00  0.00    -0.223 N 
ATOM     22  C   UNL     1       3.476  -6.592  27.736  0.00  0.00    +0.177 C 
ATOM     23  N   UNL     1       5.427  -7.511  28.842  0.00  0.00    -0.043 NA
ATOM     24  N   UNL     1       6.694  -7.144  28.990  0.00  0.00    -0.022 NA
ATOM     25  N   UNL     1       6.947  -5.958  28.344  0.00  0.00    -0.102 NA
ENDBRANCH  19  20
ENDBRANCH  18  19
ENDBRANCH  11  18
ENDBRANCH   1   6
BRANCH   3  26
ATOM     26  CA  UNL     1       8.844   3.138  23.313  0.00  0.00    +0.191 C 
BRANCH  26  27
ATOM     27  N   UNL     1       7.995   2.889  24.461  0.00  0.00    -0.284 N 
ATOM     28  H   UNL     1       8.222   3.325  25.350  0.00  0.00    +0.151 HD
ATOM     29  C   UNL     1       6.858   2.136  24.393  0.00  0.00    +0.310 C 
ATOM     30  N   UNL     1       6.274   1.812  25.613  0.00  0.00    -0.217 N 
ATOM     31  C   UNL     1       6.842   2.156  26.844  0.00  0.00    +0.309 C 
ATOM     32  O   UNL     1       7.593   3.117  27.002  0.00  0.00    -0.264 OA
ATOM     33  C   UNL     1       6.443   1.319  28.083  0.00  0.00    +0.302 C 
ATOM     34  O   UNL     1       7.077   1.452  29.123  0.00  0.00    -0.265 OA
ATOM     35  N   UNL     1       5.334   0.489  27.955  0.00  0.00    -0.293 N 
ATOM     36  C   UNL     1       4.985  -0.029  26.644  0.00  0.00    +0.127 C 
ATOM     37  C   UNL     1       5.016   1.076  25.602  0.00  0.00    +0.137 C 
ATOM     38  O   UNL     1       6.426   1.736  23.313  0.00  0.00    -0.252 OA
BRANCH  35  39
ATOM     39  C   UNL     1       4.686  -0.037  29.153  0.00  0.00    +0.105 C 
ATOM     40  C   UNL     1       3.764  -1.216  28.906  0.00  0.00    +0.024 C 
ENDBRANCH  35  39
ENDBRANCH  26  27
BRANCH  26  41
ATOM     41  C   UNL     1       9.898   4.206  23.568  0.00  0.00    -0.018 A 
ATOM     42  C   UNL     1       9.596   5.420  24.210  0.00  0.00    +0.009 A 
ATOM     43  C   UNL     1      10.609   6.323  24.540  0.00  0.00    +0.046 A 
ATOM     44  C   UNL     1      11.930   6.012  24.254  0.00  0.00    +0.117 A 
ATOM     45  C   UNL     1      12.256   4.828  23.604  0.00  0.00    +0.046 A 
ATOM     46  C   UNL     1      11.243   3.930  23.258  0.00  0.00    +0.009 A 
BRANCH  44  47
ATOM     47  O   UNL     1      12.894   6.888  24.657  0.00  0.00    -0.507 OA
ATOM     48  H   UNL     1      13.734   6.630  24.246  0.00  0.00    +0.292 HD
ENDBRANCH  44  47
ENDBRANCH  26  41
ENDBRANCH   3  26
TORSDOF 11
ENDMDL
MODEL 2
REMARK VINA RESULT:      -8.3      3.173      7.403
REMARK  Name = 
REMARK  13 active torsions:
REMARK  status: ('A' for Active; 'I' for Inactive)
REMARK    1  A    between atoms: C_5  and  C_6
REMARK    2  A    between atoms: C_6  and  S_7
REMARK    3  A    between atoms: S_7  and  C_8
REMARK    4  A    between atoms: N_12  and  C_13
REMARK    5  A    between atoms: CA_14  and  C_44
REMARK    6  A    between atoms: CA_18  and  N_20
REMARK    7  A    between atoms: C_21  and  CA_23
REMARK    8  A    between atoms: CA_23  and  N_24
REMARK    9  A    between atoms: CA_23  and  C_37
REMARK   10  A    between atoms: N_30  and  C_31
REMARK   11  A    between atoms: C_31  and  C_32
REMARK   12  A    between atoms: C_40  and  O_41
REMARK   13  A    between atoms: C_44  and  O_45
REMARK                            x       y       z     vdW  Elec       q    Type
REMARK                         _______ _______ _______ _____ _____    ______ ____
ROOT
ATOM      1  N   UNL     1       5.091  -2.332  25.700  0.00  0.00    -0.300 N 
ATOM      2  H   UNL     1       4.317  -2.371  25.043  0.00  0.00    +0.150 HD
ATOM      3  C   UNL     1       6.207  -1.631  25.274  0.00  0.00    +0.239 C 
ATOM      4  O   UNL     1       7.015  -1.155  26.070  0.00  0.00    -0.273 OA
ENDROOT
BRANCH   1   6
ATOM      5  C   UNL     1       3.402  -3.139  27.526  0.00  0.00    +0.169 C 
ATOM      6  CA  UNL     1       4.792  -2.526  27.155  0.00  0.00    +0.191 C 
ATOM      7  C   UNL     1       5.350  -3.867  27.743  0.00  0.00    +0.244 C 
ATOM      8  O   UNL     1       6.408  -4.397  27.975  0.00  0.00    -0.273 OA
ATOM      9  N   UNL     1       4.104  -4.384  27.800  0.00  0.00    -0.249 N 
ATOM     10  CA  UNL     1       3.521  -5.617  27.942  0.00  0.00    +0.123 C 
ATOM     11  C   UNL     1       2.201  -5.778  27.630  0.00  0.00    -0.021 C 
ATOM     12  C   UNL     1       1.338  -4.688  27.008  0.00  0.00    +0.104 C 
ATOM     13  S   UNL     1       2.265  -3.398  26.151  0.00  0.00    -0.131 S 
BRANCH  10  14
ATOM     14  C   UNL     1       4.355  -6.811  28.363  0.00  0.00    +0.351 C 
ATOM     15  OXT UNL     1       4.326  -7.299  29.484  0.00  0.00    -0.244 OA
BRANCH  14  16
ATOM     16  O   UNL     1       5.212  -7.298  27.446  0.00  0.00    -0.476 OA
ATOM     17  H   UNL     1       5.837  -7.987  27.759  0.00  0.00    +0.295 HD
ENDBRANCH  14  16
ENDBRANCH  10  14
BRANCH  11  18
ATOM     18  C   UNL     1       1.412  -7.085  27.720  0.00  0.00    +0.111 C 
BRANCH  18  19
ATOM     19  S   UNL     1       0.899  -7.808  26.141  0.00  0.00    -0.080 S 
BRANCH  19  20
ATOM     20  C   UNL     1       2.206  -7.482  25.080  0.00  0.00    +0.209 A 
ATOM     21  N   UNL     1       2.114  -6.625  24.018  0.00  0.00    -0.223 N 
ATOM     22  C   UNL     1       0.976  -5.894  23.526  0.00  0.00    +0.177 C 
ATOM     23  N   UNL     1       3.310  -6.536  23.409  0.00  0.00    -0.043 NA
ATOM     24  N   UNL     1       4.108  -7.342  24.100  0.00  0.00    -0.022 NA
ATOM     25  N   UNL     1       3.433  -7.942  25.135  0.00  0.00    -0.102 NA
ENDBRANCH  19  20
ENDBRANCH  18  19
ENDBRANCH  11  18
ENDBRANCH   1   6
BRANCH   3  26
ATOM     26  CA  UNL     1       6.346  -1.531  23.726  0.00  0.00    +0.191 C 
BRANCH  26  27
ATOM     27  N   UNL     1       7.442  -0.643  23.391  0.00  0.00    -0.284 N 
ATOM     28  H   UNL     1       8.386  -1.016  23.344  0.00  0.00    +0.151 HD
ATOM     29  C   UNL     1       7.260   0.673  23.074  0.00  0.00    +0.310 C 
ATOM     30  N   UNL     1       8.418   1.440  22.989  0.00  0.00    -0.217 N 
ATOM     31  C   UNL     1       9.688   0.935  23.285  0.00  0.00    +0.309 C 
ATOM     32  O   UNL     1       9.987  -0.254  23.188  0.00  0.00    -0.264 OA
ATOM     33  C   UNL     1      10.790   1.944  23.686  0.00  0.00    +0.302 C 
ATOM     34  O   UNL     1      11.841   1.525  24.155  0.00  0.00    -0.265 OA
ATOM     35  N   UNL     1      10.537   3.290  23.436  0.00  0.00    -0.293 N 
ATOM     36  C   UNL     1       9.164   3.759  23.410  0.00  0.00    +0.127 C 
ATOM     37  C   UNL     1       8.293   2.832  22.578  0.00  0.00    +0.137 C 
ATOM     38  O   UNL     1       6.131   1.140  22.929  0.00  0.00    -0.252 OA
BRANCH  35  39
ATOM     39  C   UNL     1      11.643   4.243  23.440  0.00  0.00    +0.105 C 
ATOM     40  C   UNL     1      11.253   5.661  23.808  0.00  0.00    +0.024 C 
ENDBRANCH  35  39
ENDBRANCH  26  27
BRANCH  26  41
ATOM     41  C   UNL     1       6.510  -2.929  23.147  0.00  0.00    -0.018 A 
ATOM     42  C   UNL     1       7.379  -3.878  23.715  0.00  0.00    +0.009 A 
ATOM     43  C   UNL     1       7.412  -5.189  23.235  0.00  0.00    +0.046 A 
ATOM     44  C   UNL     1       6.564  -5.569  22.206  0.00  0.00    +0.117 A 
ATOM     45  C   UNL     1       5.707  -4.648  21.615  0.00  0.00    +0.046 A 
ATOM     46  C   UNL     1       5.684  -3.331  22.082  0.00  0.00    +0.009 A 
BRANCH  44  47
ATOM     47  O   UNL     1       6.577  -6.876  21.816  0.00  0.00    -0.507 OA
ATOM     48  H   UNL     1       7.113  -7.380  22.450  0.00  0.00    +0.292 HD
ENDBRANCH  44  47
ENDBRANCH  26  41
ENDBRANCH   3  26
TORSDOF 11
ENDMDL
MODEL 3
REMARK VINA RESULT:      -7.9      3.010      7.942
REMARK  Name = 
REMARK  13 active torsions:
REMARK  status: ('A' for Active; 'I' for Inactive)
REMARK    1  A    between atoms: C_5  and  C_6
REMARK    2  A    between atoms: C_6  and  S_7
REMARK    3  A    between atoms: S_7  and  C_8
REMARK    4  A    between atoms: N_12  and  C_13
REMARK    5  A    between atoms: CA_14  and  C_44
REMARK    6  A    between atoms: CA_18  and  N_20
REMARK    7  A    between atoms: C_21  and  CA_23
REMARK    8  A    between atoms: CA_23  and  N_24
REMARK    9  A    between atoms: CA_23  and  C_37
REMARK   10  A    between atoms: N_30  and  C_31
REMARK   11  A    between atoms: C_31  and  C_32
REMARK   12  A    between atoms: C_40  and  O_41
REMARK   13  A    between atoms: C_44  and  O_45
REMARK                            x       y       z     vdW  Elec       q    Type
REMARK                         _______ _______ _______ _____ _____    ______ ____
ROOT
ATOM      1  N   UNL     1       6.914   0.122  26.175  0.00  0.00    -0.300 N 
ATOM      2  H   UNL     1       6.871   0.383  25.193  0.00  0.00    +0.150 HD
ATOM      3  C   UNL     1       8.094  -0.472  26.587  0.00  0.00    +0.239 C 
ATOM      4  O   UNL     1       8.449  -0.458  27.766  0.00  0.00    -0.273 OA
ENDROOT
BRANCH   1   6
ATOM      5  C   UNL     1       6.077   2.402  27.145  0.00  0.00    +0.169 C 
ATOM      6  CA  UNL     1       6.016   0.839  27.135  0.00  0.00    +0.191 C 
ATOM      7  C   UNL     1       4.563   1.069  26.593  0.00  0.00    +0.244 C 
ATOM      8  O   UNL     1       3.587   0.432  26.284  0.00  0.00    -0.273 OA
ATOM      9  N   UNL     1       4.813   2.385  26.424  0.00  0.00    -0.249 N 
ATOM     10  CA  UNL     1       4.259   3.448  25.757  0.00  0.00    +0.123 C 
ATOM     11  C   UNL     1       4.994   4.583  25.569  0.00  0.00    -0.021 C 
ATOM     12  C   UNL     1       6.463   4.715  25.951  0.00  0.00    +0.104 C 
ATOM     13  S   UNL     1       7.341   3.145  26.097  0.00  0.00    -0.131 S 
BRANCH  10  14
ATOM     14  C   UNL     1       2.869   3.333  25.162  0.00  0.00    +0.351 C 
ATOM     15  OXT UNL     1       1.863   3.779  25.694  0.00  0.00    -0.244 OA
BRANCH  14  16
ATOM     16  O   UNL     1       2.764   2.639  24.013  0.00  0.00    -0.476 OA
ATOM     17  H   UNL     1       2.742   3.170  23.187  0.00  0.00    +0.295 HD
ENDBRANCH  14  16
ENDBRANCH  10  14
BRANCH  11  18
ATOM     18  C   UNL     1       4.526   5.843  24.838  0.00  0.00    +0.111 C 
BRANCH  18  19
ATOM     19  S   UNL     1       4.386   5.704  23.038  0.00  0.00    -0.080 S 
BRANCH  19  20
ATOM     20  C   UNL     1       5.568   4.538  22.607  0.00  0.00    +0.209 A 
ATOM     21  N   UNL     1       6.881   4.848  22.384  0.00  0.00    -0.223 N 
ATOM     22  C   UNL     1       7.533   6.131  22.389  0.00  0.00    +0.177 C 
ATOM     23  N   UNL     1       7.568   3.722  22.119  0.00  0.00    -0.043 NA
ATOM     24  N   UNL     1       6.667   2.749  22.176  0.00  0.00    -0.022 NA
ATOM     25  N   UNL     1       5.419   3.242  22.469  0.00  0.00    -0.102 NA
ENDBRANCH  19  20
ENDBRANCH  18  19
ENDBRANCH  11  18
ENDBRANCH   1   6
BRANCH   3  26
ATOM     26  CA  UNL     1       8.895  -1.165  25.445  0.00  0.00    +0.191 C 
BRANCH  26  27
ATOM     27  N   UNL     1       8.131  -2.278  24.919  0.00  0.00    -0.284 N 
ATOM     28  H   UNL     1       7.740  -2.213  23.983  0.00  0.00    +0.151 HD
ATOM     29  C   UNL     1       7.957  -3.448  25.601  0.00  0.00    +0.310 C 
ATOM     30  N   UNL     1       7.027  -4.330  25.061  0.00  0.00    -0.217 N 
ATOM     31  C   UNL     1       6.250  -4.025  23.939  0.00  0.00    +0.309 C 
ATOM     32  O   UNL     1       6.595  -3.225  23.071  0.00  0.00    -0.264 OA
ATOM     33  C   UNL     1       4.920  -4.791  23.752  0.00  0.00    +0.302 C 
ATOM     34  O   UNL     1       4.120  -4.403  22.909  0.00  0.00    -0.265 OA
ATOM     35  N   UNL     1       4.730  -5.930  24.530  0.00  0.00    -0.293 N 
ATOM     36  C   UNL     1       5.393  -6.025  25.818  0.00  0.00    +0.127 C 
ATOM     37  C   UNL     1       6.856  -5.628  25.702  0.00  0.00    +0.137 C 
ATOM     38  O   UNL     1       8.558  -3.663  26.653  0.00  0.00    -0.252 OA
BRANCH  35  39
ATOM     39  C   UNL     1       3.697  -6.892  24.159  0.00  0.00    +0.105 C 
ATOM     40  C   UNL     1       3.000  -7.554  25.332  0.00  0.00    +0.024 C 
ENDBRANCH  35  39
ENDBRANCH  26  27
BRANCH  26  41
ATOM     41  C   UNL     1       9.254  -0.130  24.388  0.00  0.00    -0.018 A 
ATOM     42  C   UNL     1      10.017   1.013  24.686  0.00  0.00    +0.009 A 
ATOM     43  C   UNL     1      10.434   1.875  23.670  0.00  0.00    +0.046 A 
ATOM     44  C   UNL     1      10.114   1.592  22.351  0.00  0.00    +0.117 A 
ATOM     45  C   UNL     1       9.346   0.479  22.029  0.00  0.00    +0.046 A 
ATOM     46  C   UNL     1       8.914  -0.377  23.045  0.00  0.00    +0.009 A 
BRANCH  44  47
ATOM     47  O   UNL     1      10.601   2.421  21.384  0.00  0.00    -0.507 OA
ATOM     48  H   UNL     1       9.893   3.029  21.115  0.00  0.00    +0.292 HD
ENDBRANCH  44  47
ENDBRANCH  26  41
ENDBRANCH   3  26
TORSDOF 11
ENDMDL
MODEL 4
REMARK VINA RESULT:      -7.9      1.702      2.151
REMARK  Name = 
REMARK  13 active torsions:
REMARK  status: ('A' for Active; 'I' for Inactive)
REMARK    1  A    between atoms: C_5  and  C_6
REMARK    2  A    between atoms: C_6  and  S_7
REMARK    3  A    between atoms: S_7  and  C_8
REMARK    4  A    between atoms: N_12  and  C_13
REMARK    5  A    between atoms: CA_14  and  C_44
REMARK    6  A    between atoms: CA_18  and  N_20
REMARK    7  A    between atoms: C_21  and  CA_23
REMARK    8  A    between atoms: CA_23  and  N_24
REMARK    9  A    between atoms: CA_23  and  C_37
REMARK   10  A    between atoms: N_30  and  C_31
REMARK   11  A    between atoms: C_31  and  C_32
REMARK   12  A    between atoms: C_40  and  O_41
REMARK   13  A    between atoms: C_44  and  O_45
REMARK                            x       y       z     vdW  Elec       q    Type
REMARK                         _______ _______ _______ _____ _____    ______ ____
ROOT
ATOM      1  N   UNL     1       9.438   0.401  23.895  0.00  0.00    -0.300 N 
ATOM      2  H   UNL     1       9.345   0.738  24.850  0.00  0.00    +0.150 HD
ATOM      3  C   UNL     1       9.503   1.380  22.918  0.00  0.00    +0.239 C 
ATOM      4  O   UNL     1      10.017   1.165  21.820  0.00  0.00    -0.273 OA
ENDROOT
BRANCH   1   6
ATOM      5  C   UNL     1       9.596  -2.085  24.690  0.00  0.00    +0.169 C 
ATOM      6  CA  UNL     1      10.014  -0.964  23.682  0.00  0.00    +0.191 C 
ATOM      7  C   UNL     1       9.216  -1.833  22.649  0.00  0.00    +0.244 C 
ATOM      8  O   UNL     1       8.955  -1.849  21.472  0.00  0.00    -0.273 OA
ATOM      9  N   UNL     1       8.726  -2.602  23.644  0.00  0.00    -0.249 N 
ATOM     10  CA  UNL     1       7.713  -3.510  23.822  0.00  0.00    +0.123 C 
ATOM     11  C   UNL     1       7.329  -3.850  25.087  0.00  0.00    -0.021 C 
ATOM     12  C   UNL     1       7.875  -3.189  26.346  0.00  0.00    +0.104 C 
ATOM     13  S   UNL     1       8.584  -1.552  26.083  0.00  0.00    -0.131 S 
BRANCH  10  14
ATOM     14  C   UNL     1       6.972  -4.070  22.624  0.00  0.00    +0.351 C 
ATOM     15  OXT UNL     1       7.301  -5.090  22.037  0.00  0.00    -0.244 OA
BRANCH  14  16
ATOM     16  O   UNL     1       5.934  -3.343  22.167  0.00  0.00    -0.476 OA
ATOM     17  H   UNL     1       5.781  -3.366  21.198  0.00  0.00    +0.295 HD
ENDBRANCH  14  16
ENDBRANCH  10  14
BRANCH  11  18
ATOM     18  C   UNL     1       6.212  -4.831  25.451  0.00  0.00    +0.111 C 
BRANCH  18  19
ATOM     19  S   UNL     1       4.537  -4.146  25.478  0.00  0.00    -0.080 S 
BRANCH  19  20
ATOM     20  C   UNL     1       3.659  -5.124  24.376  0.00  0.00    +0.209 A 
ATOM     21  N   UNL     1       3.070  -6.307  24.728  0.00  0.00    -0.223 N 
ATOM     22  C   UNL     1       3.093  -7.003  25.988  0.00  0.00    +0.177 C 
ATOM     23  N   UNL     1       2.414  -6.813  23.669  0.00  0.00    -0.043 NA
ATOM     24  N   UNL     1       2.618  -5.940  22.690  0.00  0.00    -0.022 NA
ATOM     25  N   UNL     1       3.397  -4.891  23.113  0.00  0.00    -0.102 NA
ENDBRANCH  19  20
ENDBRANCH  18  19
ENDBRANCH  11  18
ENDBRANCH   1   6
BRANCH   3  26
ATOM     26  CA  UNL     1       8.856   2.736  23.325  0.00  0.00    +0.191 C 
BRANCH  26  27
ATOM     27  N   UNL     1       7.964   2.532  24.450  0.00  0.00    -0.284 N 
ATOM     28  H   UNL     1       8.157   3.006  25.329  0.00  0.00    +0.151 HD
ATOM     29  C   UNL     1       6.830   1.775  24.371  0.00  0.00    +0.310 C 
ATOM     30  N   UNL     1       6.201   1.501  25.581  0.00  0.00    -0.217 N 
ATOM     31  C   UNL     1       6.722   1.897  26.817  0.00  0.00    +0.309 C 
ATOM     32  O   UNL     1       7.466   2.865  26.962  0.00  0.00    -0.264 OA
ATOM     33  C   UNL     1       6.277   1.111  28.073  0.00  0.00    +0.302 C 
ATOM     34  O   UNL     1       6.871   1.288  29.129  0.00  0.00    -0.265 OA
ATOM     35  N   UNL     1       5.174   0.274  27.937  0.00  0.00    -0.293 N 
ATOM     36  C   UNL     1       4.875  -0.298  26.637  0.00  0.00    +0.127 C 
ATOM     37  C   UNL     1       4.944   0.763  25.552  0.00  0.00    +0.137 C 
ATOM     38  O   UNL     1       6.440   1.331  23.292  0.00  0.00    -0.252 OA
BRANCH  35  39
ATOM     39  C   UNL     1       4.481  -0.203  29.131  0.00  0.00    +0.105 C 
ATOM     40  C   UNL     1       2.972  -0.052  29.087  0.00  0.00    +0.024 C 
ENDBRANCH  35  39
ENDBRANCH  26  27
BRANCH  26  41
ATOM     41  C   UNL     1       9.955   3.750  23.608  0.00  0.00    -0.018 A 
ATOM     42  C   UNL     1      11.302   3.504  23.288  0.00  0.00    +0.009 A 
ATOM     43  C   UNL     1      12.265   4.503  23.445  0.00  0.00    +0.046 A 
ATOM     44  C   UNL     1      11.889   5.759  23.897  0.00  0.00    +0.117 A 
ATOM     45  C   UNL     1      10.567   6.025  24.238  0.00  0.00    +0.046 A 
ATOM     46  C   UNL     1       9.605   5.022  24.097  0.00  0.00    +0.009 A 
BRANCH  44  47
ATOM     47  O   UNL     1      12.847   6.726  23.969  0.00  0.00    -0.507 OA
ATOM     48  H   UNL     1      13.278   6.669  24.836  0.00  0.00    +0.292 HD
ENDBRANCH  44  47
ENDBRANCH  26  41
ENDBRANCH   3  26
TORSDOF 11
ENDMDL
MODEL 5
REMARK VINA RESULT:      -7.6      2.913      8.530
REMARK  Name = 
REMARK  13 active torsions:
REMARK  status: ('A' for Active; 'I' for Inactive)
REMARK    1  A    between atoms: C_5  and  C_6
REMARK    2  A    between atoms: C_6  and  S_7
REMARK    3  A    between atoms: S_7  and  C_8
REMARK    4  A    between atoms: N_12  and  C_13
REMARK    5  A    between atoms: CA_14  and  C_44
REMARK    6  A    between atoms: CA_18  and  N_20
REMARK    7  A    between atoms: C_21  and  CA_23
REMARK    8  A    between atoms: CA_23  and  N_24
REMARK    9  A    between atoms: CA_23  and  C_37
REMARK   10  A    between atoms: N_30  and  C_31
REMARK   11  A    between atoms: C_31  and  C_32
REMARK   12  A    between atoms: C_40  and  O_41
REMARK   13  A    between atoms: C_44  and  O_45
REMARK                            x       y       z     vdW  Elec       q    Type
REMARK                         _______ _______ _______ _____ _____    ______ ____
ROOT
ATOM      1  N   UNL     1       6.686  -4.353  25.702  0.00  0.00    -0.300 N 
ATOM      2  H   UNL     1       6.060  -4.053  24.959  0.00  0.00    +0.150 HD
ATOM      3  C   UNL     1       6.148  -5.238  26.621  0.00  0.00    +0.239 C 
ATOM      4  O   UNL     1       6.859  -5.984  27.293  0.00  0.00    -0.273 OA
ENDROOT
BRANCH   1   6
ATOM      5  C   UNL     1       8.629  -3.658  24.097  0.00  0.00    +0.169 C 
ATOM      6  CA  UNL     1       8.161  -4.273  25.456  0.00  0.00    +0.191 C 
ATOM      7  C   UNL     1       8.837  -2.999  26.070  0.00  0.00    +0.244 C 
ATOM      8  O   UNL     1       9.075  -2.516  27.150  0.00  0.00    -0.273 OA
ATOM      9  N   UNL     1       8.980  -2.458  24.841  0.00  0.00    -0.249 N 
ATOM     10  CA  UNL     1       9.243  -1.227  24.297  0.00  0.00    +0.123 C 
ATOM     11  C   UNL     1       8.992  -1.008  22.974  0.00  0.00    -0.021 C 
ATOM     12  C   UNL     1       8.313  -2.021  22.061  0.00  0.00    +0.104 C 
ATOM     13  S   UNL     1       7.322  -3.258  22.923  0.00  0.00    -0.131 S 
BRANCH  10  14
ATOM     14  C   UNL     1       9.731  -0.093  25.178  0.00  0.00    +0.351 C 
ATOM     15  OXT UNL     1      10.843   0.406  25.089  0.00  0.00    -0.244 OA
BRANCH  14  16
ATOM     16  O   UNL     1       8.889   0.323  26.143  0.00  0.00    -0.476 OA
ATOM     17  H   UNL     1       8.121  -0.260  26.329  0.00  0.00    +0.295 HD
ENDBRANCH  14  16
ENDBRANCH  10  14
BRANCH  11  18
ATOM     18  C   UNL     1       9.216   0.307  22.224  0.00  0.00    +0.111 C 
BRANCH  18  19
ATOM     19  S   UNL     1       7.783   1.408  22.116  0.00  0.00    -0.080 S 
BRANCH  19  20
ATOM     20  C   UNL     1       7.681   2.126  23.671  0.00  0.00    +0.209 A 
ATOM     21  N   UNL     1       8.587   3.039  24.136  0.00  0.00    -0.223 N 
ATOM     22  C   UNL     1       9.788   3.535  23.518  0.00  0.00    +0.177 C 
ATOM     23  N   UNL     1       8.213   3.458  25.358  0.00  0.00    -0.043 NA
ATOM     24  N   UNL     1       7.095   2.792  25.622  0.00  0.00    -0.022 NA
ATOM     25  N   UNL     1       6.758   1.955  24.586  0.00  0.00    -0.102 NA
ENDBRANCH  19  20
ENDBRANCH  18  19
ENDBRANCH  11  18
ENDBRANCH   1   6
BRANCH   3  26
ATOM     26  CA  UNL     1       4.596  -5.179  26.734  0.00  0.00    +0.191 C 
BRANCH  26  27
ATOM     27  N   UNL     1       4.176  -3.812  26.971  0.00  0.00    -0.284 N 
ATOM     28  H   UNL     1       3.769  -3.278  26.208  0.00  0.00    +0.151 HD
ATOM     29  C   UNL     1       4.244  -3.217  28.199  0.00  0.00    +0.310 C 
ATOM     30  N   UNL     1       4.008  -1.846  28.219  0.00  0.00    -0.217 N 
ATOM     31  C   UNL     1       3.794  -1.093  27.060  0.00  0.00    +0.309 C 
ATOM     32  O   UNL     1       3.339  -1.562  26.019  0.00  0.00    -0.264 OA
ATOM     33  C   UNL     1       4.083   0.426  27.123  0.00  0.00    +0.302 C 
ATOM     34  O   UNL     1       4.113   1.071  26.082  0.00  0.00    -0.265 OA
ATOM     35  N   UNL     1       4.241   0.988  28.386  0.00  0.00    -0.293 N 
ATOM     36  C   UNL     1       4.726   0.159  29.474  0.00  0.00    +0.127 C 
ATOM     37  C   UNL     1       3.990  -1.170  29.510  0.00  0.00    +0.137 C 
ATOM     38  O   UNL     1       4.548  -3.864  29.200  0.00  0.00    -0.252 OA
BRANCH  35  39
ATOM     39  C   UNL     1       4.146   2.436  28.546  0.00  0.00    +0.105 C 
ATOM     40  C   UNL     1       5.474   3.133  28.777  0.00  0.00    +0.024 C 
ENDBRANCH  35  39
ENDBRANCH  26  27
BRANCH  26  41
ATOM     41  C   UNL     1       3.980  -5.787  25.482  0.00  0.00    -0.018 A 
ATOM     42  C   UNL     1       3.784  -7.172  25.339  0.00  0.00    +0.009 A 
ATOM     43  C   UNL     1       3.104  -7.685  24.234  0.00  0.00    +0.046 A 
ATOM     44  C   UNL     1       2.593  -6.821  23.276  0.00  0.00    +0.117 A 
ATOM     45  C   UNL     1       2.787  -5.449  23.383  0.00  0.00    +0.046 A 
ATOM     46  C   UNL     1       3.482  -4.934  24.480  0.00  0.00    +0.009 A 
BRANCH  44  47
ATOM     47  O   UNL     1       1.874  -7.358  22.250  0.00  0.00    -0.507 OA
ATOM     48  H   UNL     1       2.047  -6.838  21.449  0.00  0.00    +0.292 HD
ENDBRANCH  44  47
ENDBRANCH  26  41
ENDBRANCH   3  26
TORSDOF 11
ENDMDL
MODEL 6
REMARK VINA RESULT:      -7.5      3.345      8.222
REMARK  Name = 
REMARK  13 active torsions:
REMARK  status: ('A' for Active; 'I' for Inactive)
REMARK    1  A    between atoms: C_5  and  C_6
REMARK    2  A    between atoms: C_6  and  S_7
REMARK    3  A    between atoms: S_7  and  C_8
REMARK    4  A    between atoms: N_12  and  C_13
REMARK    5  A    between atoms: CA_14  and  C_44
REMARK    6  A    between atoms: CA_18  and  N_20
REMARK    7  A    between atoms: C_21  and  CA_23
REMARK    8  A    between atoms: CA_23  and  N_24
REMARK    9  A    between atoms: CA_23  and  C_37
REMARK   10  A    between atoms: N_30  and  C_31
REMARK   11  A    between atoms: C_31  and  C_32
REMARK   12  A    between atoms: C_40  and  O_41
REMARK   13  A    between atoms: C_44  and  O_45
REMARK                            x       y       z     vdW  Elec       q    Type
REMARK                         _______ _______ _______ _____ _____    ______ ____
ROOT
ATOM      1  N   UNL     1       8.742  -0.205  23.165  0.00  0.00    -0.300 N 
ATOM      2  H   UNL     1       7.765  -0.084  23.421  0.00  0.00    +0.150 HD
ATOM      3  C   UNL     1       9.200  -1.512  23.144  0.00  0.00    +0.239 C 
ATOM      4  O   UNL     1      10.181  -1.843  22.479  0.00  0.00    -0.273 OA
ENDROOT
BRANCH   1   6
ATOM      5  C   UNL     1       8.494   2.047  21.860  0.00  0.00    +0.169 C 
ATOM      6  CA  UNL     1       9.398   0.872  22.358  0.00  0.00    +0.191 C 
ATOM      7  C   UNL     1      10.078   1.988  23.224  0.00  0.00    +0.244 C 
ATOM      8  O   UNL     1      10.996   2.120  23.994  0.00  0.00    -0.273 OA
ATOM      9  N   UNL     1       9.098   2.861  22.904  0.00  0.00    -0.249 N 
ATOM     10  CA  UNL     1       8.622   4.065  23.357  0.00  0.00    +0.123 C 
ATOM     11  C   UNL     1       7.389   4.493  22.959  0.00  0.00    -0.021 C 
ATOM     12  C   UNL     1       6.429   3.656  22.124  0.00  0.00    +0.104 C 
ATOM     13  S   UNL     1       6.731   1.879  22.194  0.00  0.00    -0.131 S 
BRANCH  10  14
ATOM     14  C   UNL     1       9.426   4.875  24.355  0.00  0.00    +0.351 C 
ATOM     15  OXT UNL     1       9.029   5.158  25.476  0.00  0.00    -0.244 OA
BRANCH  14  16
ATOM     16  O   UNL     1      10.612   5.347  23.928  0.00  0.00    -0.476 OA
ATOM     17  H   UNL     1      11.028   4.864  23.181  0.00  0.00    +0.295 HD
ENDBRANCH  14  16
ENDBRANCH  10  14
BRANCH  11  18
ATOM     18  C   UNL     1       6.713   5.799  23.384  0.00  0.00    +0.111 C 
BRANCH  18  19
ATOM     19  S   UNL     1       5.064   6.093  22.699  0.00  0.00    -0.080 S 
BRANCH  19  20
ATOM     20  C   UNL     1       3.998   5.784  24.007  0.00  0.00    +0.209 A 
ATOM     21  N   UNL     1       3.126   4.731  24.030  0.00  0.00    -0.223 N 
ATOM     22  C   UNL     1       2.858   3.740  23.021  0.00  0.00    +0.177 C 
ATOM     23  N   UNL     1       2.467   4.721  25.202  0.00  0.00    -0.043 NA
ATOM     24  N   UNL     1       2.938   5.768  25.870  0.00  0.00    -0.022 NA
ATOM     25  N   UNL     1       3.883   6.441  25.135  0.00  0.00    -0.102 NA
ENDBRANCH  19  20
ENDBRANCH  18  19
ENDBRANCH  11  18
ENDBRANCH   1   6
BRANCH   3  26
ATOM     26  CA  UNL     1       8.387  -2.489  24.043  0.00  0.00    +0.191 C 
BRANCH  26  27
ATOM     27  N   UNL     1       7.456  -1.739  24.862  0.00  0.00    -0.284 N 
ATOM     28  H   UNL     1       6.469  -1.742  24.621  0.00  0.00    +0.151 HD
ATOM     29  C   UNL     1       7.833  -1.068  25.991  0.00  0.00    +0.310 C 
ATOM     30  N   UNL     1       6.874  -0.226  26.542  0.00  0.00    -0.217 N 
ATOM     31  C   UNL     1       5.627  -0.002  25.951  0.00  0.00    +0.309 C 
ATOM     32  O   UNL     1       5.071  -0.811  25.209  0.00  0.00    -0.264 OA
ATOM     33  C   UNL     1       4.881   1.305  26.309  0.00  0.00    +0.302 C 
ATOM     34  O   UNL     1       3.899   1.632  25.654  0.00  0.00    -0.265 OA
ATOM     35  N   UNL     1       5.347   2.017  27.411  0.00  0.00    -0.293 N 
ATOM     36  C   UNL     1       6.746   1.909  27.782  0.00  0.00    +0.127 C 
ATOM     37  C   UNL     1       7.192   0.457  27.790  0.00  0.00    +0.137 C 
ATOM     38  O   UNL     1       8.972  -1.179  26.442  0.00  0.00    -0.252 OA
BRANCH  35  39
ATOM     39  C   UNL     1       4.496   3.033  28.024  0.00  0.00    +0.105 C 
ATOM     40  C   UNL     1       5.182   4.362  28.276  0.00  0.00    +0.024 C 
ENDBRANCH  35  39
ENDBRANCH  26  27
BRANCH  26  41
ATOM     41  C   UNL     1       7.708  -3.530  23.164  0.00  0.00    -0.018 A 
ATOM     42  C   UNL     1       7.888  -4.910  23.361  0.00  0.00    +0.009 A 
ATOM     43  C   UNL     1       7.154  -5.837  22.618  0.00  0.00    +0.046 A 
ATOM     44  C   UNL     1       6.221  -5.396  21.693  0.00  0.00    +0.117 A 
ATOM     45  C   UNL     1       6.035  -4.037  21.465  0.00  0.00    +0.046 A 
ATOM     46  C   UNL     1       6.779  -3.108  22.195  0.00  0.00    +0.009 A 
BRANCH  44  47
ATOM     47  O   UNL     1       5.475  -6.332  21.041  0.00  0.00    -0.507 OA
ATOM     48  H   UNL     1       5.864  -7.206  21.207  0.00  0.00    +0.292 HD
ENDBRANCH  44  47
ENDBRANCH  26  41
ENDBRANCH   3  26
TORSDOF 11
ENDMDL
MODEL 7
REMARK VINA RESULT:      -7.3      3.410      7.155
REMARK  Name = 
REMARK  13 active torsions:
REMARK  status: ('A' for Active; 'I' for Inactive)
REMARK    1  A    between atoms: C_5  and  C_6
REMARK    2  A    between atoms: C_6  and  S_7
REMARK    3  A    between atoms: S_7  and  C_8
REMARK    4  A    between atoms: N_12  and  C_13
REMARK    5  A    between atoms: CA_14  and  C_44
REMARK    6  A    between atoms: CA_18  and  N_20
REMARK    7  A    between atoms: C_21  and  CA_23
REMARK    8  A    between atoms: CA_23  and  N_24
REMARK    9  A    between atoms: CA_23  and  C_37
REMARK   10  A    between atoms: N_30  and  C_31
REMARK   11  A    between atoms: C_31  and  C_32
REMARK   12  A    between atoms: C_40  and  O_41
REMARK   13  A    between atoms: C_44  and  O_45
REMARK                            x       y       z     vdW  Elec       q    Type
REMARK                         _______ _______ _______ _____ _____    ______ ____
ROOT
ATOM      1  N   UNL     1       5.001  -2.596  26.385  0.00  0.00    -0.300 N 
ATOM      2  H   UNL     1       5.256  -3.435  25.870  0.00  0.00    +0.150 HD
ATOM      3  C   UNL     1       5.209  -1.398  25.723  0.00  0.00    +0.239 C 
ATOM      4  O   UNL     1       4.591  -0.377  26.023  0.00  0.00    -0.273 OA
ENDROOT
BRANCH   1   6
ATOM      5  C   UNL     1       2.593  -3.315  27.108  0.00  0.00    +0.169 C 
ATOM      6  CA  UNL     1       3.991  -2.723  27.483  0.00  0.00    +0.191 C 
ATOM      7  C   UNL     1       4.132  -4.039  28.324  0.00  0.00    +0.244 C 
ATOM      8  O   UNL     1       4.906  -4.562  29.086  0.00  0.00    -0.273 OA
ATOM      9  N   UNL     1       3.021  -4.549  27.750  0.00  0.00    -0.249 N 
ATOM     10  CA  UNL     1       2.416  -5.772  27.616  0.00  0.00    +0.123 C 
ATOM     11  C   UNL     1       1.441  -5.941  26.676  0.00  0.00    -0.021 C 
ATOM     12  C   UNL     1       1.050  -4.877  25.658  0.00  0.00    +0.104 C 
ATOM     13  S   UNL     1       2.318  -3.631  25.355  0.00  0.00    -0.131 S 
BRANCH  10  14
ATOM     14  C   UNL     1       2.883  -6.949  28.450  0.00  0.00    +0.351 C 
ATOM     15  OXT UNL     1       2.246  -7.417  29.382  0.00  0.00    -0.244 OA
BRANCH  14  16
ATOM     16  O   UNL     1       4.102  -7.443  28.160  0.00  0.00    -0.476 OA
ATOM     17  H   UNL     1       4.645  -6.919  27.533  0.00  0.00    +0.295 HD
ENDBRANCH  14  16
ENDBRANCH  10  14
BRANCH  11  18
ATOM     18  C   UNL     1       0.684  -7.241  26.393  0.00  0.00    +0.111 C 
BRANCH  18  19
ATOM     19  S   UNL     1       1.577  -8.480  25.421  0.00  0.00    -0.080 S 
BRANCH  19  20
ATOM     20  C   UNL     1       2.814  -7.591  24.632  0.00  0.00    +0.209 A 
ATOM     21  N   UNL     1       2.619  -6.915  23.460  0.00  0.00    -0.223 N 
ATOM     22  C   UNL     1       1.446  -6.840  22.628  0.00  0.00    +0.177 C 
ATOM     23  N   UNL     1       3.752  -6.275  23.118  0.00  0.00    -0.043 NA
ATOM     24  N   UNL     1       4.618  -6.575  24.079  0.00  0.00    -0.022 NA
ATOM     25  N   UNL     1       4.051  -7.399  25.020  0.00  0.00    -0.102 NA
ENDBRANCH  19  20
ENDBRANCH  18  19
ENDBRANCH  11  18
ENDBRANCH   1   6
BRANCH   3  26
ATOM     26  CA  UNL     1       6.295  -1.462  24.609  0.00  0.00    +0.191 C 
BRANCH  26  27
ATOM     27  N   UNL     1       7.053  -0.227  24.593  0.00  0.00    -0.284 N 
ATOM     28  H   UNL     1       7.479   0.105  25.454  0.00  0.00    +0.151 HD
ATOM     29  C   UNL     1       7.276   0.493  23.454  0.00  0.00    +0.310 C 
ATOM     30  N   UNL     1       7.831   1.756  23.636  0.00  0.00    -0.217 N 
ATOM     31  C   UNL     1       8.075   2.305  24.899  0.00  0.00    +0.309 C 
ATOM     32  O   UNL     1       8.278   1.629  25.906  0.00  0.00    -0.264 OA
ATOM     33  C   UNL     1       8.165   3.845  25.012  0.00  0.00    +0.302 C 
ATOM     34  O   UNL     1       8.163   4.364  26.121  0.00  0.00    -0.265 OA
ATOM     35  N   UNL     1       8.298   4.560  23.825  0.00  0.00    -0.293 N 
ATOM     36  C   UNL     1       7.764   3.998  22.597  0.00  0.00    +0.127 C 
ATOM     37  C   UNL     1       8.163   2.539  22.453  0.00  0.00    +0.137 C 
ATOM     38  O   UNL     1       6.950   0.053  22.353  0.00  0.00    -0.252 OA
BRANCH  35  39
ATOM     39  C   UNL     1       8.751   5.947  23.867  0.00  0.00    +0.105 C 
ATOM     40  C   UNL     1      10.258   6.119  23.853  0.00  0.00    +0.024 C 
ENDBRANCH  35  39
ENDBRANCH  26  27
BRANCH  26  41
ATOM     41  C   UNL     1       7.162  -2.694  24.826  0.00  0.00    -0.018 A 
ATOM     42  C   UNL     1       7.129  -3.797  23.954  0.00  0.00    +0.009 A 
ATOM     43  C   UNL     1       8.026  -4.856  24.112  0.00  0.00    +0.046 A 
ATOM     44  C   UNL     1       8.975  -4.812  25.122  0.00  0.00    +0.117 A 
ATOM     45  C   UNL     1       9.019  -3.742  26.009  0.00  0.00    +0.046 A 
ATOM     46  C   UNL     1       8.112  -2.689  25.864  0.00  0.00    +0.009 A 
BRANCH  44  47
ATOM     47  O   UNL     1       9.877  -5.831  25.197  0.00  0.00    -0.507 OA
ATOM     48  H   UNL     1      10.708  -5.537  24.792  0.00  0.00    +0.292 HD
ENDBRANCH  44  47
ENDBRANCH  26  41
ENDBRANCH   3  26
TORSDOF 11
ENDMDL
MODEL 8
REMARK VINA RESULT:      -7.2      3.310      6.720
REMARK  Name = 
REMARK  13 active torsions:
REMARK  status: ('A' for Active; 'I' for Inactive)
REMARK    1  A    between atoms: C_5  and  C_6
REMARK    2  A    between atoms: C_6  and  S_7
REMARK    3  A    between atoms: S_7  and  C_8
REMARK    4  A    between atoms: N_12  and  C_13
REMARK    5  A    between atoms: CA_14  and  C_44
REMARK    6  A    between atoms: CA_18  and  N_20
REMARK    7  A    between atoms: C_21  and  CA_23
REMARK    8  A    between atoms: CA_23  and  N_24
REMARK    9  A    between atoms: CA_23  and  C_37
REMARK   10  A    between atoms: N_30  and  C_31
REMARK   11  A    between atoms: C_31  and  C_32
REMARK   12  A    between atoms: C_40  and  O_41
REMARK   13  A    between atoms: C_44  and  O_45
REMARK                            x       y       z     vdW  Elec       q    Type
REMARK                         _______ _______ _______ _____ _____    ______ ____
ROOT
ATOM      1  N   UNL     1       4.649  -3.430  23.788  0.00  0.00    -0.300 N 
ATOM      2  H   UNL     1       5.138  -3.386  24.678  0.00  0.00    +0.150 HD
ATOM      3  C   UNL     1       5.444  -3.306  22.660  0.00  0.00    +0.239 C 
ATOM      4  O   UNL     1       5.087  -3.740  21.566  0.00  0.00    -0.273 OA
ENDROOT
BRANCH   1   6
ATOM      5  C   UNL     1       3.222  -5.522  24.439  0.00  0.00    +0.169 C 
ATOM      6  CA  UNL     1       3.324  -4.125  23.744  0.00  0.00    +0.191 C 
ATOM      7  C   UNL     1       2.337  -3.679  24.877  0.00  0.00    +0.244 C 
ATOM      8  O   UNL     1       1.721  -2.702  25.226  0.00  0.00    -0.273 OA
ATOM      9  N   UNL     1       2.512  -4.854  25.519  0.00  0.00    -0.249 N 
ATOM     10  CA  UNL     1       2.277  -5.376  26.766  0.00  0.00    +0.123 C 
ATOM     11  C   UNL     1       2.893  -6.536  27.137  0.00  0.00    -0.021 C 
ATOM     12  C   UNL     1       3.941  -7.248  26.291  0.00  0.00    +0.104 C 
ATOM     13  S   UNL     1       4.766  -6.194  25.081  0.00  0.00    -0.131 S 
BRANCH  10  14
ATOM     14  C   UNL     1       1.404  -4.627  27.753  0.00  0.00    +0.351 C 
ATOM     15  OXT UNL     1       0.444  -5.123  28.325  0.00  0.00    -0.244 OA
BRANCH  14  16
ATOM     16  O   UNL     1       1.691  -3.325  27.942  0.00  0.00    -0.476 OA
ATOM     17  H   UNL     1       2.618  -3.117  28.190  0.00  0.00    +0.295 HD
ENDBRANCH  14  16
ENDBRANCH  10  14
BRANCH  11  18
ATOM     18  C   UNL     1       2.747  -7.235  28.490  0.00  0.00    +0.111 C 
BRANCH  18  19
ATOM     19  S   UNL     1       3.798  -6.604  29.822  0.00  0.00    -0.080 S 
BRANCH  19  20
ATOM     20  C   UNL     1       5.298  -6.272  29.060  0.00  0.00    +0.209 A 
ATOM     21  N   UNL     1       5.650  -5.030  28.609  0.00  0.00    -0.223 N 
ATOM     22  C   UNL     1       4.890  -3.807  28.601  0.00  0.00    +0.177 C 
ATOM     23  N   UNL     1       6.899  -5.072  28.110  0.00  0.00    -0.043 NA
ATOM     24  N   UNL     1       7.284  -6.335  28.256  0.00  0.00    -0.022 NA
ATOM     25  N   UNL     1       6.296  -7.092  28.836  0.00  0.00    -0.102 NA
ENDBRANCH  19  20
ENDBRANCH  18  19
ENDBRANCH  11  18
ENDBRANCH   1   6
BRANCH   3  26
ATOM     26  CA  UNL     1       6.787  -2.557  22.904  0.00  0.00    +0.191 C 
BRANCH  26  27
ATOM     27  N   UNL     1       6.521  -1.240  23.446  0.00  0.00    -0.284 N 
ATOM     28  H   UNL     1       5.839  -1.139  24.193  0.00  0.00    +0.151 HD
ATOM     29  C   UNL     1       7.191  -0.121  23.041  0.00  0.00    +0.310 C 
ATOM     30  N   UNL     1       6.676   1.089  23.496  0.00  0.00    -0.217 N 
ATOM     31  C   UNL     1       5.503   1.182  24.251  0.00  0.00    +0.309 C 
ATOM     32  O   UNL     1       5.080   0.273  24.965  0.00  0.00    -0.264 OA
ATOM     33  C   UNL     1       4.740   2.527  24.238  0.00  0.00    +0.302 C 
ATOM     34  O   UNL     1       3.610   2.578  24.708  0.00  0.00    -0.265 OA
ATOM     35  N   UNL     1       5.416   3.633  23.732  0.00  0.00    -0.293 N 
ATOM     36  C   UNL     1       6.457   3.433  22.740  0.00  0.00    +0.127 C 
ATOM     37  C   UNL     1       7.394   2.313  23.160  0.00  0.00    +0.137 C 
ATOM     38  O   UNL     1       8.154  -0.200  22.280  0.00  0.00    -0.252 OA
BRANCH  35  39
ATOM     39  C   UNL     1       4.918   4.975  24.020  0.00  0.00    +0.105 C 
ATOM     40  C   UNL     1       4.726   5.853  22.798  0.00  0.00    +0.024 C 
ENDBRANCH  35  39
ENDBRANCH  26  27
BRANCH  26  41
ATOM     41  C   UNL     1       7.677  -3.406  23.800  0.00  0.00    -0.018 A 
ATOM     42  C   UNL     1       7.906  -4.771  23.553  0.00  0.00    +0.009 A 
ATOM     43  C   UNL     1       8.825  -5.490  24.321  0.00  0.00    +0.046 A 
ATOM     44  C   UNL     1       9.538  -4.848  25.322  0.00  0.00    +0.117 A 
ATOM     45  C   UNL     1       9.319  -3.504  25.600  0.00  0.00    +0.046 A 
ATOM     46  C   UNL     1       8.389  -2.787  24.844  0.00  0.00    +0.009 A 
BRANCH  44  47
ATOM     47  O   UNL     1      10.476  -5.568  26.000  0.00  0.00    -0.507 OA
ATOM     48  H   UNL     1      10.042  -6.336  26.404  0.00  0.00    +0.292 HD
ENDBRANCH  44  47
ENDBRANCH  26  41
ENDBRANCH   3  26
TORSDOF 11
ENDMDL
MODEL 9
REMARK VINA RESULT:      -6.9      3.313      9.436
REMARK  Name = 
REMARK  13 active torsions:
REMARK  status: ('A' for Active; 'I' for Inactive)
REMARK    1  A    between atoms: C_5  and  C_6
REMARK    2  A    between atoms: C_6  and  S_7
REMARK    3  A    between atoms: S_7  and  C_8
REMARK    4  A    between atoms: N_12  and  C_13
REMARK    5  A    between atoms: CA_14  and  C_44
REMARK    6  A    between atoms: CA_18  and  N_20
REMARK    7  A    between atoms: C_21  and  CA_23
REMARK    8  A    between atoms: CA_23  and  N_24
REMARK    9  A    between atoms: CA_23  and  C_37
REMARK   10  A    between atoms: N_30  and  C_31
REMARK   11  A    between atoms: C_31  and  C_32
REMARK   12  A    between atoms: C_40  and  O_41
REMARK   13  A    between atoms: C_44  and  O_45
REMARK                            x       y       z     vdW  Elec       q    Type
REMARK                         _______ _______ _______ _____ _____    ______ ____
ROOT
ATOM      1  N   UNL     1       4.097  -1.928  26.370  0.00  0.00    -0.300 N 
ATOM      2  H   UNL     1       5.098  -2.090  26.304  0.00  0.00    +0.150 HD
ATOM      3  C   UNL     1       3.297  -2.821  25.678  0.00  0.00    +0.239 C 
ATOM      4  O   UNL     1       2.120  -3.009  25.986  0.00  0.00    -0.273 OA
ENDROOT
BRANCH   1   6
ATOM      5  C   UNL     1       4.533  -0.089  28.178  0.00  0.00    +0.169 C 
ATOM      6  CA  UNL     1       3.583  -1.161  27.549  0.00  0.00    +0.191 C 
ATOM      7  C   UNL     1       2.712   0.084  27.164  0.00  0.00    +0.244 C 
ATOM      8  O   UNL     1       1.655   0.339  26.642  0.00  0.00    -0.273 OA
ATOM      9  N   UNL     1       3.709   0.919  27.528  0.00  0.00    -0.249 N 
ATOM     10  CA  UNL     1       4.051   2.235  27.346  0.00  0.00    +0.123 C 
ATOM     11  C   UNL     1       5.325   2.643  27.613  0.00  0.00    -0.021 C 
ATOM     12  C   UNL     1       6.457   1.697  27.994  0.00  0.00    +0.104 C 
ATOM     13  S   UNL     1       6.198  -0.017  27.493  0.00  0.00    -0.131 S 
BRANCH  10  14
ATOM     14  C   UNL     1       3.041   3.212  26.774  0.00  0.00    +0.351 C 
ATOM     15  OXT UNL     1       2.439   4.037  27.445  0.00  0.00    -0.244 OA
BRANCH  14  16
ATOM     16  O   UNL     1       2.771   3.095  25.460  0.00  0.00    -0.476 OA
ATOM     17  H   UNL     1       3.537   2.911  24.874  0.00  0.00    +0.295 HD
ENDBRANCH  14  16
ENDBRANCH  10  14
BRANCH  11  18
ATOM     18  C   UNL     1       5.864   4.066  27.448  0.00  0.00    +0.111 C 
BRANCH  18  19
ATOM     19  S   UNL     1       6.914   4.350  26.001  0.00  0.00    -0.080 S 
BRANCH  19  20
ATOM     20  C   UNL     1       5.859   4.147  24.664  0.00  0.00    +0.209 A 
ATOM     21  N   UNL     1       5.748   2.976  23.968  0.00  0.00    -0.223 N 
ATOM     22  C   UNL     1       6.474   1.742  24.126  0.00  0.00    +0.177 C 
ATOM     23  N   UNL     1       4.808   3.108  23.015  0.00  0.00    -0.043 NA
ATOM     24  N   UNL     1       4.368   4.354  23.138  0.00  0.00    -0.022 NA
ATOM     25  N   UNL     1       5.018   5.014  24.153  0.00  0.00    -0.102 NA
ENDBRANCH  19  20
ENDBRANCH  18  19
ENDBRANCH  11  18
ENDBRANCH   1   6
BRANCH   3  26
ATOM     26  CA  UNL     1       4.008  -3.526  24.486  0.00  0.00    +0.191 C 
BRANCH  26  27
ATOM     27  N   UNL     1       5.407  -3.147  24.459  0.00  0.00    -0.284 N 
ATOM     28  H   UNL     1       5.959  -3.226  25.309  0.00  0.00    +0.151 HD
ATOM     29  C   UNL     1       6.044  -2.741  23.321  0.00  0.00    +0.310 C 
ATOM     30  N   UNL     1       7.317  -2.209  23.499  0.00  0.00    -0.217 N 
ATOM     31  C   UNL     1       7.893  -2.018  24.759  0.00  0.00    +0.309 C 
ATOM     32  O   UNL     1       7.594  -2.680  25.751  0.00  0.00    -0.264 OA
ATOM     33  C   UNL     1       9.018  -0.963  24.887  0.00  0.00    +0.302 C 
ATOM     34  O   UNL     1       9.391  -0.620  26.001  0.00  0.00    -0.265 OA
ATOM     35  N   UNL     1       9.585  -0.497  23.704  0.00  0.00    -0.293 N 
ATOM     36  C   UNL     1       8.791  -0.501  22.489  0.00  0.00    +0.127 C 
ATOM     37  C   UNL     1       8.077  -1.831  22.314  0.00  0.00    +0.137 C 
ATOM     38  O   UNL     1       5.487  -2.803  22.227  0.00  0.00    -0.252 OA
BRANCH  35  39
ATOM     39  C   UNL     1      10.868   0.199  23.747  0.00  0.00    +0.105 C 
ATOM     40  C   UNL     1      10.766   1.697  23.964  0.00  0.00    +0.024 C 
ENDBRANCH  35  39
ENDBRANCH  26  27
BRANCH  26  41
ATOM     41  C   UNL     1       3.797  -5.029  24.596  0.00  0.00    -0.018 A 
ATOM     42  C   UNL     1       4.343  -5.789  25.646  0.00  0.00    +0.009 A 
ATOM     43  C   UNL     1       4.026  -7.141  25.786  0.00  0.00    +0.046 A 
ATOM     44  C   UNL     1       3.146  -7.740  24.897  0.00  0.00    +0.117 A 
ATOM     45  C   UNL     1       2.605  -7.018  23.839  0.00  0.00    +0.046 A 
ATOM     46  C   UNL     1       2.933  -5.668  23.687  0.00  0.00    +0.009 A 
BRANCH  44  47
ATOM     47  O   UNL     1       2.808  -9.043  25.112  0.00  0.00    -0.507 OA
ATOM     48  H   UNL     1       1.921  -9.070  25.504  0.00  0.00    +0.292 HD
ENDBRANCH  44  47
ENDBRANCH  26  41
ENDBRANCH   3  26
TORSDOF 11
ENDMDL
