MODEL 1
REMARK VINA RESULT:      -4.7      0.000      0.000
REMARK  Name = 
REMARK  6 active torsions:
REMARK  status: ('A' for Active; 'I' for Inactive)
REMARK    1  A    between atoms: C_1  and  O_2
REMARK    2  A    between atoms: O_2  and  C_3
REMARK    3  A    between atoms: C_5  and  O_7
REMARK    4  A    between atoms: C_9  and  C_11
REMARK    5  A    between atoms: C_12  and  O_14
REMARK    6  A    between atoms: C_15  and  O_17
REMARK                            x       y       z     vdW  Elec       q    Type
REMARK                         _______ _______ _______ _____ _____    ______ ____
ROOT
ATOM      1  C   UNL     1       9.123  -0.729  23.881  0.00  0.00    +0.204 C 
ATOM      2  C   UNL     1       9.035  -0.044  22.503  0.00  0.00    +0.179 C 
ATOM      3  C   UNL     1       9.972   1.169  22.340  0.00  0.00    +0.174 C 
ATOM      4  C   UNL     1       9.930   2.054  23.594  0.00  0.00    +0.149 C 
ATOM      5  C   UNL     1      10.947   3.187  23.524  0.00  0.00    +0.041 C 
ATOM      6  O   UNL     1      10.210   1.278  24.769  0.00  0.00    -0.343 OA
ATOM      7  C   UNL     1       9.177   0.325  25.009  0.00  0.00    +0.279 C 
ENDROOT
BRANCH   1   9
ATOM      8  C   UNL     1       9.754  -3.098  24.180  0.00  0.00    +0.194 C 
ATOM      9  O   UNL     1      10.138  -1.758  23.920  0.00  0.00    -0.372 OA
ENDBRANCH   1   9
BRANCH   2  10
ATOM     10  O   UNL     1       9.267  -0.996  21.454  0.00  0.00    -0.386 OA
ATOM     11  H   UNL     1       9.475  -1.847  21.887  0.00  0.00    +0.210 HD
ENDBRANCH   2  10
BRANCH   3  12
ATOM     12  O   UNL     1       9.557   1.930  21.199  0.00  0.00    -0.387 OA
ATOM     13  H   UNL     1       8.586   1.877  21.143  0.00  0.00    +0.210 HD
ENDBRANCH   3  12
BRANCH   7  14
ATOM     14  O   UNL     1       9.367  -0.270  26.281  0.00  0.00    -0.365 OA
ATOM     15  H   UNL     1       9.350  -1.232  26.143  0.00  0.00    +0.213 HD
ENDBRANCH   7  14
TORSDOF 4
ENDMDL
MODEL 2
REMARK VINA RESULT:      -4.6      1.487      3.080
REMARK  Name = 
REMARK  6 active torsions:
REMARK  status: ('A' for Active; 'I' for Inactive)
REMARK    1  A    between atoms: C_1  and  O_2
REMARK    2  A    between atoms: O_2  and  C_3
REMARK    3  A    between atoms: C_5  and  O_7
REMARK    4  A    between atoms: C_9  and  C_11
REMARK    5  A    between atoms: C_12  and  O_14
REMARK    6  A    between atoms: C_15  and  O_17
REMARK                            x       y       z     vdW  Elec       q    Type
REMARK                         _______ _______ _______ _____ _____    ______ ____
ROOT
ATOM      1  C   UNL     1      10.075  -0.197  23.193  0.00  0.00    +0.204 C 
ATOM      2  C   UNL     1      10.135   1.036  24.116  0.00  0.00    +0.179 C 
ATOM      3  C   UNL     1       8.987   2.042  23.901  0.00  0.00    +0.174 C 
ATOM      4  C   UNL     1       8.743   2.268  22.401  0.00  0.00    +0.149 C 
ATOM      5  C   UNL     1       7.525   3.150  22.152  0.00  0.00    +0.041 C 
ATOM      6  O   UNL     1       8.531   1.017  21.730  0.00  0.00    -0.343 OA
ATOM      7  C   UNL     1       9.713   0.221  21.750  0.00  0.00    +0.279 C 
ENDROOT
BRANCH   1   9
ATOM      8  C   UNL     1       9.881  -2.553  23.908  0.00  0.00    +0.194 C 
ATOM      9  O   UNL     1       9.292  -1.272  23.761  0.00  0.00    -0.372 OA
ENDBRANCH   1   9
BRANCH   2  10
ATOM     10  O   UNL     1      10.190   0.630  25.491  0.00  0.00    -0.386 OA
ATOM     11  H   UNL     1       9.445   1.071  25.945  0.00  0.00    +0.210 HD
ENDBRANCH   2  10
BRANCH   3  12
ATOM     12  O   UNL     1       9.331   3.284  24.526  0.00  0.00    -0.387 OA
ATOM     13  H   UNL     1      10.172   3.589  24.140  0.00  0.00    +0.210 HD
ENDBRANCH   3  12
BRANCH   7  14
ATOM     14  O   UNL     1       9.544  -0.901  20.901  0.00  0.00    -0.365 OA
ATOM     15  H   UNL     1       8.626  -1.198  21.011  0.00  0.00    +0.213 HD
ENDBRANCH   7  14
TORSDOF 4
ENDMDL
MODEL 3
REMARK VINA RESULT:      -4.6      1.259      3.544
REMARK  Name = 
REMARK  6 active torsions:
REMARK  status: ('A' for Active; 'I' for Inactive)
REMARK    1  A    between atoms: C_1  and  O_2
REMARK    2  A    between atoms: O_2  and  C_3
REMARK    3  A    between atoms: C_5  and  O_7
REMARK    4  A    between atoms: C_9  and  C_11
REMARK    5  A    between atoms: C_12  and  O_14
REMARK    6  A    between atoms: C_15  and  O_17
REMARK                            x       y       z     vdW  Elec       q    Type
REMARK                         _______ _______ _______ _____ _____    ______ ____
ROOT
ATOM      1  C   UNL     1       9.860   1.279  23.780  0.00  0.00    +0.204 C 
ATOM      2  C   UNL     1       9.911   0.930  22.279  0.00  0.00    +0.179 C 
ATOM      3  C   UNL     1       9.051  -0.288  21.886  0.00  0.00    +0.174 C 
ATOM      4  C   UNL     1       9.229  -1.425  22.903  0.00  0.00    +0.149 C 
ATOM      5  C   UNL     1       8.290  -2.592  22.620  0.00  0.00    +0.041 C 
ATOM      6  O   UNL     1       8.969  -0.957  24.235  0.00  0.00    -0.343 OA
ATOM      7  C   UNL     1       9.946  -0.002  24.640  0.00  0.00    +0.279 C 
ENDROOT
BRANCH   1   9
ATOM      8  C   UNL     1       9.089   3.509  24.511  0.00  0.00    +0.194 C 
ATOM      9  O   UNL     1       8.781   2.188  24.097  0.00  0.00    -0.372 OA
ENDBRANCH   1   9
BRANCH   2  10
ATOM     10  O   UNL     1       9.550   2.070  21.486  0.00  0.00    -0.386 OA
ATOM     11  H   UNL     1      10.103   2.039  20.681  0.00  0.00    +0.210 HD
ENDBRANCH   2  10
BRANCH   3  12
ATOM     12  O   UNL     1       9.447  -0.739  20.584  0.00  0.00    -0.387 OA
ATOM     13  H   UNL     1       9.434  -1.712  20.590  0.00  0.00    +0.210 HD
ENDBRANCH   3  12
BRANCH   7  14
ATOM     14  O   UNL     1       9.794   0.277  26.021  0.00  0.00    -0.365 OA
ATOM     15  H   UNL     1       9.228   1.064  26.085  0.00  0.00    +0.213 HD
ENDBRANCH   7  14
TORSDOF 4
ENDMDL
MODEL 4
REMARK VINA RESULT:      -4.4      1.985      5.131
REMARK  Name = 
REMARK  6 active torsions:
REMARK  status: ('A' for Active; 'I' for Inactive)
REMARK    1  A    between atoms: C_1  and  O_2
REMARK    2  A    between atoms: O_2  and  C_3
REMARK    3  A    between atoms: C_5  and  O_7
REMARK    4  A    between atoms: C_9  and  C_11
REMARK    5  A    between atoms: C_12  and  O_14
REMARK    6  A    between atoms: C_15  and  O_17
REMARK                            x       y       z     vdW  Elec       q    Type
REMARK                         _______ _______ _______ _____ _____    ______ ____
ROOT
ATOM      1  C   UNL     1       9.317  -1.021  24.304  0.00  0.00    +0.204 C 
ATOM      2  C   UNL     1       8.339  -1.500  25.394  0.00  0.00    +0.179 C 
ATOM      3  C   UNL     1       8.680  -2.882  25.986  0.00  0.00    +0.174 C 
ATOM      4  C   UNL     1       9.062  -3.866  24.870  0.00  0.00    +0.149 C 
ATOM      5  C   UNL     1       9.539  -5.202  25.430  0.00  0.00    +0.041 C 
ATOM      6  O   UNL     1      10.114  -3.324  24.057  0.00  0.00    -0.343 OA
ATOM      7  C   UNL     1       9.664  -2.177  23.340  0.00  0.00    +0.279 C 
ENDROOT
BRANCH   1   9
ATOM      8  C   UNL     1      10.680   1.035  24.410  0.00  0.00    +0.194 C 
ATOM      9  O   UNL     1      10.437  -0.289  24.852  0.00  0.00    -0.372 OA
ENDBRANCH   1   9
BRANCH   2  10
ATOM     10  O   UNL     1       8.237  -0.523  26.441  0.00  0.00    -0.386 OA
ATOM     11  H   UNL     1       7.939   0.308  26.022  0.00  0.00    +0.210 HD
ENDBRANCH   2  10
BRANCH   3  12
ATOM     12  O   UNL     1       7.541  -3.380  26.699  0.00  0.00    -0.387 OA
ATOM     13  H   UNL     1       7.199  -2.657  27.254  0.00  0.00    +0.210 HD
ENDBRANCH   3  12
BRANCH   7  14
ATOM     14  O   UNL     1      10.645  -1.797  22.389  0.00  0.00    -0.365 OA
ATOM     15  H   UNL     1      10.505  -0.853  22.208  0.00  0.00    +0.213 HD
ENDBRANCH   7  14
TORSDOF 4
ENDMDL
MODEL 5
REMARK VINA RESULT:      -4.4      3.950      5.961
REMARK  Name = 
REMARK  6 active torsions:
REMARK  status: ('A' for Active; 'I' for Inactive)
REMARK    1  A    between atoms: C_1  and  O_2
REMARK    2  A    between atoms: O_2  and  C_3
REMARK    3  A    between atoms: C_5  and  O_7
REMARK    4  A    between atoms: C_9  and  C_11
REMARK    5  A    between atoms: C_12  and  O_14
REMARK    6  A    between atoms: C_15  and  O_17
REMARK                            x       y       z     vdW  Elec       q    Type
REMARK                         _______ _______ _______ _____ _____    ______ ____
ROOT
ATOM      1  C   UNL     1       6.662  -4.482  25.871  0.00  0.00    +0.204 C 
ATOM      2  C   UNL     1       7.995  -5.252  25.800  0.00  0.00    +0.179 C 
ATOM      3  C   UNL     1       9.197  -4.394  25.360  0.00  0.00    +0.174 C 
ATOM      4  C   UNL     1       8.813  -3.496  24.175  0.00  0.00    +0.149 C 
ATOM      5  C   UNL     1       9.936  -2.535  23.803  0.00  0.00    +0.041 C 
ATOM      6  O   UNL     1       7.647  -2.718  24.487  0.00  0.00    -0.343 OA
ATOM      7  C   UNL     1       6.504  -3.555  24.646  0.00  0.00    +0.279 C 
ENDROOT
BRANCH   1   9
ATOM      8  C   UNL     1       5.312  -4.249  27.926  0.00  0.00    +0.194 C 
ATOM      9  O   UNL     1       6.447  -3.873  27.165  0.00  0.00    -0.372 OA
ENDBRANCH   1   9
BRANCH   2  10
ATOM     10  O   UNL     1       8.273  -5.891  27.055  0.00  0.00    -0.386 OA
ATOM     11  H   UNL     1       8.814  -6.680  26.856  0.00  0.00    +0.210 HD
ENDBRANCH   2  10
BRANCH   3  12
ATOM     12  O   UNL     1      10.275  -5.258  24.981  0.00  0.00    -0.387 OA
ATOM     13  H   UNL     1      10.636  -4.931  24.137  0.00  0.00    +0.210 HD
ENDBRANCH   3  12
BRANCH   7  14
ATOM     14  O   UNL     1       5.338  -2.753  24.736  0.00  0.00    -0.365 OA
ATOM     15  H   UNL     1       4.620  -3.339  25.026  0.00  0.00    +0.213 HD
ENDBRANCH   7  14
TORSDOF 4
ENDMDL
MODEL 6
REMARK VINA RESULT:      -4.3      1.951      2.076
REMARK  Name = 
REMARK  6 active torsions:
REMARK  status: ('A' for Active; 'I' for Inactive)
REMARK    1  A    between atoms: C_1  and  O_2
REMARK    2  A    between atoms: O_2  and  C_3
REMARK    3  A    between atoms: C_5  and  O_7
REMARK    4  A    between atoms: C_9  and  C_11
REMARK    5  A    between atoms: C_12  and  O_14
REMARK    6  A    between atoms: C_15  and  O_17
REMARK                            x       y       z     vdW  Elec       q    Type
REMARK                         _______ _______ _______ _____ _____    ______ ____
ROOT
ATOM      1  C   UNL     1       7.851  -0.480  22.504  0.00  0.00    +0.204 C 
ATOM      2  C   UNL     1       8.961   0.259  21.732  0.00  0.00    +0.179 C 
ATOM      3  C   UNL     1       9.606   1.421  22.513  0.00  0.00    +0.174 C 
ATOM      4  C   UNL     1       8.529   2.260  23.218  0.00  0.00    +0.149 C 
ATOM      5  C   UNL     1       9.140   3.334  24.110  0.00  0.00    +0.041 C 
ATOM      6  O   UNL     1       7.693   1.426  24.034  0.00  0.00    -0.343 OA
ATOM      7  C   UNL     1       6.932   0.526  23.232  0.00  0.00    +0.279 C 
ENDROOT
BRANCH   1   9
ATOM      8  C   UNL     1       7.946  -2.892  23.029  0.00  0.00    +0.194 C 
ATOM      9  O   UNL     1       8.368  -1.567  23.305  0.00  0.00    -0.372 OA
ENDBRANCH   1   9
BRANCH   2  10
ATOM     10  O   UNL     1       9.969  -0.665  21.295  0.00  0.00    -0.386 OA
ATOM     11  H   UNL     1       9.918  -0.695  20.319  0.00  0.00    +0.210 HD
ENDBRANCH   2  10
BRANCH   3  12
ATOM     12  O   UNL     1      10.340   2.248  21.601  0.00  0.00    -0.387 OA
ATOM     13  H   UNL     1      11.160   2.527  22.046  0.00  0.00    +0.210 HD
ENDBRANCH   3  12
BRANCH   7  14
ATOM     14  O   UNL     1       5.966  -0.127  24.038  0.00  0.00    -0.365 OA
ATOM     15  H   UNL     1       6.051  -1.078  23.859  0.00  0.00    +0.213 HD
ENDBRANCH   7  14
TORSDOF 4
ENDMDL
MODEL 7
REMARK VINA RESULT:      -4.3      2.438      4.357
REMARK  Name = 
REMARK  6 active torsions:
REMARK  status: ('A' for Active; 'I' for Inactive)
REMARK    1  A    between atoms: C_1  and  O_2
REMARK    2  A    between atoms: O_2  and  C_3
REMARK    3  A    between atoms: C_5  and  O_7
REMARK    4  A    between atoms: C_9  and  C_11
REMARK    5  A    between atoms: C_12  and  O_14
REMARK    6  A    between atoms: C_15  and  O_17
REMARK                            x       y       z     vdW  Elec       q    Type
REMARK                         _______ _______ _______ _____ _____    ______ ____
ROOT
ATOM      1  C   UNL     1       7.784   1.096  22.947  0.00  0.00    +0.204 C 
ATOM      2  C   UNL     1       9.089   0.446  22.448  0.00  0.00    +0.179 C 
ATOM      3  C   UNL     1       8.913  -0.985  21.902  0.00  0.00    +0.174 C 
ATOM      4  C   UNL     1       7.999  -1.805  22.824  0.00  0.00    +0.149 C 
ATOM      5  C   UNL     1       7.692  -3.180  22.243  0.00  0.00    +0.041 C 
ATOM      6  O   UNL     1       6.753  -1.124  23.037  0.00  0.00    -0.343 OA
ATOM      7  C   UNL     1       6.951   0.085  23.766  0.00  0.00    +0.279 C 
ENDROOT
BRANCH   1   9
ATOM      8  C   UNL     1       6.755   3.165  22.074  0.00  0.00    +0.194 C 
ATOM      9  O   UNL     1       7.082   1.797  21.895  0.00  0.00    -0.372 OA
ENDBRANCH   1   9
BRANCH   2  10
ATOM     10  O   UNL     1       9.721   1.280  21.465  0.00  0.00    -0.386 OA
ATOM     11  H   UNL     1       9.515   2.204  21.705  0.00  0.00    +0.210 HD
ENDBRANCH   2  10
BRANCH   3  12
ATOM     12  O   UNL     1      10.198  -1.613  21.813  0.00  0.00    -0.387 OA
ATOM     13  H   UNL     1      10.862  -0.914  21.677  0.00  0.00    +0.210 HD
ENDBRANCH   3  12
BRANCH   7  14
ATOM     14  O   UNL     1       5.695   0.620  24.147  0.00  0.00    -0.365 OA
ATOM     15  H   UNL     1       5.039  -0.083  24.005  0.00  0.00    +0.213 HD
ENDBRANCH   7  14
TORSDOF 4
ENDMDL
MODEL 8
REMARK VINA RESULT:      -4.3      3.039      4.447
REMARK  Name = 
REMARK  6 active torsions:
REMARK  status: ('A' for Active; 'I' for Inactive)
REMARK    1  A    between atoms: C_1  and  O_2
REMARK    2  A    between atoms: O_2  and  C_3
REMARK    3  A    between atoms: C_5  and  O_7
REMARK    4  A    between atoms: C_9  and  C_11
REMARK    5  A    between atoms: C_12  and  O_14
REMARK    6  A    between atoms: C_15  and  O_17
REMARK                            x       y       z     vdW  Elec       q    Type
REMARK                         _______ _______ _______ _____ _____    ______ ____
ROOT
ATOM      1  C   UNL     1       6.700   2.362  23.280  0.00  0.00    +0.204 C 
ATOM      2  C   UNL     1       8.044   2.875  22.727  0.00  0.00    +0.179 C 
ATOM      3  C   UNL     1       8.781   1.867  21.823  0.00  0.00    +0.174 C 
ATOM      4  C   UNL     1       8.737   0.460  22.437  0.00  0.00    +0.149 C 
ATOM      5  C   UNL     1       9.336  -0.587  21.504  0.00  0.00    +0.041 C 
ATOM      6  O   UNL     1       7.384   0.076  22.726  0.00  0.00    -0.343 OA
ATOM      7  C   UNL     1       6.829   0.896  23.751  0.00  0.00    +0.279 C 
ENDROOT
BRANCH   1   9
ATOM      8  C   UNL     1       4.506   3.421  22.875  0.00  0.00    +0.194 C 
ATOM      9  O   UNL     1       5.595   2.651  22.393  0.00  0.00    -0.372 OA
ENDBRANCH   1   9
BRANCH   2  10
ATOM     10  O   UNL     1       7.861   4.120  22.037  0.00  0.00    -0.386 OA
ATOM     11  H   UNL     1       7.246   4.653  22.578  0.00  0.00    +0.210 HD
ENDBRANCH   2  10
BRANCH   3  12
ATOM     12  O   UNL     1      10.143   2.284  21.670  0.00  0.00    -0.387 OA
ATOM     13  H   UNL     1      10.192   2.856  20.883  0.00  0.00    +0.210 HD
ENDBRANCH   3  12
BRANCH   7  14
ATOM     14  O   UNL     1       5.584   0.362  24.165  0.00  0.00    -0.365 OA
ATOM     15  H   UNL     1       5.183  -0.049  23.381  0.00  0.00    +0.213 HD
ENDBRANCH   7  14
TORSDOF 4
ENDMDL
MODEL 9
REMARK VINA RESULT:      -4.3      2.293      3.176
REMARK  Name = 
REMARK  6 active torsions:
REMARK  status: ('A' for Active; 'I' for Inactive)
REMARK    1  A    between atoms: C_1  and  O_2
REMARK    2  A    between atoms: O_2  and  C_3
REMARK    3  A    between atoms: C_5  and  O_7
REMARK    4  A    between atoms: C_9  and  C_11
REMARK    5  A    between atoms: C_12  and  O_14
REMARK    6  A    between atoms: C_15  and  O_17
REMARK                            x       y       z     vdW  Elec       q    Type
REMARK                         _______ _______ _______ _____ _____    ______ ____
ROOT
ATOM      1  C   UNL     1       7.589  -2.148  23.944  0.00  0.00    +0.204 C 
ATOM      2  C   UNL     1       8.891  -2.494  23.196  0.00  0.00    +0.179 C 
ATOM      3  C   UNL     1       9.700  -1.266  22.736  0.00  0.00    +0.174 C 
ATOM      4  C   UNL     1       8.771  -0.207  22.124  0.00  0.00    +0.149 C 
ATOM      5  C   UNL     1       9.519   1.077  21.785  0.00  0.00    +0.041 C 
ATOM      6  O   UNL     1       7.713   0.124  23.037  0.00  0.00    -0.343 OA
ATOM      7  C   UNL     1       6.847  -0.991  23.239  0.00  0.00    +0.279 C 
ENDROOT
BRANCH   1   9
ATOM      8  C   UNL     1       7.064  -2.819  26.263  0.00  0.00    +0.194 C 
ATOM      9  O   UNL     1       7.796  -1.998  25.368  0.00  0.00    -0.372 OA
ENDBRANCH   1   9
BRANCH   2  10
ATOM     10  O   UNL     1       9.712  -3.361  23.993  0.00  0.00    -0.386 OA
ATOM     11  H   UNL     1       9.351  -4.263  23.890  0.00  0.00    +0.210 HD
ENDBRANCH   2  10
BRANCH   3  12
ATOM     12  O   UNL     1      10.665  -1.681  21.761  0.00  0.00    -0.387 OA
ATOM     13  H   UNL     1      11.544  -1.404  22.076  0.00  0.00    +0.210 HD
ENDBRANCH   3  12
BRANCH   7  14
ATOM     14  O   UNL     1       5.701  -0.577  23.963  0.00  0.00    -0.365 OA
ATOM     15  H   UNL     1       5.318   0.170  23.473  0.00  0.00    +0.213 HD
ENDBRANCH   7  14
TORSDOF 4
ENDMDL
