MODEL 1
REMARK VINA RESULT:      -7.3      0.000      0.000
REMARK  Name = 
REMARK  6 active torsions:
REMARK  status: ('A' for Active; 'I' for Inactive)
REMARK    1  A    between atoms: N_1  and  CA_2
REMARK    2  A    between atoms: CA_2  and  C_4
REMARK    3  A    between atoms: CA_2  and  C_22
REMARK    4  A    between atoms: N_6  and  CA_7
REMARK    5  A    between atoms: CA_15  and  C_19
REMARK    6  A    between atoms: C_19  and  O_20
REMARK                            x       y       z     vdW  Elec       q    Type
REMARK                         _______ _______ _______ _____ _____    ______ ____
ROOT
ATOM      1  C   UNL     1      10.033  -1.228  23.478  0.00  0.00    +0.235 C 
ATOM      2  N   UNL     1       9.112  -1.713  24.378  0.00  0.00    -0.301 N 
ATOM      3  H   UNL     1       8.735  -1.084  25.076  0.00  0.00    +0.150 HD
ATOM      4  O   UNL     1      10.552  -1.984  22.650  0.00  0.00    -0.274 OA
ENDROOT
BRANCH   2   5
ATOM      5  CA  UNL     1       8.807  -3.159  24.472  0.00  0.00    +0.180 C 
ATOM      6  C   UNL     1       8.481  -3.672  25.907  0.00  0.00    +0.242 C 
ATOM      7  O   UNL     1       9.019  -3.722  26.985  0.00  0.00    -0.273 OA
ATOM      8  N   UNL     1       7.309  -4.182  25.487  0.00  0.00    -0.258 N 
ATOM      9  CA  UNL     1       6.447  -5.173  25.882  0.00  0.00    +0.136 C 
ATOM     10  C   UNL     1       5.684  -5.750  24.921  0.00  0.00    +0.047 C 
ATOM     11 CL   UNL     1       4.550  -7.039  25.170  0.00  0.00    -0.086 Cl
ATOM     12  C   UNL     1       5.788  -5.376  23.452  0.00  0.00    +0.051 C 
ATOM     13  C   UNL     1       7.103  -4.673  23.109  0.00  0.00    +0.031 C 
ATOM     14  C   UNL     1       7.345  -3.599  24.144  0.00  0.00    +0.111 C 
BRANCH   9  15
ATOM     15  C   UNL     1       6.375  -5.628  27.324  0.00  0.00    +0.352 C 
ATOM     16  OXT UNL     1       5.396  -5.492  28.046  0.00  0.00    -0.244 OA
BRANCH  15  17
ATOM     17  O   UNL     1       7.502  -6.156  27.846  0.00  0.00    -0.476 OA
ATOM     18  H   UNL     1       8.207  -6.432  27.223  0.00  0.00    +0.295 HD
ENDBRANCH  15  17
ENDBRANCH   9  15
ENDBRANCH   2   5
BRANCH   1  19
ATOM     19  CA  UNL     1      10.510   0.242  23.638  0.00  0.00    +0.168 C 
BRANCH  19  20
ATOM     20  C   UNL     1       9.585   1.331  23.113  0.00  0.00    -0.022 A 
ATOM     21  C   UNL     1       8.806   1.167  21.952  0.00  0.00    +0.005 A 
ATOM     22  C   UNL     1       7.911   2.156  21.541  0.00  0.00    +0.000 A 
ATOM     23  C   UNL     1       7.756   3.314  22.297  0.00  0.00    +0.000 A 
ATOM     24  C   UNL     1       8.515   3.497  23.450  0.00  0.00    +0.000 A 
ATOM     25  C   UNL     1       9.431   2.519  23.849  0.00  0.00    +0.005 A 
ENDBRANCH  19  20
BRANCH  19  26
ATOM     26  N   UNL     1      10.856   0.485  25.054  0.00  0.00    -0.316 NA
ATOM     27  H1  UNL     1      10.142   0.089  25.659  0.00  0.00    +0.119 HD
ATOM     28  H2  UNL     1      11.718  -0.020  25.259  0.00  0.00    +0.119 HD
ENDBRANCH  19  26
ENDBRANCH   1  19
TORSDOF 6
ENDMDL
MODEL 2
REMARK VINA RESULT:      -7.2      1.599      1.985
REMARK  Name = 
REMARK  6 active torsions:
REMARK  status: ('A' for Active; 'I' for Inactive)
REMARK    1  A    between atoms: N_1  and  CA_2
REMARK    2  A    between atoms: CA_2  and  C_4
REMARK    3  A    between atoms: CA_2  and  C_22
REMARK    4  A    between atoms: N_6  and  CA_7
REMARK    5  A    between atoms: CA_15  and  C_19
REMARK    6  A    between atoms: C_19  and  O_20
REMARK                            x       y       z     vdW  Elec       q    Type
REMARK                         _______ _______ _______ _____ _____    ______ ____
ROOT
ATOM      1  C   UNL     1       9.301  -2.580  24.727  0.00  0.00    +0.235 C 
ATOM      2  N   UNL     1       8.089  -2.975  25.246  0.00  0.00    -0.301 N 
ATOM      3  H   UNL     1       7.548  -2.307  25.782  0.00  0.00    +0.150 HD
ATOM      4  O   UNL     1      10.008  -3.387  24.116  0.00  0.00    -0.274 OA
ENDROOT
BRANCH   2   5
ATOM      5  CA  UNL     1       7.651  -4.388  25.203  0.00  0.00    +0.180 C 
ATOM      6  C   UNL     1       7.103  -4.949  26.551  0.00  0.00    +0.242 C 
ATOM      7  O   UNL     1       7.494  -5.111  27.679  0.00  0.00    -0.273 OA
ATOM      8  N   UNL     1       5.954  -5.322  25.959  0.00  0.00    -0.258 N 
ATOM      9  CA  UNL     1       4.966  -6.248  26.178  0.00  0.00    +0.136 C 
ATOM     10  C   UNL     1       4.284  -6.695  25.095  0.00  0.00    +0.047 C 
ATOM     11 CL   UNL     1       3.020  -7.884  25.117  0.00  0.00    -0.086 Cl
ATOM     12  C   UNL     1       4.604  -6.250  23.679  0.00  0.00    +0.051 C 
ATOM     13  C   UNL     1       6.007  -5.655  23.545  0.00  0.00    +0.031 C 
ATOM     14  C   UNL     1       6.208  -4.669  24.673  0.00  0.00    +0.111 C 
BRANCH   9  15
ATOM     15  C   UNL     1       4.674  -6.776  27.567  0.00  0.00    +0.352 C 
ATOM     16  OXT UNL     1       3.670  -6.508  28.213  0.00  0.00    -0.244 OA
BRANCH  15  17
ATOM     17  O   UNL     1       5.632  -7.538  28.135  0.00  0.00    -0.476 OA
ATOM     18  H   UNL     1       5.347  -8.342  28.619  0.00  0.00    +0.295 HD
ENDBRANCH  15  17
ENDBRANCH   9  15
ENDBRANCH   2   5
BRANCH   1  19
ATOM     19  CA  UNL     1       9.814  -1.153  25.067  0.00  0.00    +0.168 C 
BRANCH  19  20
ATOM     20  C   UNL     1       9.889  -0.153  23.923  0.00  0.00    -0.022 A 
ATOM     21  C   UNL     1       9.449  -0.460  22.621  0.00  0.00    +0.005 A 
ATOM     22  C   UNL     1       9.461   0.506  21.613  0.00  0.00    +0.000 A 
ATOM     23  C   UNL     1       9.886   1.801  21.892  0.00  0.00    +0.000 A 
ATOM     24  C   UNL     1      10.325   2.126  23.173  0.00  0.00    +0.000 A 
ATOM     25  C   UNL     1      10.338   1.154  24.178  0.00  0.00    +0.005 A 
ENDBRANCH  19  20
BRANCH  19  26
ATOM     26  N   UNL     1       9.018  -0.610  26.187  0.00  0.00    -0.316 NA
ATOM     27  H1  UNL     1       8.347   0.069  25.840  0.00  0.00    +0.119 HD
ATOM     28  H2  UNL     1       8.472  -1.374  26.587  0.00  0.00    +0.119 HD
ENDBRANCH  19  26
ENDBRANCH   1  19
TORSDOF 6
ENDMDL
MODEL 3
REMARK VINA RESULT:      -7.0      3.273      7.384
REMARK  Name = 
REMARK  6 active torsions:
REMARK  status: ('A' for Active; 'I' for Inactive)
REMARK    1  A    between atoms: N_1  and  CA_2
REMARK    2  A    between atoms: CA_2  and  C_4
REMARK    3  A    between atoms: CA_2  and  C_22
REMARK    4  A    between atoms: N_6  and  CA_7
REMARK    5  A    between atoms: CA_15  and  C_19
REMARK    6  A    between atoms: C_19  and  O_20
REMARK                            x       y       z     vdW  Elec       q    Type
REMARK                         _______ _______ _______ _____ _____    ______ ____
ROOT
ATOM      1  C   UNL     1       8.122  -3.425  25.585  0.00  0.00    +0.235 C 
ATOM      2  N   UNL     1       7.562  -2.507  24.727  0.00  0.00    -0.301 N 
ATOM      3  H   UNL     1       7.159  -2.835  23.858  0.00  0.00    +0.150 HD
ATOM      4  O   UNL     1       8.669  -3.050  26.627  0.00  0.00    -0.274 OA
ENDROOT
BRANCH   2   5
ATOM      5  CA  UNL     1       7.704  -1.050  24.951  0.00  0.00    +0.180 C 
ATOM      6  C   UNL     1       9.020  -0.423  24.398  0.00  0.00    +0.242 C 
ATOM      7  O   UNL     1      10.208  -0.555  24.550  0.00  0.00    -0.273 OA
ATOM      8  N   UNL     1       8.322   0.478  23.685  0.00  0.00    -0.258 N 
ATOM      9  CA  UNL     1       8.537   1.728  23.161  0.00  0.00    +0.136 C 
ATOM     10  C   UNL     1       7.455   2.528  23.001  0.00  0.00    +0.047 C 
ATOM     11 CL   UNL     1       7.480   4.153  22.392  0.00  0.00    -0.086 Cl
ATOM     12  C   UNL     1       6.055   2.113  23.420  0.00  0.00    +0.051 C 
ATOM     13  C   UNL     1       6.052   0.963  24.429  0.00  0.00    +0.031 C 
ATOM     14  C   UNL     1       6.999  -0.103  23.928  0.00  0.00    +0.111 C 
BRANCH   9  15
ATOM     15  C   UNL     1       9.929   2.206  22.809  0.00  0.00    +0.352 C 
ATOM     16  OXT UNL     1      10.738   2.643  23.617  0.00  0.00    -0.244 OA
BRANCH  15  17
ATOM     17  O   UNL     1      10.254   2.202  21.499  0.00  0.00    -0.476 OA
ATOM     18  H   UNL     1      10.778   1.445  21.161  0.00  0.00    +0.295 HD
ENDBRANCH  15  17
ENDBRANCH   9  15
ENDBRANCH   2   5
BRANCH   1  19
ATOM     19  CA  UNL     1       8.182  -4.910  25.132  0.00  0.00    +0.168 C 
BRANCH  19  20
ATOM     20  C   UNL     1       7.235  -5.333  24.018  0.00  0.00    -0.022 A 
ATOM     21  C   UNL     1       5.855  -5.515  24.227  0.00  0.00    +0.005 A 
ATOM     22  C   UNL     1       5.003  -5.828  23.167  0.00  0.00    +0.000 A 
ATOM     23  C   UNL     1       5.508  -5.938  21.875  0.00  0.00    +0.000 A 
ATOM     24  C   UNL     1       6.870  -5.762  21.645  0.00  0.00    +0.000 A 
ATOM     25  C   UNL     1       7.729  -5.473  22.710  0.00  0.00    +0.005 A 
ENDBRANCH  19  20
BRANCH  19  26
ATOM     26  N   UNL     1       9.578  -5.254  24.793  0.00  0.00    -0.316 NA
ATOM     27  H1  UNL     1      10.010  -4.489  24.281  0.00  0.00    +0.119 HD
ATOM     28  H2  UNL     1      10.101  -5.348  25.664  0.00  0.00    +0.119 HD
ENDBRANCH  19  26
ENDBRANCH   1  19
TORSDOF 6
ENDMDL
MODEL 4
REMARK VINA RESULT:      -6.9      1.687      2.301
REMARK  Name = 
REMARK  6 active torsions:
REMARK  status: ('A' for Active; 'I' for Inactive)
REMARK    1  A    between atoms: N_1  and  CA_2
REMARK    2  A    between atoms: CA_2  and  C_4
REMARK    3  A    between atoms: CA_2  and  C_22
REMARK    4  A    between atoms: N_6  and  CA_7
REMARK    5  A    between atoms: CA_15  and  C_19
REMARK    6  A    between atoms: C_19  and  O_20
REMARK                            x       y       z     vdW  Elec       q    Type
REMARK                         _______ _______ _______ _____ _____    ______ ____
ROOT
ATOM      1  C   UNL     1       9.272   0.608  22.272  0.00  0.00    +0.235 C 
ATOM      2  N   UNL     1       8.598  -0.178  23.179  0.00  0.00    -0.301 N 
ATOM      3  H   UNL     1       8.461   0.172  24.119  0.00  0.00    +0.150 HD
ATOM      4  O   UNL     1       9.502   0.187  21.134  0.00  0.00    -0.274 OA
ENDROOT
BRANCH   2   5
ATOM      5  CA  UNL     1       8.242  -1.582  22.873  0.00  0.00    +0.180 C 
ATOM      6  C   UNL     1       8.988  -2.652  23.728  0.00  0.00    +0.242 C 
ATOM      7  O   UNL     1      10.123  -2.993  23.944  0.00  0.00    -0.273 OA
ATOM      8  N   UNL     1       7.820  -3.192  24.118  0.00  0.00    -0.258 N 
ATOM      9  CA  UNL     1       7.378  -4.412  24.565  0.00  0.00    +0.136 C 
ATOM     10  C   UNL     1       6.082  -4.726  24.327  0.00  0.00    +0.047 C 
ATOM     11 CL   UNL     1       5.306  -6.216  24.764  0.00  0.00    -0.086 Cl
ATOM     12  C   UNL     1       5.141  -3.816  23.556  0.00  0.00    +0.051 C 
ATOM     13  C   UNL     1       5.880  -2.785  22.701  0.00  0.00    +0.031 C 
ATOM     14  C   UNL     1       6.957  -2.153  23.553  0.00  0.00    +0.111 C 
BRANCH   9  15
ATOM     15  C   UNL     1       8.308  -5.379  25.265  0.00  0.00    +0.352 C 
ATOM     16  OXT UNL     1       8.175  -5.756  26.422  0.00  0.00    -0.244 OA
BRANCH  15  17
ATOM     17  O   UNL     1       9.387  -5.790  24.566  0.00  0.00    -0.476 OA
ATOM     18  H   UNL     1       9.555  -6.755  24.510  0.00  0.00    +0.295 HD
ENDBRANCH  15  17
ENDBRANCH   9  15
ENDBRANCH   2   5
BRANCH   1  19
ATOM     19  CA  UNL     1       9.862   1.957  22.768  0.00  0.00    +0.168 C 
BRANCH  19  20
ATOM     20  C   UNL     1       8.876   3.080  23.058  0.00  0.00    -0.022 A 
ATOM     21  C   UNL     1       7.733   3.304  22.267  0.00  0.00    +0.005 A 
ATOM     22  C   UNL     1       6.808   4.295  22.606  0.00  0.00    +0.000 A 
ATOM     23  C   UNL     1       6.994   5.059  23.753  0.00  0.00    +0.000 A 
ATOM     24  C   UNL     1       8.117   4.853  24.550  0.00  0.00    +0.000 A 
ATOM     25  C   UNL     1       9.057   3.880  24.199  0.00  0.00    +0.005 A 
ENDBRANCH  19  20
BRANCH  19  26
ATOM     26  N   UNL     1      10.726   1.703  23.939  0.00  0.00    -0.316 NA
ATOM     27  H1  UNL     1      11.381   0.954  23.732  0.00  0.00    +0.119 HD
ATOM     28  H2  UNL     1      11.289   2.539  24.103  0.00  0.00    +0.119 HD
ENDBRANCH  19  26
ENDBRANCH   1  19
TORSDOF 6
ENDMDL
MODEL 5
REMARK VINA RESULT:      -6.9      3.781      7.553
REMARK  Name = 
REMARK  6 active torsions:
REMARK  status: ('A' for Active; 'I' for Inactive)
REMARK    1  A    between atoms: N_1  and  CA_2
REMARK    2  A    between atoms: CA_2  and  C_4
REMARK    3  A    between atoms: CA_2  and  C_22
REMARK    4  A    between atoms: N_6  and  CA_7
REMARK    5  A    between atoms: CA_15  and  C_19
REMARK    6  A    between atoms: C_19  and  O_20
REMARK                            x       y       z     vdW  Elec       q    Type
REMARK                         _______ _______ _______ _____ _____    ______ ____
ROOT
ATOM      1  C   UNL     1       6.544  -3.874  22.082  0.00  0.00    +0.235 C 
ATOM      2  N   UNL     1       7.569  -3.041  22.466  0.00  0.00    -0.301 N 
ATOM      3  H   UNL     1       8.353  -3.434  22.972  0.00  0.00    +0.150 HD
ATOM      4  O   UNL     1       5.549  -3.415  21.511  0.00  0.00    -0.274 OA
ENDROOT
BRANCH   2   5
ATOM      5  CA  UNL     1       7.465  -1.570  22.327  0.00  0.00    +0.180 C 
ATOM      6  C   UNL     1       6.991  -0.819  23.609  0.00  0.00    +0.242 C 
ATOM      7  O   UNL     1       6.033  -0.811  24.340  0.00  0.00    -0.273 OA
ATOM      8  N   UNL     1       8.078  -0.028  23.579  0.00  0.00    -0.258 N 
ATOM      9  CA  UNL     1       8.424   1.218  24.036  0.00  0.00    +0.136 C 
ATOM     10  C   UNL     1       9.384   1.885  23.349  0.00  0.00    +0.047 C 
ATOM     11 CL   UNL     1       9.964   3.480  23.713  0.00  0.00    -0.086 Cl
ATOM     12  C   UNL     1      10.034   1.331  22.093  0.00  0.00    +0.051 C 
ATOM     13  C   UNL     1       9.207   0.225  21.434  0.00  0.00    +0.031 C 
ATOM     14  C   UNL     1       8.778  -0.745  22.511  0.00  0.00    +0.111 C 
BRANCH   9  15
ATOM     15  C   UNL     1       7.740   1.837  25.236  0.00  0.00    +0.352 C 
ATOM     16  OXT UNL     1       6.944   2.764  25.179  0.00  0.00    -0.244 OA
BRANCH  15  17
ATOM     17  O   UNL     1       8.100   1.360  26.446  0.00  0.00    -0.476 OA
ATOM     18  H   UNL     1       7.885   1.904  27.233  0.00  0.00    +0.295 HD
ENDBRANCH  15  17
ENDBRANCH   9  15
ENDBRANCH   2   5
BRANCH   1  19
ATOM     19  CA  UNL     1       6.605  -5.363  22.524  0.00  0.00    +0.168 C 
BRANCH  19  20
ATOM     20  C   UNL     1       5.972  -5.715  23.862  0.00  0.00    -0.022 A 
ATOM     21  C   UNL     1       4.826  -6.526  23.966  0.00  0.00    +0.005 A 
ATOM     22  C   UNL     1       4.316  -6.892  25.213  0.00  0.00    +0.000 A 
ATOM     23  C   UNL     1       4.956  -6.480  26.377  0.00  0.00    +0.000 A 
ATOM     24  C   UNL     1       6.092  -5.677  26.297  0.00  0.00    +0.000 A 
ATOM     25  C   UNL     1       6.589  -5.288  25.050  0.00  0.00    +0.005 A 
ENDBRANCH  19  20
BRANCH  19  26
ATOM     26  N   UNL     1       6.056  -6.209  21.445  0.00  0.00    -0.316 NA
ATOM     27  H1  UNL     1       5.040  -6.212  21.488  0.00  0.00    +0.119 HD
ATOM     28  H2  UNL     1       6.303  -5.782  20.551  0.00  0.00    +0.119 HD
ENDBRANCH  19  26
ENDBRANCH   1  19
TORSDOF 6
ENDMDL
MODEL 6
REMARK VINA RESULT:      -6.8      4.243      8.160
REMARK  Name = 
REMARK  6 active torsions:
REMARK  status: ('A' for Active; 'I' for Inactive)
REMARK    1  A    between atoms: N_1  and  CA_2
REMARK    2  A    between atoms: CA_2  and  C_4
REMARK    3  A    between atoms: CA_2  and  C_22
REMARK    4  A    between atoms: N_6  and  CA_7
REMARK    5  A    between atoms: CA_15  and  C_19
REMARK    6  A    between atoms: C_19  and  O_20
REMARK                            x       y       z     vdW  Elec       q    Type
REMARK                         _______ _______ _______ _____ _____    ______ ____
ROOT
ATOM      1  C   UNL     1       9.213  -1.733  23.362  0.00  0.00    +0.235 C 
ATOM      2  N   UNL     1       8.590  -0.556  23.710  0.00  0.00    -0.301 N 
ATOM      3  H   UNL     1       7.845  -0.584  24.395  0.00  0.00    +0.150 HD
ATOM      4  O   UNL     1      10.088  -1.740  22.491  0.00  0.00    -0.274 OA
ENDROOT
BRANCH   2   5
ATOM      5  CA  UNL     1       8.850   0.704  22.977  0.00  0.00    +0.180 C 
ATOM      6  C   UNL     1       7.615   1.645  22.828  0.00  0.00    +0.242 C 
ATOM      7  O   UNL     1       6.509   1.603  22.351  0.00  0.00    -0.273 OA
ATOM      8  N   UNL     1       8.293   2.665  23.382  0.00  0.00    -0.258 N 
ATOM      9  CA  UNL     1       8.242   4.036  23.356  0.00  0.00    +0.136 C 
ATOM     10  C   UNL     1       9.400   4.704  23.581  0.00  0.00    +0.047 C 
ATOM     11 CL   UNL     1       9.592   6.428  23.566  0.00  0.00    -0.086 Cl
ATOM     12  C   UNL     1      10.727   3.999  23.805  0.00  0.00    +0.051 C 
ATOM     13  C   UNL     1      10.726   2.555  23.300  0.00  0.00    +0.031 C 
ATOM     14  C   UNL     1       9.464   1.886  23.792  0.00  0.00    +0.111 C 
BRANCH   9  15
ATOM     15  C   UNL     1       6.954   4.772  23.054  0.00  0.00    +0.352 C 
ATOM     16  OXT UNL     1       6.279   5.359  23.889  0.00  0.00    -0.244 OA
BRANCH  15  17
ATOM     17  O   UNL     1       6.506   4.706  21.783  0.00  0.00    -0.476 OA
ATOM     18  H   UNL     1       5.743   5.270  21.538  0.00  0.00    +0.295 HD
ENDBRANCH  15  17
ENDBRANCH   9  15
ENDBRANCH   2   5
BRANCH   1  19
ATOM     19  CA  UNL     1       8.677  -3.055  23.978  0.00  0.00    +0.168 C 
BRANCH  19  20
ATOM     20  C   UNL     1       7.722  -3.879  23.127  0.00  0.00    -0.022 A 
ATOM     21  C   UNL     1       6.794  -3.289  22.247  0.00  0.00    +0.005 A 
ATOM     22  C   UNL     1       5.985  -4.075  21.424  0.00  0.00    +0.000 A 
ATOM     23  C   UNL     1       6.107  -5.461  21.444  0.00  0.00    +0.000 A 
ATOM     24  C   UNL     1       7.019  -6.065  22.306  0.00  0.00    +0.000 A 
ATOM     25  C   UNL     1       7.812  -5.281  23.150  0.00  0.00    +0.005 A 
ENDBRANCH  19  20
BRANCH  19  26
ATOM     26  N   UNL     1       9.821  -3.876  24.426  0.00  0.00    -0.316 NA
ATOM     27  H1  UNL     1       9.491  -4.653  24.992  0.00  0.00    +0.119 HD
ATOM     28  H2  UNL     1      10.257  -4.288  23.600  0.00  0.00    +0.119 HD
ENDBRANCH  19  26
ENDBRANCH   1  19
TORSDOF 6
ENDMDL
MODEL 7
REMARK VINA RESULT:      -6.7      2.064      2.726
REMARK  Name = 
REMARK  6 active torsions:
REMARK  status: ('A' for Active; 'I' for Inactive)
REMARK    1  A    between atoms: N_1  and  CA_2
REMARK    2  A    between atoms: CA_2  and  C_4
REMARK    3  A    between atoms: CA_2  and  C_22
REMARK    4  A    between atoms: N_6  and  CA_7
REMARK    5  A    between atoms: CA_15  and  C_19
REMARK    6  A    between atoms: C_19  and  O_20
REMARK                            x       y       z     vdW  Elec       q    Type
REMARK                         _______ _______ _______ _____ _____    ______ ____
ROOT
ATOM      1  C   UNL     1       8.149  -2.553  23.099  0.00  0.00    +0.235 C 
ATOM      2  N   UNL     1       8.132  -3.234  24.295  0.00  0.00    -0.301 N 
ATOM      3  H   UNL     1       8.963  -3.223  24.874  0.00  0.00    +0.150 HD
ATOM      4  O   UNL     1       7.171  -2.594  22.346  0.00  0.00    -0.274 OA
ENDROOT
BRANCH   2   5
ATOM      5  CA  UNL     1       7.011  -4.129  24.661  0.00  0.00    +0.180 C 
ATOM      6  C   UNL     1       7.293  -5.080  25.864  0.00  0.00    +0.242 C 
ATOM      7  O   UNL     1       8.074  -5.951  26.154  0.00  0.00    -0.273 OA
ATOM      8  N   UNL     1       6.202  -4.630  26.509  0.00  0.00    -0.258 N 
ATOM      9  CA  UNL     1       5.341  -5.095  27.471  0.00  0.00    +0.136 C 
ATOM     10  C   UNL     1       4.077  -4.607  27.459  0.00  0.00    +0.047 C 
ATOM     11 CL   UNL     1       2.806  -5.066  28.548  0.00  0.00    -0.086 Cl
ATOM     12  C   UNL     1       3.583  -3.625  26.411  0.00  0.00    +0.051 C 
ATOM     13  C   UNL     1       4.453  -3.610  25.153  0.00  0.00    +0.031 C 
ATOM     14  C   UNL     1       5.900  -3.535  25.584  0.00  0.00    +0.111 C 
BRANCH   9  15
ATOM     15  C   UNL     1       5.776  -6.135  28.481  0.00  0.00    +0.352 C 
ATOM     16  OXT UNL     1       6.470  -5.902  29.462  0.00  0.00    -0.244 OA
BRANCH  15  17
ATOM     17  O   UNL     1       5.415  -7.410  28.226  0.00  0.00    -0.476 OA
ATOM     18  H   UNL     1       4.485  -7.577  27.965  0.00  0.00    +0.295 HD
ENDBRANCH  15  17
ENDBRANCH   9  15
ENDBRANCH   2   5
BRANCH   1  19
ATOM     19  CA  UNL     1       9.477  -1.874  22.662  0.00  0.00    +0.168 C 
BRANCH  19  20
ATOM     20  C   UNL     1       9.610  -0.380  22.925  0.00  0.00    -0.022 A 
ATOM     21  C   UNL     1       9.725   0.151  24.223  0.00  0.00    +0.005 A 
ATOM     22  C   UNL     1       9.922   1.518  24.425  0.00  0.00    +0.000 A 
ATOM     23  C   UNL     1      10.036   2.375  23.334  0.00  0.00    +0.000 A 
ATOM     24  C   UNL     1       9.926   1.870  22.041  0.00  0.00    +0.000 A 
ATOM     25  C   UNL     1       9.703   0.505  21.838  0.00  0.00    +0.005 A 
ENDBRANCH  19  20
BRANCH  19  26
ATOM     26  N   UNL     1      10.612  -2.613  23.251  0.00  0.00    -0.316 NA
ATOM     27  H1  UNL     1      10.275  -3.273  23.946  0.00  0.00    +0.119 HD
ATOM     28  H2  UNL     1      11.043  -3.170  22.512  0.00  0.00    +0.119 HD
ENDBRANCH  19  26
ENDBRANCH   1  19
TORSDOF 6
ENDMDL
MODEL 8
REMARK VINA RESULT:      -6.7      3.288      7.527
REMARK  Name = 
REMARK  6 active torsions:
REMARK  status: ('A' for Active; 'I' for Inactive)
REMARK    1  A    between atoms: N_1  and  CA_2
REMARK    2  A    between atoms: CA_2  and  C_4
REMARK    3  A    between atoms: CA_2  and  C_22
REMARK    4  A    between atoms: N_6  and  CA_7
REMARK    5  A    between atoms: CA_15  and  C_19
REMARK    6  A    between atoms: C_19  and  O_20
REMARK                            x       y       z     vdW  Elec       q    Type
REMARK                         _______ _______ _______ _____ _____    ______ ____
ROOT
ATOM      1  C   UNL     1       7.861  -3.345  25.796  0.00  0.00    +0.235 C 
ATOM      2  N   UNL     1       8.558  -2.533  24.931  0.00  0.00    -0.301 N 
ATOM      3  H   UNL     1       8.883  -2.921  24.054  0.00  0.00    +0.150 HD
ATOM      4  O   UNL     1       7.499  -2.916  26.896  0.00  0.00    -0.274 OA
ENDROOT
BRANCH   2   5
ATOM      5  CA  UNL     1       9.005  -1.178  25.329  0.00  0.00    +0.180 C 
ATOM      6  C   UNL     1       9.897  -0.445  24.282  0.00  0.00    +0.242 C 
ATOM      7  O   UNL     1      10.950  -0.620  23.722  0.00  0.00    -0.273 OA
ATOM      8  N   UNL     1       9.065   0.611  24.274  0.00  0.00    -0.258 N 
ATOM      9  CA  UNL     1       9.145   1.950  23.984  0.00  0.00    +0.136 C 
ATOM     10  C   UNL     1       8.272   2.774  24.614  0.00  0.00    +0.047 C 
ATOM     11 CL   UNL     1       8.202   4.499  24.437  0.00  0.00    -0.086 Cl
ATOM     12  C   UNL     1       7.268   2.279  25.642  0.00  0.00    +0.051 C 
ATOM     13  C   UNL     1       7.638   0.915  26.226  0.00  0.00    +0.031 C 
ATOM     14  C   UNL     1       8.008  -0.001  25.082  0.00  0.00    +0.111 C 
BRANCH   9  15
ATOM     15  C   UNL     1      10.186   2.489  23.027  0.00  0.00    +0.352 C 
ATOM     16  OXT UNL     1      11.167   3.139  23.363  0.00  0.00    -0.244 OA
BRANCH  15  17
ATOM     17  O   UNL     1       9.961   2.282  21.712  0.00  0.00    -0.476 OA
ATOM     18  H   UNL     1      10.713   2.406  21.095  0.00  0.00    +0.295 HD
ENDBRANCH  15  17
ENDBRANCH   9  15
ENDBRANCH   2   5
BRANCH   1  19
ATOM     19  CA  UNL     1       7.686  -4.841  25.416  0.00  0.00    +0.168 C 
BRANCH  19  20
ATOM     20  C   UNL     1       7.059  -5.143  24.062  0.00  0.00    -0.022 A 
ATOM     21  C   UNL     1       7.813  -5.600  22.965  0.00  0.00    +0.005 A 
ATOM     22  C   UNL     1       7.195  -5.940  21.760  0.00  0.00    +0.000 A 
ATOM     23  C   UNL     1       5.811  -5.858  21.639  0.00  0.00    +0.000 A 
ATOM     24  C   UNL     1       5.046  -5.409  22.712  0.00  0.00    +0.000 A 
ATOM     25  C   UNL     1       5.665  -5.042  23.911  0.00  0.00    +0.005 A 
ENDBRANCH  19  20
BRANCH  19  26
ATOM     26  N   UNL     1       8.985  -5.529  25.557  0.00  0.00    -0.316 NA
ATOM     27  H1  UNL     1       8.918  -6.258  26.262  0.00  0.00    +0.119 HD
ATOM     28  H2  UNL     1       9.190  -6.001  24.675  0.00  0.00    +0.119 HD
ENDBRANCH  19  26
ENDBRANCH   1  19
TORSDOF 6
ENDMDL
MODEL 9
REMARK VINA RESULT:      -6.5      3.916      6.184
REMARK  Name = 
REMARK  6 active torsions:
REMARK  status: ('A' for Active; 'I' for Inactive)
REMARK    1  A    between atoms: N_1  and  CA_2
REMARK    2  A    between atoms: CA_2  and  C_4
REMARK    3  A    between atoms: CA_2  and  C_22
REMARK    4  A    between atoms: N_6  and  CA_7
REMARK    5  A    between atoms: CA_15  and  C_19
REMARK    6  A    between atoms: C_19  and  O_20
REMARK                            x       y       z     vdW  Elec       q    Type
REMARK                         _______ _______ _______ _____ _____    ______ ____
ROOT
ATOM      1  C   UNL     1       7.514   4.613  23.828  0.00  0.00    +0.235 C 
ATOM      2  N   UNL     1       8.353   3.564  24.127  0.00  0.00    -0.301 N 
ATOM      3  H   UNL     1       9.352   3.732  24.154  0.00  0.00    +0.150 HD
ATOM      4  O   UNL     1       6.297   4.428  23.734  0.00  0.00    -0.274 OA
ENDROOT
BRANCH   2   5
ATOM      5  CA  UNL     1       7.853   2.174  24.220  0.00  0.00    +0.180 C 
ATOM      6  C   UNL     1       8.084   1.304  22.947  0.00  0.00    +0.242 C 
ATOM      7  O   UNL     1       7.785   1.327  21.780  0.00  0.00    -0.273 OA
ATOM      8  N   UNL     1       8.719   0.365  23.671  0.00  0.00    -0.258 N 
ATOM      9  CA  UNL     1       8.972  -0.979  23.570  0.00  0.00    +0.136 C 
ATOM     10  C   UNL     1       9.144  -1.666  24.726  0.00  0.00    +0.047 C 
ATOM     11 CL   UNL     1       9.441  -3.371  24.854  0.00  0.00    -0.086 Cl
ATOM     12  C   UNL     1       9.018  -1.020  26.095  0.00  0.00    +0.051 C 
ATOM     13  C   UNL     1       8.244   0.299  26.060  0.00  0.00    +0.031 C 
ATOM     14  C   UNL     1       8.782   1.130  24.919  0.00  0.00    +0.111 C 
BRANCH   9  15
ATOM     15  C   UNL     1       9.024  -1.673  22.226  0.00  0.00    +0.352 C 
ATOM     16  OXT UNL     1       8.154  -2.419  21.796  0.00  0.00    -0.244 OA
BRANCH  15  17
ATOM     17  O   UNL     1      10.146  -1.493  21.498  0.00  0.00    -0.476 OA
ATOM     18  H   UNL     1      10.339  -0.589  21.172  0.00  0.00    +0.295 HD
ENDBRANCH  15  17
ENDBRANCH   9  15
ENDBRANCH   2   5
BRANCH   1  19
ATOM     19  CA  UNL     1       8.153   5.981  23.463  0.00  0.00    +0.168 C 
BRANCH  19  20
ATOM     20  C   UNL     1       9.519   6.290  24.061  0.00  0.00    -0.022 A 
ATOM     21  C   UNL     1       9.671   6.908  25.317  0.00  0.00    +0.005 A 
ATOM     22  C   UNL     1      10.937   7.108  25.870  0.00  0.00    +0.000 A 
ATOM     23  C   UNL     1      12.071   6.669  25.194  0.00  0.00    +0.000 A 
ATOM     24  C   UNL     1      11.943   6.054  23.950  0.00  0.00    +0.000 A 
ATOM     25  C   UNL     1      10.678   5.877  23.383  0.00  0.00    +0.005 A 
ENDBRANCH  19  20
BRANCH  19  26
ATOM     26  N   UNL     1       8.181   6.123  21.993  0.00  0.00    -0.316 NA
ATOM     27  H1  UNL     1       7.862   5.263  21.555  0.00  0.00    +0.119 HD
ATOM     28  H2  UNL     1       7.507   6.844  21.732  0.00  0.00    +0.119 HD
ENDBRANCH  19  26
ENDBRANCH   1  19
TORSDOF 6
ENDMDL
