MODEL 1
REMARK VINA RESULT:      -5.0      0.000      0.000
REMARK  Name = 
REMARK  18 active torsions:
REMARK  status: ('A' for Active; 'I' for Inactive)
REMARK    1  A    between atoms: C_2  and  C_3
REMARK    2  A    between atoms: C_2  and  C_5
REMARK    3  A    between atoms: C_2  and  O_17
REMARK    4  A    between atoms: C_3  and  O_4
REMARK    5  A    between atoms: C_5  and  O_6
REMARK    6  A    between atoms: O_6  and  C_7
REMARK    7  A    between atoms: C_7  and  C_9
REMARK    8  A    between atoms: C_9  and  C_10
REMARK    9  A    between atoms: C_10  and  C_11
REMARK   10  A    between atoms: C_11  and  C_12
REMARK   11  A    between atoms: C_12  and  C_13
REMARK   12  A    between atoms: C_13  and  C_14
REMARK   13  A    between atoms: C_14  and  C_15
REMARK   14  A    between atoms: C_15  and  C_16
REMARK   15  A    between atoms: O_17  and  C_18
REMARK   16  A    between atoms: C_18  and  C_20
REMARK   17  A    between atoms: C_20  and  C_21
REMARK   18  A    between atoms: C_21  and  C_22
REMARK                            x       y       z     vdW  Elec       q    Type
REMARK                         _______ _______ _______ _____ _____    ______ ____
ROOT
ATOM      1  C   UNL     1       7.658  -3.027  25.368  0.00  0.00    +0.279 C 
ENDROOT
BRANCH   1   2
ATOM      2  O   UNL     1       7.720  -2.943  23.934  0.00  0.00    -0.461 OA
BRANCH   2   3
ATOM      3  C   UNL     1       8.951  -2.688  23.406  0.00  0.00    +0.307 C 
ATOM      4  O   UNL     1      10.019  -3.058  23.871  0.00  0.00    -0.251 OA
BRANCH   3   5
ATOM      5  C   UNL     1       8.815  -1.895  22.129  0.00  0.00    +0.120 C 
BRANCH   5   6
ATOM      6  C   UNL     1       9.878  -0.814  22.039  0.00  0.00    +0.011 C 
BRANCH   6   7
ATOM      7  C   UNL     1       9.306   0.475  21.443  0.00  0.00    +0.001 C 
BRANCH   7   8
ATOM      8  C   UNL     1      10.009   1.695  22.037  0.00  0.00    +0.000 C 
BRANCH   8   9
ATOM      9  C   UNL     1      10.362   1.488  23.511  0.00  0.00    -0.000 C 
BRANCH   9  10
ATOM     10  C   UNL     1       9.239   2.008  24.409  0.00  0.00    -0.000 C 
BRANCH  10  11
ATOM     11  C   UNL     1       8.544   0.872  25.155  0.00  0.00    -0.003 C 
ATOM     12  C   UNL     1       9.554  -0.074  25.784  0.00  0.00    +0.004 C 
ENDBRANCH  10  11
ENDBRANCH   9  10
ENDBRANCH   8   9
ENDBRANCH   7   8
ENDBRANCH   6   7
ENDBRANCH   5   6
ENDBRANCH   3   5
ENDBRANCH   2   3
ENDBRANCH   1   2
BRANCH   1  13
ATOM     13  C   UNL     1       7.224  -4.406  25.881  0.00  0.00    +0.239 C 
BRANCH  13  14
ATOM     14  O   UNL     1       7.019  -5.328  24.795  0.00  0.00    -0.456 OA
BRANCH  14  15
ATOM     15  C   UNL     1       5.767  -5.857  24.715  0.00  0.00    +0.308 C 
ATOM     16  O   UNL     1       5.080  -6.181  25.675  0.00  0.00    -0.251 OA
BRANCH  15  17
ATOM     17  C   UNL     1       5.355  -6.046  23.278  0.00  0.00    +0.120 C 
BRANCH  17  18
ATOM     18  C   UNL     1       6.551  -6.069  22.330  0.00  0.00    +0.008 C 
ATOM     19  C   UNL     1       6.201  -5.595  20.924  0.00  0.00    +0.004 C 
ENDBRANCH  17  18
ENDBRANCH  15  17
ENDBRANCH  14  15
ENDBRANCH  13  14
BRANCH  13  20
ATOM     20  C   UNL     1       8.233  -5.032  26.850  0.00  0.00    +0.203 C 
BRANCH  20  21
ATOM     21  O   UNL     1       7.613  -5.963  27.733  0.00  0.00    -0.391 OA
ATOM     22  H   UNL     1       7.311  -5.476  28.519  0.00  0.00    +0.210 HD
ENDBRANCH  20  21
ENDBRANCH  13  20
ENDBRANCH   1  13
TORSDOF 16
ENDMDL
MODEL 2
REMARK VINA RESULT:      -4.8      1.222      1.897
REMARK  Name = 
REMARK  18 active torsions:
REMARK  status: ('A' for Active; 'I' for Inactive)
REMARK    1  A    between atoms: C_2  and  C_3
REMARK    2  A    between atoms: C_2  and  C_5
REMARK    3  A    between atoms: C_2  and  O_17
REMARK    4  A    between atoms: C_3  and  O_4
REMARK    5  A    between atoms: C_5  and  O_6
REMARK    6  A    between atoms: O_6  and  C_7
REMARK    7  A    between atoms: C_7  and  C_9
REMARK    8  A    between atoms: C_9  and  C_10
REMARK    9  A    between atoms: C_10  and  C_11
REMARK   10  A    between atoms: C_11  and  C_12
REMARK   11  A    between atoms: C_12  and  C_13
REMARK   12  A    between atoms: C_13  and  C_14
REMARK   13  A    between atoms: C_14  and  C_15
REMARK   14  A    between atoms: C_15  and  C_16
REMARK   15  A    between atoms: O_17  and  C_18
REMARK   16  A    between atoms: C_18  and  C_20
REMARK   17  A    between atoms: C_20  and  C_21
REMARK   18  A    between atoms: C_21  and  C_22
REMARK                            x       y       z     vdW  Elec       q    Type
REMARK                         _______ _______ _______ _____ _____    ______ ____
ROOT
ATOM      1  C   UNL     1       7.253  -3.530  26.475  0.00  0.00    +0.279 C 
ENDROOT
BRANCH   1   2
ATOM      2  O   UNL     1       8.626  -3.946  26.398  0.00  0.00    -0.461 OA
BRANCH   2   3
ATOM      3  C   UNL     1       9.249  -3.724  25.206  0.00  0.00    +0.307 C 
ATOM      4  O   UNL     1       9.967  -4.518  24.615  0.00  0.00    -0.251 OA
BRANCH   3   5
ATOM      5  C   UNL     1       8.906  -2.349  24.688  0.00  0.00    +0.120 C 
BRANCH   5   6
ATOM      6  C   UNL     1       8.922  -2.314  23.169  0.00  0.00    +0.011 C 
BRANCH   6   7
ATOM      7  C   UNL     1      10.169  -1.600  22.645  0.00  0.00    +0.001 C 
BRANCH   7   8
ATOM      8  C   UNL     1       9.796  -0.623  21.530  0.00  0.00    +0.000 C 
BRANCH   8   9
ATOM      9  C   UNL     1       8.815   0.447  22.015  0.00  0.00    -0.000 C 
BRANCH   9  10
ATOM     10  C   UNL     1       9.485   1.821  22.028  0.00  0.00    -0.000 C 
BRANCH  10  11
ATOM     11  C   UNL     1      10.323   2.025  23.287  0.00  0.00    -0.003 C 
ATOM     12  C   UNL     1       9.550   1.630  24.535  0.00  0.00    +0.004 C 
ENDBRANCH  10  11
ENDBRANCH   9  10
ENDBRANCH   8   9
ENDBRANCH   7   8
ENDBRANCH   6   7
ENDBRANCH   5   6
ENDBRANCH   3   5
ENDBRANCH   2   3
ENDBRANCH   1   2
BRANCH   1  13
ATOM     13  C   UNL     1       6.263  -4.700  26.559  0.00  0.00    +0.239 C 
BRANCH  13  14
ATOM     14  O   UNL     1       6.512  -5.671  25.527  0.00  0.00    -0.456 OA
BRANCH  14  15
ATOM     15  C   UNL     1       5.453  -5.931  24.711  0.00  0.00    +0.308 C 
ATOM     16  O   UNL     1       4.659  -6.850  24.863  0.00  0.00    -0.251 OA
BRANCH  15  17
ATOM     17  C   UNL     1       5.418  -4.966  23.554  0.00  0.00    +0.120 C 
BRANCH  17  18
ATOM     18  C   UNL     1       6.657  -5.076  22.669  0.00  0.00    +0.008 C 
ATOM     19  C   UNL     1       6.406  -5.877  21.397  0.00  0.00    +0.004 C 
ENDBRANCH  17  18
ENDBRANCH  15  17
ENDBRANCH  14  15
ENDBRANCH  13  14
BRANCH  13  20
ATOM     20  C   UNL     1       6.301  -5.423  27.909  0.00  0.00    +0.203 C 
BRANCH  20  21
ATOM     21  O   UNL     1       7.469  -6.229  28.046  0.00  0.00    -0.391 OA
ATOM     22  H   UNL     1       7.639  -6.660  27.190  0.00  0.00    +0.210 HD
ENDBRANCH  20  21
ENDBRANCH  13  20
ENDBRANCH   1  13
TORSDOF 16
ENDMDL
MODEL 3
REMARK VINA RESULT:      -4.8      1.593      2.239
REMARK  Name = 
REMARK  18 active torsions:
REMARK  status: ('A' for Active; 'I' for Inactive)
REMARK    1  A    between atoms: C_2  and  C_3
REMARK    2  A    between atoms: C_2  and  C_5
REMARK    3  A    between atoms: C_2  and  O_17
REMARK    4  A    between atoms: C_3  and  O_4
REMARK    5  A    between atoms: C_5  and  O_6
REMARK    6  A    between atoms: O_6  and  C_7
REMARK    7  A    between atoms: C_7  and  C_9
REMARK    8  A    between atoms: C_9  and  C_10
REMARK    9  A    between atoms: C_10  and  C_11
REMARK   10  A    between atoms: C_11  and  C_12
REMARK   11  A    between atoms: C_12  and  C_13
REMARK   12  A    between atoms: C_13  and  C_14
REMARK   13  A    between atoms: C_14  and  C_15
REMARK   14  A    between atoms: C_15  and  C_16
REMARK   15  A    between atoms: O_17  and  C_18
REMARK   16  A    between atoms: C_18  and  C_20
REMARK   17  A    between atoms: C_20  and  C_21
REMARK   18  A    between atoms: C_21  and  C_22
REMARK                            x       y       z     vdW  Elec       q    Type
REMARK                         _______ _______ _______ _____ _____    ______ ____
ROOT
ATOM      1  C   UNL     1       7.874  -3.598  25.273  0.00  0.00    +0.279 C 
ENDROOT
BRANCH   1   2
ATOM      2  O   UNL     1       8.676  -3.242  24.135  0.00  0.00    -0.461 OA
BRANCH   2   3
ATOM      3  C   UNL     1       8.014  -3.150  22.947  0.00  0.00    +0.307 C 
ATOM      4  O   UNL     1       7.503  -4.079  22.339  0.00  0.00    -0.251 OA
BRANCH   3   5
ATOM      5  C   UNL     1       7.971  -1.714  22.485  0.00  0.00    +0.120 C 
BRANCH   5   6
ATOM      6  C   UNL     1       9.302  -1.289  21.887  0.00  0.00    +0.011 C 
BRANCH   6   7
ATOM      7  C   UNL     1       9.197   0.087  21.226  0.00  0.00    +0.001 C 
BRANCH   7   8
ATOM      8  C   UNL     1      10.034   1.111  21.991  0.00  0.00    +0.000 C 
BRANCH   8   9
ATOM      9  C   UNL     1       9.159   2.096  22.769  0.00  0.00    -0.000 C 
BRANCH   9  10
ATOM     10  C   UNL     1       9.537   2.094  24.250  0.00  0.00    -0.000 C 
BRANCH  10  11
ATOM     11  C   UNL     1      10.464   0.931  24.591  0.00  0.00    -0.003 C 
ATOM     12  C   UNL     1       9.746  -0.121  25.421  0.00  0.00    +0.004 C 
ENDBRANCH  10  11
ENDBRANCH   9  10
ENDBRANCH   8   9
ENDBRANCH   7   8
ENDBRANCH   6   7
ENDBRANCH   5   6
ENDBRANCH   3   5
ENDBRANCH   2   3
ENDBRANCH   1   2
BRANCH   1  13
ATOM     13  C   UNL     1       8.555  -4.604  26.211  0.00  0.00    +0.239 C 
BRANCH  13  14
ATOM     14  O   UNL     1       7.742  -5.777  26.401  0.00  0.00    -0.456 OA
BRANCH  14  15
ATOM     15  C   UNL     1       6.631  -5.591  27.167  0.00  0.00    +0.308 C 
ATOM     16  O   UNL     1       6.624  -5.085  28.281  0.00  0.00    -0.251 OA
BRANCH  15  17
ATOM     17  C   UNL     1       5.409  -6.146  26.482  0.00  0.00    +0.120 C 
BRANCH  17  18
ATOM     18  C   UNL     1       4.535  -5.051  25.877  0.00  0.00    +0.008 C 
ATOM     19  C   UNL     1       4.539  -5.065  24.353  0.00  0.00    +0.004 C 
ENDBRANCH  17  18
ENDBRANCH  15  17
ENDBRANCH  14  15
ENDBRANCH  13  14
BRANCH  13  20
ATOM     20  C   UNL     1       9.930  -5.057  25.709  0.00  0.00    +0.203 C 
BRANCH  20  21
ATOM     21  O   UNL     1       9.824  -5.921  24.580  0.00  0.00    -0.391 OA
ATOM     22  H   UNL     1       9.146  -6.591  24.776  0.00  0.00    +0.210 HD
ENDBRANCH  20  21
ENDBRANCH  13  20
ENDBRANCH   1  13
TORSDOF 16
ENDMDL
MODEL 4
REMARK VINA RESULT:      -4.8      1.747      3.734
REMARK  Name = 
REMARK  18 active torsions:
REMARK  status: ('A' for Active; 'I' for Inactive)
REMARK    1  A    between atoms: C_2  and  C_3
REMARK    2  A    between atoms: C_2  and  C_5
REMARK    3  A    between atoms: C_2  and  O_17
REMARK    4  A    between atoms: C_3  and  O_4
REMARK    5  A    between atoms: C_5  and  O_6
REMARK    6  A    between atoms: O_6  and  C_7
REMARK    7  A    between atoms: C_7  and  C_9
REMARK    8  A    between atoms: C_9  and  C_10
REMARK    9  A    between atoms: C_10  and  C_11
REMARK   10  A    between atoms: C_11  and  C_12
REMARK   11  A    between atoms: C_12  and  C_13
REMARK   12  A    between atoms: C_13  and  C_14
REMARK   13  A    between atoms: C_14  and  C_15
REMARK   14  A    between atoms: C_15  and  C_16
REMARK   15  A    between atoms: O_17  and  C_18
REMARK   16  A    between atoms: C_18  and  C_20
REMARK   17  A    between atoms: C_20  and  C_21
REMARK   18  A    between atoms: C_21  and  C_22
REMARK                            x       y       z     vdW  Elec       q    Type
REMARK                         _______ _______ _______ _____ _____    ______ ____
ROOT
ATOM      1  C   UNL     1       6.969  -3.306  22.204  0.00  0.00    +0.279 C 
ENDROOT
BRANCH   1   2
ATOM      2  O   UNL     1       8.015  -2.341  22.406  0.00  0.00    -0.461 OA
BRANCH   2   3
ATOM      3  C   UNL     1       7.914  -1.581  23.534  0.00  0.00    +0.307 C 
ATOM      4  O   UNL     1       6.889  -1.071  23.962  0.00  0.00    -0.251 OA
BRANCH   3   5
ATOM      5  C   UNL     1       9.257  -1.477  24.213  0.00  0.00    +0.120 C 
BRANCH   5   6
ATOM      6  C   UNL     1       9.203  -0.523  25.394  0.00  0.00    +0.011 C 
BRANCH   6   7
ATOM      7  C   UNL     1       9.524   0.910  24.963  0.00  0.00    +0.001 C 
BRANCH   7   8
ATOM      8  C   UNL     1      10.608   0.914  23.887  0.00  0.00    +0.000 C 
BRANCH   8   9
ATOM      9  C   UNL     1      10.294   1.906  22.765  0.00  0.00    -0.000 C 
BRANCH   9  10
ATOM     10  C   UNL     1       9.521   1.216  21.641  0.00  0.00    -0.000 C 
BRANCH  10  11
ATOM     11  C   UNL     1       8.061   1.662  21.608  0.00  0.00    -0.003 C 
ATOM     12  C   UNL     1       7.884   3.020  22.267  0.00  0.00    +0.004 C 
ENDBRANCH  10  11
ENDBRANCH   9  10
ENDBRANCH   8   9
ENDBRANCH   7   8
ENDBRANCH   6   7
ENDBRANCH   5   6
ENDBRANCH   3   5
ENDBRANCH   2   3
ENDBRANCH   1   2
BRANCH   1  13
ATOM     13  C   UNL     1       7.418  -4.753  22.444  0.00  0.00    +0.239 C 
BRANCH  13  14
ATOM     14  O   UNL     1       7.093  -5.187  23.778  0.00  0.00    -0.456 OA
BRANCH  14  15
ATOM     15  C   UNL     1       8.124  -5.144  24.667  0.00  0.00    +0.308 C 
ATOM     16  O   UNL     1       9.307  -5.069  24.365  0.00  0.00    -0.251 OA
BRANCH  15  17
ATOM     17  C   UNL     1       7.617  -5.260  26.081  0.00  0.00    +0.120 C 
BRANCH  17  18
ATOM     18  C   UNL     1       7.518  -3.903  26.775  0.00  0.00    +0.008 C 
ATOM     19  C   UNL     1       6.159  -3.240  26.585  0.00  0.00    +0.004 C 
ENDBRANCH  17  18
ENDBRANCH  15  17
ENDBRANCH  14  15
ENDBRANCH  13  14
BRANCH  13  20
ATOM     20  C   UNL     1       6.797  -5.747  21.458  0.00  0.00    +0.203 C 
BRANCH  20  21
ATOM     21  O   UNL     1       6.062  -6.769  22.127  0.00  0.00    -0.391 OA
ATOM     22  H   UNL     1       6.642  -7.165  22.800  0.00  0.00    +0.210 HD
ENDBRANCH  20  21
ENDBRANCH  13  20
ENDBRANCH   1  13
TORSDOF 16
ENDMDL
MODEL 5
REMARK VINA RESULT:      -4.7      1.381      2.020
REMARK  Name = 
REMARK  18 active torsions:
REMARK  status: ('A' for Active; 'I' for Inactive)
REMARK    1  A    between atoms: C_2  and  C_3
REMARK    2  A    between atoms: C_2  and  C_5
REMARK    3  A    between atoms: C_2  and  O_17
REMARK    4  A    between atoms: C_3  and  O_4
REMARK    5  A    between atoms: C_5  and  O_6
REMARK    6  A    between atoms: O_6  and  C_7
REMARK    7  A    between atoms: C_7  and  C_9
REMARK    8  A    between atoms: C_9  and  C_10
REMARK    9  A    between atoms: C_10  and  C_11
REMARK   10  A    between atoms: C_11  and  C_12
REMARK   11  A    between atoms: C_12  and  C_13
REMARK   12  A    between atoms: C_13  and  C_14
REMARK   13  A    between atoms: C_14  and  C_15
REMARK   14  A    between atoms: C_15  and  C_16
REMARK   15  A    between atoms: O_17  and  C_18
REMARK   16  A    between atoms: C_18  and  C_20
REMARK   17  A    between atoms: C_20  and  C_21
REMARK   18  A    between atoms: C_21  and  C_22
REMARK                            x       y       z     vdW  Elec       q    Type
REMARK                         _______ _______ _______ _____ _____    ______ ____
ROOT
ATOM      1  C   UNL     1       6.857  -3.126  25.513  0.00  0.00    +0.279 C 
ENDROOT
BRANCH   1   2
ATOM      2  O   UNL     1       7.665  -2.992  24.332  0.00  0.00    -0.461 OA
BRANCH   2   3
ATOM      3  C   UNL     1       9.006  -2.861  24.541  0.00  0.00    +0.307 C 
ATOM      4  O   UNL     1       9.842  -3.741  24.395  0.00  0.00    -0.251 OA
BRANCH   3   5
ATOM      5  C   UNL     1       9.332  -1.448  24.960  0.00  0.00    +0.120 C 
BRANCH   5   6
ATOM      6  C   UNL     1      10.179  -0.746  23.912  0.00  0.00    +0.011 C 
BRANCH   6   7
ATOM      7  C   UNL     1      10.560   0.665  24.364  0.00  0.00    +0.001 C 
BRANCH   7   8
ATOM      8  C   UNL     1      10.208   1.685  23.282  0.00  0.00    +0.000 C 
BRANCH   8   9
ATOM      9  C   UNL     1       9.840   1.009  21.960  0.00  0.00    -0.000 C 
BRANCH   9  10
ATOM     10  C   UNL     1       8.515   1.556  21.430  0.00  0.00    -0.000 C 
BRANCH  10  11
ATOM     11  C   UNL     1       7.371   1.306  22.410  0.00  0.00    -0.003 C 
ATOM     12  C   UNL     1       6.469   2.524  22.527  0.00  0.00    +0.004 C 
ENDBRANCH  10  11
ENDBRANCH   9  10
ENDBRANCH   8   9
ENDBRANCH   7   8
ENDBRANCH   6   7
ENDBRANCH   5   6
ENDBRANCH   3   5
ENDBRANCH   2   3
ENDBRANCH   1   2
BRANCH   1  13
ATOM     13  C   UNL     1       6.449  -4.574  25.813  0.00  0.00    +0.239 C 
BRANCH  13  14
ATOM     14  O   UNL     1       6.504  -5.390  24.628  0.00  0.00    -0.456 OA
BRANCH  14  15
ATOM     15  C   UNL     1       5.304  -5.876  24.206  0.00  0.00    +0.308 C 
ATOM     16  O   UNL     1       4.741  -6.858  24.671  0.00  0.00    -0.251 OA
BRANCH  15  17
ATOM     17  C   UNL     1       4.780  -5.073  23.043  0.00  0.00    +0.120 C 
BRANCH  17  18
ATOM     18  C   UNL     1       5.876  -4.721  22.039  0.00  0.00    +0.008 C 
ATOM     19  C   UNL     1       6.183  -5.860  21.075  0.00  0.00    +0.004 C 
ENDBRANCH  17  18
ENDBRANCH  15  17
ENDBRANCH  14  15
ENDBRANCH  13  14
BRANCH  13  20
ATOM     20  C   UNL     1       7.322  -5.235  26.885  0.00  0.00    +0.203 C 
BRANCH  20  21
ATOM     21  O   UNL     1       8.496  -5.819  26.325  0.00  0.00    -0.391 OA
ATOM     22  H   UNL     1       8.254  -6.224  25.474  0.00  0.00    +0.210 HD
ENDBRANCH  20  21
ENDBRANCH  13  20
ENDBRANCH   1  13
TORSDOF 16
ENDMDL
MODEL 6
REMARK VINA RESULT:      -4.7      1.710      6.515
REMARK  Name = 
REMARK  18 active torsions:
REMARK  status: ('A' for Active; 'I' for Inactive)
REMARK    1  A    between atoms: C_2  and  C_3
REMARK    2  A    between atoms: C_2  and  C_5
REMARK    3  A    between atoms: C_2  and  O_17
REMARK    4  A    between atoms: C_3  and  O_4
REMARK    5  A    between atoms: C_5  and  O_6
REMARK    6  A    between atoms: O_6  and  C_7
REMARK    7  A    between atoms: C_7  and  C_9
REMARK    8  A    between atoms: C_9  and  C_10
REMARK    9  A    between atoms: C_10  and  C_11
REMARK   10  A    between atoms: C_11  and  C_12
REMARK   11  A    between atoms: C_12  and  C_13
REMARK   12  A    between atoms: C_13  and  C_14
REMARK   13  A    between atoms: C_14  and  C_15
REMARK   14  A    between atoms: C_15  and  C_16
REMARK   15  A    between atoms: O_17  and  C_18
REMARK   16  A    between atoms: C_18  and  C_20
REMARK   17  A    between atoms: C_20  and  C_21
REMARK   18  A    between atoms: C_21  and  C_22
REMARK                            x       y       z     vdW  Elec       q    Type
REMARK                         _______ _______ _______ _____ _____    ______ ____
ROOT
ATOM      1  C   UNL     1       8.808  -2.179  25.828  0.00  0.00    +0.279 C 
ENDROOT
BRANCH   1   2
ATOM      2  O   UNL     1       8.089  -3.243  25.182  0.00  0.00    -0.461 OA
BRANCH   2   3
ATOM      3  C   UNL     1       8.682  -4.470  25.220  0.00  0.00    +0.307 C 
ATOM      4  O   UNL     1       9.738  -4.771  24.685  0.00  0.00    -0.251 OA
BRANCH   3   5
ATOM      5  C   UNL     1       7.857  -5.420  26.053  0.00  0.00    +0.120 C 
BRANCH   5   6
ATOM      6  C   UNL     1       6.403  -4.981  26.109  0.00  0.00    +0.011 C 
BRANCH   6   7
ATOM      7  C   UNL     1       5.506  -5.933  25.315  0.00  0.00    +0.001 C 
BRANCH   7   8
ATOM      8  C   UNL     1       4.478  -5.145  24.504  0.00  0.00    +0.000 C 
BRANCH   8   9
ATOM      9  C   UNL     1       4.657  -5.355  22.999  0.00  0.00    -0.000 C 
BRANCH   9  10
ATOM     10  C   UNL     1       5.905  -6.193  22.720  0.00  0.00    -0.000 C 
BRANCH  10  11
ATOM     11  C   UNL     1       6.794  -5.541  21.663  0.00  0.00    -0.003 C 
ATOM     12  C   UNL     1       7.012  -4.066  21.959  0.00  0.00    +0.004 C 
ENDBRANCH  10  11
ENDBRANCH   9  10
ENDBRANCH   8   9
ENDBRANCH   7   8
ENDBRANCH   6   7
ENDBRANCH   5   6
ENDBRANCH   3   5
ENDBRANCH   2   3
ENDBRANCH   1   2
BRANCH   1  13
ATOM     13  C   UNL     1       9.180  -1.030  24.881  0.00  0.00    +0.239 C 
BRANCH  13  14
ATOM     14  O   UNL     1       8.723  -1.288  23.540  0.00  0.00    -0.456 OA
BRANCH  14  15
ATOM     15  C   UNL     1       9.708  -1.526  22.630  0.00  0.00    +0.308 C 
ATOM     16  O   UNL     1      10.674  -2.252  22.816  0.00  0.00    -0.251 OA
BRANCH  15  17
ATOM     17  C   UNL     1       9.479  -0.727  21.372  0.00  0.00    +0.120 C 
BRANCH  17  18
ATOM     18  C   UNL     1       8.915   0.662  21.661  0.00  0.00    +0.008 C 
ATOM     19  C   UNL     1      10.000   1.699  21.920  0.00  0.00    +0.004 C 
ENDBRANCH  17  18
ENDBRANCH  15  17
ENDBRANCH  14  15
ENDBRANCH  13  14
BRANCH  13  20
ATOM     20  C   UNL     1       8.612   0.322  25.323  0.00  0.00    +0.203 C 
BRANCH  20  21
ATOM     21  O   UNL     1       9.600   1.349  25.290  0.00  0.00    -0.391 OA
ATOM     22  H   UNL     1       9.266   2.070  24.728  0.00  0.00    +0.210 HD
ENDBRANCH  20  21
ENDBRANCH  13  20
ENDBRANCH   1  13
TORSDOF 16
ENDMDL
MODEL 7
REMARK VINA RESULT:      -4.7      1.872      2.773
REMARK  Name = 
REMARK  18 active torsions:
REMARK  status: ('A' for Active; 'I' for Inactive)
REMARK    1  A    between atoms: C_2  and  C_3
REMARK    2  A    between atoms: C_2  and  C_5
REMARK    3  A    between atoms: C_2  and  O_17
REMARK    4  A    between atoms: C_3  and  O_4
REMARK    5  A    between atoms: C_5  and  O_6
REMARK    6  A    between atoms: O_6  and  C_7
REMARK    7  A    between atoms: C_7  and  C_9
REMARK    8  A    between atoms: C_9  and  C_10
REMARK    9  A    between atoms: C_10  and  C_11
REMARK   10  A    between atoms: C_11  and  C_12
REMARK   11  A    between atoms: C_12  and  C_13
REMARK   12  A    between atoms: C_13  and  C_14
REMARK   13  A    between atoms: C_14  and  C_15
REMARK   14  A    between atoms: C_15  and  C_16
REMARK   15  A    between atoms: O_17  and  C_18
REMARK   16  A    between atoms: C_18  and  C_20
REMARK   17  A    between atoms: C_20  and  C_21
REMARK   18  A    between atoms: C_21  and  C_22
REMARK                            x       y       z     vdW  Elec       q    Type
REMARK                         _______ _______ _______ _____ _____    ______ ____
ROOT
ATOM      1  C   UNL     1       8.099  -3.083  22.910  0.00  0.00    +0.279 C 
ENDROOT
BRANCH   1   2
ATOM      2  O   UNL     1       8.407  -2.019  23.826  0.00  0.00    -0.461 OA
BRANCH   2   3
ATOM      3  C   UNL     1       9.649  -1.470  23.703  0.00  0.00    +0.307 C 
ATOM      4  O   UNL     1      10.497  -1.796  22.885  0.00  0.00    -0.251 OA
BRANCH   3   5
ATOM      5  C   UNL     1       9.832  -0.366  24.715  0.00  0.00    +0.120 C 
BRANCH   5   6
ATOM      6  C   UNL     1      10.867   0.643  24.246  0.00  0.00    +0.011 C 
BRANCH   6   7
ATOM      7  C   UNL     1      10.202   1.856  23.592  0.00  0.00    +0.001 C 
BRANCH   7   8
ATOM      8  C   UNL     1      10.154   1.685  22.075  0.00  0.00    +0.000 C 
BRANCH   8   9
ATOM      9  C   UNL     1       8.717   1.581  21.559  0.00  0.00    -0.000 C 
BRANCH   9  10
ATOM     10  C   UNL     1       7.817   2.590  22.272  0.00  0.00    -0.000 C 
BRANCH  10  11
ATOM     11  C   UNL     1       6.445   1.997  22.583  0.00  0.00    -0.003 C 
ATOM     12  C   UNL     1       6.514   1.031  23.755  0.00  0.00    +0.004 C 
ENDBRANCH  10  11
ENDBRANCH   9  10
ENDBRANCH   8   9
ENDBRANCH   7   8
ENDBRANCH   6   7
ENDBRANCH   5   6
ENDBRANCH   3   5
ENDBRANCH   2   3
ENDBRANCH   1   2
BRANCH   1  13
ATOM     13  C   UNL     1       7.601  -4.360  23.601  0.00  0.00    +0.239 C 
BRANCH  13  14
ATOM     14  O   UNL     1       7.326  -5.400  22.645  0.00  0.00    -0.456 OA
BRANCH  14  15
ATOM     15  C   UNL     1       6.104  -5.327  22.048  0.00  0.00    +0.308 C 
ATOM     16  O   UNL     1       5.914  -5.298  20.839  0.00  0.00    -0.251 OA
BRANCH  15  17
ATOM     17  C   UNL     1       5.008  -5.228  23.078  0.00  0.00    +0.120 C 
BRANCH  17  18
ATOM     18  C   UNL     1       4.763  -6.555  23.793  0.00  0.00    +0.008 C 
ATOM     19  C   UNL     1       4.914  -6.448  25.306  0.00  0.00    +0.004 C 
ENDBRANCH  17  18
ENDBRANCH  15  17
ENDBRANCH  14  15
ENDBRANCH  13  14
BRANCH  13  20
ATOM     20  C   UNL     1       8.592  -4.912  24.630  0.00  0.00    +0.203 C 
BRANCH  20  21
ATOM     21  O   UNL     1       8.583  -4.151  25.836  0.00  0.00    -0.391 OA
ATOM     22  H   UNL     1       9.294  -3.489  25.779  0.00  0.00    +0.210 HD
ENDBRANCH  20  21
ENDBRANCH  13  20
ENDBRANCH   1  13
TORSDOF 16
ENDMDL
MODEL 8
REMARK VINA RESULT:      -4.6      2.118      2.813
REMARK  Name = 
REMARK  18 active torsions:
REMARK  status: ('A' for Active; 'I' for Inactive)
REMARK    1  A    between atoms: C_2  and  C_3
REMARK    2  A    between atoms: C_2  and  C_5
REMARK    3  A    between atoms: C_2  and  O_17
REMARK    4  A    between atoms: C_3  and  O_4
REMARK    5  A    between atoms: C_5  and  O_6
REMARK    6  A    between atoms: O_6  and  C_7
REMARK    7  A    between atoms: C_7  and  C_9
REMARK    8  A    between atoms: C_9  and  C_10
REMARK    9  A    between atoms: C_10  and  C_11
REMARK   10  A    between atoms: C_11  and  C_12
REMARK   11  A    between atoms: C_12  and  C_13
REMARK   12  A    between atoms: C_13  and  C_14
REMARK   13  A    between atoms: C_14  and  C_15
REMARK   14  A    between atoms: C_15  and  C_16
REMARK   15  A    between atoms: O_17  and  C_18
REMARK   16  A    between atoms: C_18  and  C_20
REMARK   17  A    between atoms: C_20  and  C_21
REMARK   18  A    between atoms: C_21  and  C_22
REMARK                            x       y       z     vdW  Elec       q    Type
REMARK                         _______ _______ _______ _____ _____    ______ ____
ROOT
ATOM      1  C   UNL     1       9.721  -3.125  24.448  0.00  0.00    +0.279 C 
ENDROOT
BRANCH   1   2
ATOM      2  O   UNL     1       9.483  -1.733  24.176  0.00  0.00    -0.461 OA
BRANCH   2   3
ATOM      3  C   UNL     1       9.702  -1.332  22.891  0.00  0.00    +0.307 C 
ATOM      4  O   UNL     1      10.588  -1.743  22.155  0.00  0.00    -0.251 OA
BRANCH   3   5
ATOM      5  C   UNL     1       8.667  -0.314  22.481  0.00  0.00    +0.120 C 
BRANCH   5   6
ATOM      6  C   UNL     1       9.217   0.636  21.430  0.00  0.00    +0.011 C 
BRANCH   6   7
ATOM      7  C   UNL     1       9.796   1.897  22.075  0.00  0.00    +0.001 C 
BRANCH   7   8
ATOM      8  C   UNL     1       8.763   2.550  22.992  0.00  0.00    +0.000 C 
BRANCH   8   9
ATOM      9  C   UNL     1       7.598   3.151  22.202  0.00  0.00    -0.000 C 
BRANCH   9  10
ATOM     10  C   UNL     1       7.496   4.655  22.458  0.00  0.00    -0.000 C 
BRANCH  10  11
ATOM     11  C   UNL     1       8.337   5.078  23.660  0.00  0.00    -0.003 C 
ATOM     12  C   UNL     1       9.152   6.323  23.352  0.00  0.00    +0.004 C 
ENDBRANCH  10  11
ENDBRANCH   9  10
ENDBRANCH   8   9
ENDBRANCH   7   8
ENDBRANCH   6   7
ENDBRANCH   5   6
ENDBRANCH   3   5
ENDBRANCH   2   3
ENDBRANCH   1   2
BRANCH   1  13
ATOM     13  C   UNL     1       8.607  -3.786  25.270  0.00  0.00    +0.239 C 
BRANCH  13  14
ATOM     14  O   UNL     1       7.694  -4.512  24.426  0.00  0.00    -0.456 OA
BRANCH  14  15
ATOM     15  C   UNL     1       6.817  -3.740  23.726  0.00  0.00    +0.308 C 
ATOM     16  O   UNL     1       5.958  -3.026  24.224  0.00  0.00    -0.251 OA
BRANCH  15  17
ATOM     17  C   UNL     1       7.007  -3.924  22.242  0.00  0.00    +0.120 C 
BRANCH  17  18
ATOM     18  C   UNL     1       7.223  -5.387  21.862  0.00  0.00    +0.008 C 
ATOM     19  C   UNL     1       6.155  -5.915  20.913  0.00  0.00    +0.004 C 
ENDBRANCH  17  18
ENDBRANCH  15  17
ENDBRANCH  14  15
ENDBRANCH  13  14
BRANCH  13  20
ATOM     20  C   UNL     1       9.137  -4.751  26.335  0.00  0.00    +0.203 C 
BRANCH  20  21
ATOM     21  O   UNL     1      10.190  -5.569  25.831  0.00  0.00    -0.391 OA
ATOM     22  H   UNL     1      10.922  -4.987  25.562  0.00  0.00    +0.210 HD
ENDBRANCH  20  21
ENDBRANCH  13  20
ENDBRANCH   1  13
TORSDOF 16
ENDMDL
MODEL 9
REMARK VINA RESULT:      -4.6      1.850      6.892
REMARK  Name = 
REMARK  18 active torsions:
REMARK  status: ('A' for Active; 'I' for Inactive)
REMARK    1  A    between atoms: C_2  and  C_3
REMARK    2  A    between atoms: C_2  and  C_5
REMARK    3  A    between atoms: C_2  and  O_17
REMARK    4  A    between atoms: C_3  and  O_4
REMARK    5  A    between atoms: C_5  and  O_6
REMARK    6  A    between atoms: O_6  and  C_7
REMARK    7  A    between atoms: C_7  and  C_9
REMARK    8  A    between atoms: C_9  and  C_10
REMARK    9  A    between atoms: C_10  and  C_11
REMARK   10  A    between atoms: C_11  and  C_12
REMARK   11  A    between atoms: C_12  and  C_13
REMARK   12  A    between atoms: C_13  and  C_14
REMARK   13  A    between atoms: C_14  and  C_15
REMARK   14  A    between atoms: C_15  and  C_16
REMARK   15  A    between atoms: O_17  and  C_18
REMARK   16  A    between atoms: C_18  and  C_20
REMARK   17  A    between atoms: C_20  and  C_21
REMARK   18  A    between atoms: C_21  and  C_22
REMARK                            x       y       z     vdW  Elec       q    Type
REMARK                         _______ _______ _______ _____ _____    ______ ____
ROOT
ATOM      1  C   UNL     1       8.529  -2.787  23.535  0.00  0.00    +0.279 C 
ENDROOT
BRANCH   1   2
ATOM      2  O   UNL     1       9.693  -3.442  24.065  0.00  0.00    -0.461 OA
BRANCH   2   3
ATOM      3  C   UNL     1       9.458  -4.414  24.992  0.00  0.00    +0.307 C 
ATOM      4  O   UNL     1      10.110  -5.438  25.135  0.00  0.00    -0.251 OA
BRANCH   3   5
ATOM      5  C   UNL     1       8.279  -4.036  25.854  0.00  0.00    +0.120 C 
BRANCH   5   6
ATOM      6  C   UNL     1       7.676  -5.257  26.527  0.00  0.00    +0.011 C 
BRANCH   6   7
ATOM      7  C   UNL     1       6.147  -5.212  26.488  0.00  0.00    +0.001 C 
BRANCH   7   8
ATOM      8  C   UNL     1       5.659  -4.889  25.077  0.00  0.00    +0.000 C 
BRANCH   8   9
ATOM      9  C   UNL     1       5.174  -6.140  24.341  0.00  0.00    -0.000 C 
BRANCH   9  10
ATOM     10  C   UNL     1       4.831  -5.808  22.889  0.00  0.00    -0.000 C 
BRANCH  10  11
ATOM     11  C   UNL     1       5.951  -5.021  22.213  0.00  0.00    -0.003 C 
ATOM     12  C   UNL     1       7.128  -5.921  21.871  0.00  0.00    +0.004 C 
ENDBRANCH  10  11
ENDBRANCH   9  10
ENDBRANCH   8   9
ENDBRANCH   7   8
ENDBRANCH   6   7
ENDBRANCH   5   6
ENDBRANCH   3   5
ENDBRANCH   2   3
ENDBRANCH   1   2
BRANCH   1  13
ATOM     13  C   UNL     1       8.730  -1.285  23.290  0.00  0.00    +0.239 C 
BRANCH  13  14
ATOM     14  O   UNL     1       9.721  -0.739  24.181  0.00  0.00    -0.456 OA
BRANCH  14  15
ATOM     15  C   UNL     1       9.223  -0.117  25.286  0.00  0.00    +0.308 C 
ATOM     16  O   UNL     1       9.133  -0.625  26.395  0.00  0.00    -0.251 OA
BRANCH  15  17
ATOM     17  C   UNL     1       8.742   1.271  24.949  0.00  0.00    +0.120 C 
BRANCH  17  18
ATOM     18  C   UNL     1       9.817   2.107  24.261  0.00  0.00    +0.008 C 
ATOM     19  C   UNL     1       9.352   3.523  23.942  0.00  0.00    +0.004 C 
ENDBRANCH  17  18
ENDBRANCH  15  17
ENDBRANCH  14  15
ENDBRANCH  13  14
BRANCH  13  20
ATOM     20  C   UNL     1       9.154  -0.962  21.854  0.00  0.00    +0.203 C 
BRANCH  20  21
ATOM     21  O   UNL     1      10.361  -1.630  21.494  0.00  0.00    -0.391 OA
ATOM     22  H   UNL     1      11.079  -1.270  22.043  0.00  0.00    +0.210 HD
ENDBRANCH  20  21
ENDBRANCH  13  20
ENDBRANCH   1  13
TORSDOF 16
ENDMDL
