MODEL 1
REMARK VINA RESULT:      -6.2      0.000      0.000
REMARK  Name = 
REMARK  4 active torsions:
REMARK  status: ('A' for Active; 'I' for Inactive)
REMARK    1  A    between atoms: C_1  and  C_2
REMARK    2  A    between atoms: C_4  and  C_5
REMARK    3  A    between atoms: C_6  and  C_8
REMARK    4  A    between atoms: N_15  and  O_16
REMARK                            x       y       z     vdW  Elec       q    Type
REMARK                         _______ _______ _______ _____ _____    ______ ____
ROOT
ATOM      1  C   UNL     1       7.571  -3.402  23.530  0.00  0.00    +0.084 A 
ATOM      2  N   UNL     1       7.696  -2.189  22.953  0.00  0.00    -0.214 NA
ATOM      3  C   UNL     1       8.870  -1.551  23.080  0.00  0.00    +0.221 A 
ATOM      4  N   UNL     1       9.045  -0.310  22.503  0.00  0.00    -0.272 N 
ATOM      5  H   UNL     1       9.992   0.029  22.498  0.00  0.00    +0.156 HD
ATOM      6  C   UNL     1       8.061   0.533  22.108  0.00  0.00    +0.230 C 
ATOM      7  N   UNL     1       8.192   1.707  21.573  0.00  0.00    -0.080 NA
ATOM      8  N   UNL     1       9.921  -2.062  23.733  0.00  0.00    -0.223 NA
ATOM      9  C   UNL     1       9.751  -3.257  24.328  0.00  0.00    +0.116 A 
ATOM     10  C   UNL     1       8.587  -3.979  24.258  0.00  0.00    +0.049 A 
ENDROOT
BRANCH   1  14
ATOM     11  C   UNL     1       2.497  -4.909  23.654  0.00  0.00    +0.073 C 
ATOM     12  C   UNL     1       3.944  -4.752  23.348  0.00  0.00    +0.076 A 
ATOM     13  S   UNL     1       4.885  -3.613  24.212  0.00  0.00    -0.071 S 
ATOM     14  C   UNL     1       6.277  -4.056  23.298  0.00  0.00    +0.060 A 
ATOM     15  C   UNL     1       5.918  -5.045  22.386  0.00  0.00    +0.055 A 
ATOM     16  C   UNL     1       6.799  -5.731  21.400  0.00  0.00    +0.067 C 
ATOM     17  N   UNL     1       4.587  -5.439  22.434  0.00  0.00    -0.249 NA
ENDBRANCH   1  14
BRANCH   7  18
ATOM     18  O   UNL     1       9.551   2.013  21.402  0.00  0.00    -0.408 OA
ATOM     19  H   UNL     1       9.609   2.902  21.801  0.00  0.00    +0.328 HD
ENDBRANCH   7  18
TORSDOF 2
ENDMDL
MODEL 2
REMARK VINA RESULT:      -5.9      4.466      6.867
REMARK  Name = 
REMARK  4 active torsions:
REMARK  status: ('A' for Active; 'I' for Inactive)
REMARK    1  A    between atoms: C_1  and  C_2
REMARK    2  A    between atoms: C_4  and  C_5
REMARK    3  A    between atoms: C_6  and  C_8
REMARK    4  A    between atoms: N_15  and  O_16
REMARK                            x       y       z     vdW  Elec       q    Type
REMARK                         _______ _______ _______ _____ _____    ______ ____
ROOT
ATOM      1  C   UNL     1       6.806  -4.883  24.282  0.00  0.00    +0.084 A 
ATOM      2  N   UNL     1       6.739  -5.182  25.596  0.00  0.00    -0.214 NA
ATOM      3  C   UNL     1       5.783  -6.034  25.999  0.00  0.00    +0.221 A 
ATOM      4  N   UNL     1       5.679  -6.372  27.333  0.00  0.00    -0.272 N 
ATOM      5  H   UNL     1       5.054  -7.134  27.533  0.00  0.00    +0.156 HD
ATOM      6  C   UNL     1       6.201  -5.682  28.375  0.00  0.00    +0.230 C 
ATOM      7  N   UNL     1       6.113  -5.967  29.637  0.00  0.00    -0.080 NA
ATOM      8  N   UNL     1       4.908  -6.609  25.165  0.00  0.00    -0.223 NA
ATOM      9  C   UNL     1       4.978  -6.261  23.867  0.00  0.00    +0.116 A 
ATOM     10  C   UNL     1       5.916  -5.395  23.365  0.00  0.00    +0.049 A 
ENDROOT
BRANCH   1  14
ATOM     11  C   UNL     1       9.868  -1.125  22.151  0.00  0.00    +0.073 C 
ATOM     12  C   UNL     1       9.325  -2.262  22.943  0.00  0.00    +0.076 A 
ATOM     13  S   UNL     1       7.702  -2.761  22.727  0.00  0.00    -0.071 S 
ATOM     14  C   UNL     1       7.912  -3.989  23.917  0.00  0.00    +0.060 A 
ATOM     15  C   UNL     1       9.216  -3.925  24.403  0.00  0.00    +0.055 A 
ATOM     16  C   UNL     1       9.842  -4.798  25.435  0.00  0.00    +0.067 C 
ATOM     17  N   UNL     1      10.012  -2.942  23.830  0.00  0.00    -0.249 NA
ENDBRANCH   1  14
BRANCH   7  18
ATOM     18  O   UNL     1       5.406  -7.166  29.814  0.00  0.00    -0.408 OA
ATOM     19  H   UNL     1       5.921  -7.786  29.264  0.00  0.00    +0.328 HD
ENDBRANCH   7  18
TORSDOF 2
ENDMDL
MODEL 3
REMARK VINA RESULT:      -5.9      3.037      4.072
REMARK  Name = 
REMARK  4 active torsions:
REMARK  status: ('A' for Active; 'I' for Inactive)
REMARK    1  A    between atoms: C_1  and  C_2
REMARK    2  A    between atoms: C_4  and  C_5
REMARK    3  A    between atoms: C_6  and  C_8
REMARK    4  A    between atoms: N_15  and  O_16
REMARK                            x       y       z     vdW  Elec       q    Type
REMARK                         _______ _______ _______ _____ _____    ______ ____
ROOT
ATOM      1  C   UNL     1       6.567  -5.040  24.237  0.00  0.00    +0.084 A 
ATOM      2  N   UNL     1       7.386  -4.033  23.867  0.00  0.00    -0.214 NA
ATOM      3  C   UNL     1       7.379  -3.658  22.579  0.00  0.00    +0.221 A 
ATOM      4  N   UNL     1       8.197  -2.630  22.156  0.00  0.00    -0.272 N 
ATOM      5  H   UNL     1       8.018  -2.297  21.224  0.00  0.00    +0.156 HD
ATOM      6  C   UNL     1       9.290  -2.160  22.805  0.00  0.00    +0.230 C 
ATOM      7  N   UNL     1      10.083  -1.205  22.431  0.00  0.00    -0.080 NA
ATOM      8  N   UNL     1       6.594  -4.219  21.650  0.00  0.00    -0.223 NA
ATOM      9  C   UNL     1       5.817  -5.244  22.044  0.00  0.00    +0.116 A 
ATOM     10  C   UNL     1       5.761  -5.701  23.336  0.00  0.00    +0.049 A 
ENDROOT
BRANCH   1  14
ATOM     11  C   UNL     1       5.378  -6.487  29.189  0.00  0.00    +0.073 C 
ATOM     12  C   UNL     1       6.054  -6.018  27.950  0.00  0.00    +0.076 A 
ATOM     13  S   UNL     1       5.180  -5.911  26.482  0.00  0.00    -0.071 S 
ATOM     14  C   UNL     1       6.594  -5.351  25.671  0.00  0.00    +0.060 A 
ATOM     15  C   UNL     1       7.643  -5.293  26.585  0.00  0.00    +0.055 A 
ATOM     16  C   UNL     1       9.044  -4.857  26.330  0.00  0.00    +0.067 C 
ATOM     17  N   UNL     1       7.316  -5.665  27.883  0.00  0.00    -0.249 NA
ENDBRANCH   1  14
BRANCH   7  18
ATOM     18  O   UNL     1       9.635  -0.649  21.223  0.00  0.00    -0.408 OA
ATOM     19  H   UNL     1       8.673  -0.808  21.272  0.00  0.00    +0.328 HD
ENDBRANCH   7  18
TORSDOF 2
ENDMDL
MODEL 4
REMARK VINA RESULT:      -5.8      3.311      5.957
REMARK  Name = 
REMARK  4 active torsions:
REMARK  status: ('A' for Active; 'I' for Inactive)
REMARK    1  A    between atoms: C_1  and  C_2
REMARK    2  A    between atoms: C_4  and  C_5
REMARK    3  A    between atoms: C_6  and  C_8
REMARK    4  A    between atoms: N_15  and  O_16
REMARK                            x       y       z     vdW  Elec       q    Type
REMARK                         _______ _______ _______ _____ _____    ______ ____
ROOT
ATOM      1  C   UNL     1       8.342  -2.300  24.844  0.00  0.00    +0.084 A 
ATOM      2  N   UNL     1       7.698  -2.970  23.867  0.00  0.00    -0.214 NA
ATOM      3  C   UNL     1       7.209  -4.186  24.155  0.00  0.00    +0.221 A 
ATOM      4  N   UNL     1       6.539  -4.907  23.187  0.00  0.00    -0.272 N 
ATOM      5  H   UNL     1       6.062  -5.727  23.519  0.00  0.00    +0.156 HD
ATOM      6  C   UNL     1       6.606  -4.702  21.849  0.00  0.00    +0.230 C 
ATOM      7  N   UNL     1       5.998  -5.365  20.916  0.00  0.00    -0.080 NA
ATOM      8  N   UNL     1       7.316  -4.758  25.361  0.00  0.00    -0.223 NA
ATOM      9  C   UNL     1       7.996  -4.079  26.303  0.00  0.00    +0.116 A 
ATOM     10  C   UNL     1       8.534  -2.834  26.099  0.00  0.00    +0.049 A 
ENDROOT
BRANCH   1  14
ATOM     11  C   UNL     1       9.178   2.916  24.487  0.00  0.00    +0.073 C 
ATOM     12  C   UNL     1       9.187   1.441  24.296  0.00  0.00    +0.076 A 
ATOM     13  S   UNL     1       8.218   0.441  25.291  0.00  0.00    -0.071 S 
ATOM     14  C   UNL     1       8.796  -0.957  24.464  0.00  0.00    +0.060 A 
ATOM     15  C   UNL     1       9.701  -0.556  23.484  0.00  0.00    +0.055 A 
ATOM     16  C   UNL     1      10.440  -1.423  22.524  0.00  0.00    +0.067 C 
ATOM     17  N   UNL     1       9.905   0.815  23.393  0.00  0.00    -0.249 NA
ENDBRANCH   1  14
BRANCH   7  18
ATOM     18  O   UNL     1       5.182  -6.357  21.480  0.00  0.00    -0.408 OA
ATOM     19  H   UNL     1       4.749  -5.872  22.207  0.00  0.00    +0.328 HD
ENDBRANCH   7  18
TORSDOF 2
ENDMDL
MODEL 5
REMARK VINA RESULT:      -5.8      3.073      5.622
REMARK  Name = 
REMARK  4 active torsions:
REMARK  status: ('A' for Active; 'I' for Inactive)
REMARK    1  A    between atoms: C_1  and  C_2
REMARK    2  A    between atoms: C_4  and  C_5
REMARK    3  A    between atoms: C_6  and  C_8
REMARK    4  A    between atoms: N_15  and  O_16
REMARK                            x       y       z     vdW  Elec       q    Type
REMARK                         _______ _______ _______ _____ _____    ______ ____
ROOT
ATOM      1  C   UNL     1       8.190  -1.330  23.538  0.00  0.00    +0.084 A 
ATOM      2  N   UNL     1       7.489  -2.370  23.042  0.00  0.00    -0.214 NA
ATOM      3  C   UNL     1       7.965  -3.607  23.253  0.00  0.00    +0.221 A 
ATOM      4  N   UNL     1       7.278  -4.702  22.769  0.00  0.00    -0.272 N 
ATOM      5  H   UNL     1       7.602  -5.592  23.105  0.00  0.00    +0.156 HD
ATOM      6  C   UNL     1       6.346  -4.689  21.785  0.00  0.00    +0.230 C 
ATOM      7  N   UNL     1       5.692  -5.698  21.302  0.00  0.00    -0.080 NA
ATOM      8  N   UNL     1       9.086  -3.859  23.940  0.00  0.00    -0.223 NA
ATOM      9  C   UNL     1       9.782  -2.798  24.388  0.00  0.00    +0.116 A 
ATOM     10  C   UNL     1       9.376  -1.499  24.216  0.00  0.00    +0.049 A 
ENDROOT
BRANCH   1  14
ATOM     11  C   UNL     1       5.172   3.016  23.735  0.00  0.00    +0.073 C 
ATOM     12  C   UNL     1       6.190   1.986  23.398  0.00  0.00    +0.076 A 
ATOM     13  S   UNL     1       6.224   0.501  24.250  0.00  0.00    -0.071 S 
ATOM     14  C   UNL     1       7.573  -0.017  23.311  0.00  0.00    +0.060 A 
ATOM     15  C   UNL     1       7.908   0.992  22.412  0.00  0.00    +0.055 A 
ATOM     16  C   UNL     1       9.001   0.978  21.400  0.00  0.00    +0.067 C 
ATOM     17  N   UNL     1       7.103   2.123  22.466  0.00  0.00    -0.249 NA
ENDBRANCH   1  14
BRANCH   7  18
ATOM     18  O   UNL     1       6.049  -6.875  21.977  0.00  0.00    -0.408 OA
ATOM     19  H   UNL     1       6.990  -6.714  22.180  0.00  0.00    +0.328 HD
ENDBRANCH   7  18
TORSDOF 2
ENDMDL
MODEL 6
REMARK VINA RESULT:      -5.7      2.828      4.214
REMARK  Name = 
REMARK  4 active torsions:
REMARK  status: ('A' for Active; 'I' for Inactive)
REMARK    1  A    between atoms: C_1  and  C_2
REMARK    2  A    between atoms: C_4  and  C_5
REMARK    3  A    between atoms: C_6  and  C_8
REMARK    4  A    between atoms: N_15  and  O_16
REMARK                            x       y       z     vdW  Elec       q    Type
REMARK                         _______ _______ _______ _____ _____    ______ ____
ROOT
ATOM      1  C   UNL     1       8.829   0.222  23.569  0.00  0.00    +0.084 A 
ATOM      2  N   UNL     1       8.398   1.420  23.122  0.00  0.00    -0.214 NA
ATOM      3  C   UNL     1       9.212   2.476  23.268  0.00  0.00    +0.221 A 
ATOM      4  N   UNL     1       8.815   3.720  22.821  0.00  0.00    -0.272 N 
ATOM      5  H   UNL     1       9.535   4.421  22.813  0.00  0.00    +0.156 HD
ATOM      6  C   UNL     1       7.543   4.105  22.558  0.00  0.00    +0.230 C 
ATOM      7  N   UNL     1       7.136   5.266  22.147  0.00  0.00    -0.080 NA
ATOM      8  N   UNL     1      10.430   2.399  23.819  0.00  0.00    -0.223 NA
ATOM      9  C   UNL     1      10.815   1.198  24.289  0.00  0.00    +0.116 A 
ATOM     10  C   UNL     1      10.048   0.065  24.189  0.00  0.00    +0.049 A 
ENDROOT
BRANCH   1  14
ATOM     11  C   UNL     1       6.506  -4.241  21.920  0.00  0.00    +0.073 C 
ATOM     12  C   UNL     1       6.830  -2.942  22.569  0.00  0.00    +0.076 A 
ATOM     13  S   UNL     1       8.341  -2.191  22.281  0.00  0.00    -0.071 S 
ATOM     14  C   UNL     1       7.903  -0.889  23.322  0.00  0.00    +0.060 A 
ATOM     15  C   UNL     1       6.626  -1.127  23.824  0.00  0.00    +0.055 A 
ATOM     16  C   UNL     1       5.843  -0.265  24.753  0.00  0.00    +0.067 C 
ATOM     17  N   UNL     1       6.023  -2.296  23.377  0.00  0.00    -0.249 NA
ENDBRANCH   1  14
BRANCH   7  18
ATOM     18  O   UNL     1       8.231   6.122  21.955  0.00  0.00    -0.408 OA
ATOM     19  H   UNL     1       8.877   5.771  22.597  0.00  0.00    +0.328 HD
ENDBRANCH   7  18
TORSDOF 2
ENDMDL
MODEL 7
REMARK VINA RESULT:      -5.7      3.286      4.103
REMARK  Name = 
REMARK  4 active torsions:
REMARK  status: ('A' for Active; 'I' for Inactive)
REMARK    1  A    between atoms: C_1  and  C_2
REMARK    2  A    between atoms: C_4  and  C_5
REMARK    3  A    between atoms: C_6  and  C_8
REMARK    4  A    between atoms: N_15  and  O_16
REMARK                            x       y       z     vdW  Elec       q    Type
REMARK                         _______ _______ _______ _____ _____    ______ ____
ROOT
ATOM      1  C   UNL     1       9.038  -1.809  23.965  0.00  0.00    +0.084 A 
ATOM      2  N   UNL     1       8.455  -1.180  25.006  0.00  0.00    -0.214 NA
ATOM      3  C   UNL     1       8.930   0.025  25.358  0.00  0.00    +0.221 A 
ATOM      4  N   UNL     1       8.361   0.708  26.414  0.00  0.00    -0.272 N 
ATOM      5  H   UNL     1       8.656   1.664  26.513  0.00  0.00    +0.156 HD
ATOM      6  C   UNL     1       7.594   0.170  27.393  0.00  0.00    +0.230 C 
ATOM      7  N   UNL     1       7.055   0.781  28.401  0.00  0.00    -0.080 NA
ATOM      8  N   UNL     1       9.938   0.636  24.723  0.00  0.00    -0.223 NA
ATOM      9  C   UNL     1      10.522  -0.035  23.713  0.00  0.00    +0.116 A 
ATOM     10  C   UNL     1      10.109  -1.271  23.286  0.00  0.00    +0.049 A 
ENDROOT
BRANCH   1  14
ATOM     11  C   UNL     1       6.239  -5.705  21.725  0.00  0.00    +0.073 C 
ATOM     12  C   UNL     1       7.141  -4.891  22.582  0.00  0.00    +0.076 A 
ATOM     13  S   UNL     1       7.305  -3.210  22.305  0.00  0.00    -0.071 S 
ATOM     14  C   UNL     1       8.424  -3.095  23.610  0.00  0.00    +0.060 A 
ATOM     15  C   UNL     1       8.600  -4.360  24.164  0.00  0.00    +0.055 A 
ATOM     16  C   UNL     1       9.467  -4.732  25.316  0.00  0.00    +0.067 C 
ATOM     17  N   UNL     1       7.853  -5.372  23.574  0.00  0.00    -0.249 NA
ENDBRANCH   1  14
BRANCH   7  18
ATOM     18  O   UNL     1       7.338   2.154  28.344  0.00  0.00    -0.408 OA
ATOM     19  H   UNL     1       7.490   2.288  27.389  0.00  0.00    +0.328 HD
ENDBRANCH   7  18
TORSDOF 2
ENDMDL
MODEL 8
REMARK VINA RESULT:      -5.7      4.390      6.806
REMARK  Name = 
REMARK  4 active torsions:
REMARK  status: ('A' for Active; 'I' for Inactive)
REMARK    1  A    between atoms: C_1  and  C_2
REMARK    2  A    between atoms: C_4  and  C_5
REMARK    3  A    between atoms: C_6  and  C_8
REMARK    4  A    between atoms: N_15  and  O_16
REMARK                            x       y       z     vdW  Elec       q    Type
REMARK                         _______ _______ _______ _____ _____    ______ ____
ROOT
ATOM      1  C   UNL     1       7.198  -3.417  24.248  0.00  0.00    +0.084 A 
ATOM      2  N   UNL     1       7.117  -4.066  25.427  0.00  0.00    -0.214 NA
ATOM      3  C   UNL     1       6.526  -5.271  25.442  0.00  0.00    +0.221 A 
ATOM      4  N   UNL     1       6.424  -5.975  26.625  0.00  0.00    -0.272 N 
ATOM      5  H   UNL     1       6.123  -6.929  26.530  0.00  0.00    +0.156 HD
ATOM      6  C   UNL     1       6.532  -5.458  27.873  0.00  0.00    +0.230 C 
ATOM      7  N   UNL     1       6.432  -6.088  29.002  0.00  0.00    -0.080 NA
ATOM      8  N   UNL     1       6.029  -5.863  24.349  0.00  0.00    -0.223 NA
ATOM      9  C   UNL     1       6.092  -5.173  23.196  0.00  0.00    +0.116 A 
ATOM     10  C   UNL     1       6.672  -3.935  23.085  0.00  0.00    +0.049 A 
ENDROOT
BRANCH   1  14
ATOM     11  C   UNL     1      10.818   0.446  24.169  0.00  0.00    +0.073 C 
ATOM     12  C   UNL     1       9.566  -0.351  24.270  0.00  0.00    +0.076 A 
ATOM     13  S   UNL     1       9.609  -2.048  24.052  0.00  0.00    -0.071 S 
ATOM     14  C   UNL     1       7.906  -2.133  24.307  0.00  0.00    +0.060 A 
ATOM     15  C   UNL     1       7.423  -0.847  24.536  0.00  0.00    +0.055 A 
ATOM     16  C   UNL     1       6.016  -0.444  24.813  0.00  0.00    +0.067 C 
ATOM     17  N   UNL     1       8.383   0.157  24.522  0.00  0.00    -0.249 NA
ENDBRANCH   1  14
BRANCH   7  18
ATOM     18  O   UNL     1       6.226  -7.457  28.775  0.00  0.00    -0.408 OA
ATOM     19  H   UNL     1       5.701  -7.714  29.557  0.00  0.00    +0.328 HD
ENDBRANCH   7  18
TORSDOF 2
ENDMDL
MODEL 9
REMARK VINA RESULT:      -5.7      1.038      1.064
REMARK  Name = 
REMARK  4 active torsions:
REMARK  status: ('A' for Active; 'I' for Inactive)
REMARK    1  A    between atoms: C_1  and  C_2
REMARK    2  A    between atoms: C_4  and  C_5
REMARK    3  A    between atoms: C_6  and  C_8
REMARK    4  A    between atoms: N_15  and  O_16
REMARK                            x       y       z     vdW  Elec       q    Type
REMARK                         _______ _______ _______ _____ _____    ______ ____
ROOT
ATOM      1  C   UNL     1       7.147  -4.244  23.879  0.00  0.00    +0.084 A 
ATOM      2  N   UNL     1       7.510  -3.084  23.292  0.00  0.00    -0.214 NA
ATOM      3  C   UNL     1       8.769  -2.655  23.473  0.00  0.00    +0.221 A 
ATOM      4  N   UNL     1       9.186  -1.477  22.889  0.00  0.00    -0.272 N 
ATOM      5  H   UNL     1      10.176  -1.307  22.930  0.00  0.00    +0.156 HD
ATOM      6  C   UNL     1       8.385  -0.487  22.427  0.00  0.00    +0.230 C 
ATOM      7  N   UNL     1       8.745   0.634  21.883  0.00  0.00    -0.080 NA
ATOM      8  N   UNL     1       9.680  -3.324  24.191  0.00  0.00    -0.223 NA
ATOM      9  C   UNL     1       9.275  -4.457  24.793  0.00  0.00    +0.116 A 
ATOM     10  C   UNL     1       8.009  -4.970  24.670  0.00  0.00    +0.049 A 
ENDROOT
BRANCH   1  14
ATOM     11  C   UNL     1       1.902  -4.970  23.860  0.00  0.00    +0.073 C 
ATOM     12  C   UNL     1       3.361  -5.006  23.571  0.00  0.00    +0.076 A 
ATOM     13  S   UNL     1       4.450  -4.107  24.537  0.00  0.00    -0.071 S 
ATOM     14  C   UNL     1       5.773  -4.669  23.586  0.00  0.00    +0.060 A 
ATOM     15  C   UNL     1       5.282  -5.505  22.586  0.00  0.00    +0.055 A 
ATOM     16  C   UNL     1       6.064  -6.222  21.541  0.00  0.00    +0.067 C 
ATOM     17  N   UNL     1       3.906  -5.695  22.597  0.00  0.00    -0.249 NA
ENDBRANCH   1  14
BRANCH   7  18
ATOM     18  O   UNL     1      10.143   0.696  21.782  0.00  0.00    -0.408 OA
ATOM     19  H   UNL     1      10.399   0.950  22.689  0.00  0.00    +0.328 HD
ENDBRANCH   7  18
TORSDOF 2
ENDMDL
