MODEL 1
REMARK VINA RESULT:      -7.6      0.000      0.000
REMARK  Name = 
REMARK  8 active torsions:
REMARK  status: ('A' for Active; 'I' for Inactive)
REMARK    1  A    between atoms: C_1  and  C_2
REMARK    2  A    between atoms: C_4  and  C_7
REMARK    3  A    between atoms: N_9  and  C_10
REMARK    4  A    between atoms: C_10  and  C_11
REMARK    5  A    between atoms: C_11  and  C_12
REMARK    6  A    between atoms: C_15  and  S_18
REMARK    7  A    between atoms: S_18  and  N_21
REMARK    8  A    between atoms: N_24  and  N_25
REMARK                            x       y       z     vdW  Elec       q    Type
REMARK                         _______ _______ _______ _____ _____    ______ ____
ROOT
ATOM      1  C   UNL     1       6.197  -4.373  22.605  0.00  0.00    -0.046 A 
ATOM      2  C   UNL     1       7.467  -4.661  23.132  0.00  0.00    +0.005 A 
ATOM      3  C   UNL     1       8.411  -3.644  23.320  0.00  0.00    +0.029 A 
ATOM      4  C   UNL     1       8.077  -2.325  22.998  0.00  0.00    +0.109 A 
ATOM      5  C   UNL     1       6.803  -2.015  22.532  0.00  0.00    +0.029 A 
ATOM      6  C   UNL     1       5.864  -3.031  22.358  0.00  0.00    +0.005 A 
ENDROOT
BRANCH   4   7
ATOM      7  S   UNL     1       9.285  -1.032  23.137  0.00  0.00    +0.076 S 
ATOM      8  O   UNL     1      10.135  -1.034  21.966  0.00  0.00    -0.150 OA
ATOM      9  O   UNL     1       9.862  -1.140  24.464  0.00  0.00    -0.150 OA
BRANCH   7  10
ATOM     10  N   UNL     1       8.414   0.379  23.153  0.00  0.00    -0.168 N 
ATOM     11  H   UNL     1       7.418   0.241  23.249  0.00  0.00    +0.178 HD
ATOM     12  C   UNL     1       8.991   1.628  22.992  0.00  0.00    +0.333 C 
ATOM     13  N   UNL     1       8.090   2.672  23.107  0.00  0.00    -0.231 N 
ATOM     14  H   UNL     1       7.111   2.481  23.273  0.00  0.00    +0.171 HD
ATOM     15  O   UNL     1      10.181   1.761  22.752  0.00  0.00    -0.250 OA
BRANCH  13  16
ATOM     16  N   UNL     1       8.473   4.042  22.963  0.00  0.00    -0.226 NA
ATOM     17  C   UNL     1       9.065   4.542  24.213  0.00  0.00    +0.105 C 
ATOM     18  C   UNL     1       9.836   5.850  24.041  0.00  0.00    +0.017 C 
ATOM     19  C   UNL     1       8.987   7.101  24.227  0.00  0.00    +0.001 C 
ATOM     20  C   UNL     1       7.613   7.072  23.570  0.00  0.00    +0.001 C 
ATOM     21  C   UNL     1       7.585   6.343  22.232  0.00  0.00    +0.017 C 
ATOM     22  C   UNL     1       7.372   4.835  22.390  0.00  0.00    +0.105 C 
ENDBRANCH  13  16
ENDBRANCH   7  10
ENDBRANCH   4   7
BRANCH   1  23
ATOM     23  C   UNL     1       5.206  -5.491  22.345  0.00  0.00    +0.054 C 
BRANCH  23  24
ATOM     24  C   UNL     1       4.127  -5.624  23.430  0.00  0.00    +0.109 C 
BRANCH  24  26
ATOM     25  C   UNL     1       4.680  -6.697  25.583  0.00  0.00    +0.266 C 
ATOM     26  N   UNL     1       4.664  -5.582  24.770  0.00  0.00    -0.310 N 
ATOM     27  H   UNL     1       5.119  -4.744  25.119  0.00  0.00    +0.149 HD
ATOM     28  O   UNL     1       4.179  -7.771  25.261  0.00  0.00    -0.268 OA
BRANCH  25  33
ATOM     29  C   UNL     1       5.955  -6.382  30.484  0.00  0.00    +0.089 C 
ATOM     30  C   UNL     1       5.824  -6.401  29.018  0.00  0.00    +0.135 A 
ATOM     31  O   UNL     1       6.911  -6.004  28.304  0.00  0.00    -0.359 OA
ATOM     32  N   UNL     1       6.625  -6.066  26.952  0.00  0.00    -0.073 NA
ATOM     33  C   UNL     1       5.355  -6.503  26.865  0.00  0.00    +0.168 A 
ATOM     34  C   UNL     1       4.814  -6.735  28.154  0.00  0.00    +0.080 A 
ENDBRANCH  25  33
ENDBRANCH  24  26
ENDBRANCH  23  24
ENDBRANCH   1  23
TORSDOF 7
ENDMDL
MODEL 2
REMARK VINA RESULT:      -7.6      2.040      3.672
REMARK  Name = 
REMARK  8 active torsions:
REMARK  status: ('A' for Active; 'I' for Inactive)
REMARK    1  A    between atoms: C_1  and  C_2
REMARK    2  A    between atoms: C_4  and  C_7
REMARK    3  A    between atoms: N_9  and  C_10
REMARK    4  A    between atoms: C_10  and  C_11
REMARK    5  A    between atoms: C_11  and  C_12
REMARK    6  A    between atoms: C_15  and  S_18
REMARK    7  A    between atoms: S_18  and  N_21
REMARK    8  A    between atoms: N_24  and  N_25
REMARK                            x       y       z     vdW  Elec       q    Type
REMARK                         _______ _______ _______ _____ _____    ______ ____
ROOT
ATOM      1  C   UNL     1       7.902  -4.633  26.055  0.00  0.00    -0.046 A 
ATOM      2  C   UNL     1       7.834  -4.993  24.699  0.00  0.00    +0.005 A 
ATOM      3  C   UNL     1       8.258  -4.107  23.700  0.00  0.00    +0.029 A 
ATOM      4  C   UNL     1       8.773  -2.858  24.062  0.00  0.00    +0.109 A 
ATOM      5  C   UNL     1       8.903  -2.510  25.402  0.00  0.00    +0.029 A 
ATOM      6  C   UNL     1       8.490  -3.402  26.391  0.00  0.00    +0.005 A 
ENDROOT
BRANCH   4   7
ATOM      7  S   UNL     1       9.229  -1.679  22.815  0.00  0.00    +0.076 S 
ATOM      8  O   UNL     1       8.239  -1.682  21.759  0.00  0.00    -0.150 OA
ATOM      9  O   UNL     1      10.629  -1.911  22.512  0.00  0.00    -0.150 OA
BRANCH   7  10
ATOM     10  N   UNL     1       9.185  -0.204  23.573  0.00  0.00    -0.168 N 
ATOM     11  H   UNL     1       8.726  -0.223  24.473  0.00  0.00    +0.178 HD
ATOM     12  C   UNL     1       9.680   0.956  23.001  0.00  0.00    +0.333 C 
ATOM     13  N   UNL     1       9.604   2.059  23.835  0.00  0.00    -0.231 N 
ATOM     14  H   UNL     1       9.196   1.970  24.756  0.00  0.00    +0.171 HD
ATOM     15  O   UNL     1      10.117   0.977  21.861  0.00  0.00    -0.250 OA
BRANCH  13  16
ATOM     16  N   UNL     1      10.047   3.359  23.437  0.00  0.00    -0.226 NA
ATOM     17  C   UNL     1      11.493   3.500  23.672  0.00  0.00    +0.105 C 
ATOM     18  C   UNL     1      12.114   4.689  22.941  0.00  0.00    +0.017 C 
ATOM     19  C   UNL     1      12.104   5.985  23.743  0.00  0.00    +0.001 C 
ATOM     20  C   UNL     1      10.812   6.291  24.489  0.00  0.00    +0.001 C 
ATOM     21  C   UNL     1       9.553   5.865  23.743  0.00  0.00    +0.017 C 
ATOM     22  C   UNL     1       9.180   4.404  24.009  0.00  0.00    +0.105 C 
ENDBRANCH  13  16
ENDBRANCH   7  10
ENDBRANCH   4   7
BRANCH   1  23
ATOM     23  C   UNL     1       7.380  -5.575  27.122  0.00  0.00    +0.054 C 
BRANCH  23  24
ATOM     24  C   UNL     1       5.890  -5.382  27.441  0.00  0.00    +0.109 C 
BRANCH  24  26
ATOM     25  C   UNL     1       4.035  -5.633  25.832  0.00  0.00    +0.266 C 
ATOM     26  N   UNL     1       5.025  -6.192  26.614  0.00  0.00    -0.310 N 
ATOM     27  H   UNL     1       5.181  -7.191  26.526  0.00  0.00    +0.149 HD
ATOM     28  O   UNL     1       3.769  -4.434  25.839  0.00  0.00    -0.268 OA
BRANCH  25  33
ATOM     29  C   UNL     1       1.134  -7.930  22.360  0.00  0.00    +0.089 C 
ATOM     30  C   UNL     1       2.042  -7.499  23.435  0.00  0.00    +0.135 A 
ATOM     31  O   UNL     1       2.632  -8.482  24.166  0.00  0.00    -0.359 OA
ATOM     32  N   UNL     1       3.440  -7.917  25.137  0.00  0.00    -0.073 NA
ATOM     33  C   UNL     1       3.327  -6.585  24.979  0.00  0.00    +0.168 A 
ATOM     34  C   UNL     1       2.454  -6.278  23.905  0.00  0.00    +0.080 A 
ENDBRANCH  25  33
ENDBRANCH  24  26
ENDBRANCH  23  24
ENDBRANCH   1  23
TORSDOF 7
ENDMDL
MODEL 3
REMARK VINA RESULT:      -7.6      3.128      4.770
REMARK  Name = 
REMARK  8 active torsions:
REMARK  status: ('A' for Active; 'I' for Inactive)
REMARK    1  A    between atoms: C_1  and  C_2
REMARK    2  A    between atoms: C_4  and  C_7
REMARK    3  A    between atoms: N_9  and  C_10
REMARK    4  A    between atoms: C_10  and  C_11
REMARK    5  A    between atoms: C_11  and  C_12
REMARK    6  A    between atoms: C_15  and  S_18
REMARK    7  A    between atoms: S_18  and  N_21
REMARK    8  A    between atoms: N_24  and  N_25
REMARK                            x       y       z     vdW  Elec       q    Type
REMARK                         _______ _______ _______ _____ _____    ______ ____
ROOT
ATOM      1  C   UNL     1       3.226  -6.003  24.864  0.00  0.00    -0.046 A 
ATOM      2  C   UNL     1       3.244  -4.804  24.132  0.00  0.00    +0.005 A 
ATOM      3  C   UNL     1       4.178  -4.604  23.108  0.00  0.00    +0.029 A 
ATOM      4  C   UNL     1       5.089  -5.619  22.799  0.00  0.00    +0.109 A 
ATOM      5  C   UNL     1       5.045  -6.835  23.474  0.00  0.00    +0.029 A 
ATOM      6  C   UNL     1       4.104  -7.031  24.485  0.00  0.00    +0.005 A 
ENDROOT
BRANCH   4   7
ATOM      7  S   UNL     1       6.345  -5.357  21.572  0.00  0.00    +0.076 S 
ATOM      8  O   UNL     1       5.823  -5.690  20.264  0.00  0.00    -0.150 OA
ATOM      9  O   UNL     1       7.552  -5.993  22.066  0.00  0.00    -0.150 OA
BRANCH   7  10
ATOM     10  N   UNL     1       6.661  -3.729  21.614  0.00  0.00    -0.168 N 
ATOM     11  H   UNL     1       6.279  -3.220  20.830  0.00  0.00    +0.178 HD
ATOM     12  C   UNL     1       7.426  -3.131  22.602  0.00  0.00    +0.333 C 
ATOM     13  N   UNL     1       7.506  -1.754  22.482  0.00  0.00    -0.231 N 
ATOM     14  H   UNL     1       7.045  -1.285  21.714  0.00  0.00    +0.171 HD
ATOM     15  O   UNL     1       7.982  -3.786  23.471  0.00  0.00    -0.250 OA
BRANCH  13  16
ATOM     16  N   UNL     1       8.255  -0.943  23.390  0.00  0.00    -0.226 NA
ATOM     17  C   UNL     1       7.551   0.324  23.646  0.00  0.00    +0.105 C 
ATOM     18  C   UNL     1       8.075   1.074  24.869  0.00  0.00    +0.017 C 
ATOM     19  C   UNL     1       9.207   2.047  24.563  0.00  0.00    +0.001 C 
ATOM     20  C   UNL     1      10.282   1.534  23.614  0.00  0.00    +0.001 C 
ATOM     21  C   UNL     1      10.595   0.052  23.781  0.00  0.00    +0.017 C 
ATOM     22  C   UNL     1       9.662  -0.841  22.960  0.00  0.00    +0.105 C 
ENDBRANCH  13  16
ENDBRANCH   7  10
ENDBRANCH   4   7
BRANCH   1  23
ATOM     23  C   UNL     1       2.253  -6.182  26.013  0.00  0.00    +0.054 C 
BRANCH  23  24
ATOM     24  C   UNL     1       2.857  -5.868  27.389  0.00  0.00    +0.109 C 
BRANCH  24  26
ATOM     25  C   UNL     1       5.323  -5.883  27.481  0.00  0.00    +0.266 C 
ATOM     26  N   UNL     1       4.137  -5.202  27.307  0.00  0.00    -0.310 N 
ATOM     27  H   UNL     1       4.195  -4.225  27.037  0.00  0.00    +0.149 HD
ATOM     28  O   UNL     1       5.378  -7.071  27.789  0.00  0.00    -0.268 OA
BRANCH  25  33
ATOM     29  C   UNL     1       8.682  -2.212  26.485  0.00  0.00    +0.089 C 
ATOM     30  C   UNL     1       7.912  -3.422  26.816  0.00  0.00    +0.135 A 
ATOM     31  O   UNL     1       8.628  -4.548  27.079  0.00  0.00    -0.359 OA
ATOM     32  N   UNL     1       7.763  -5.592  27.358  0.00  0.00    -0.073 NA
ATOM     33  C   UNL     1       6.523  -5.079  27.259  0.00  0.00    +0.168 A 
ATOM     34  C   UNL     1       6.574  -3.702  26.924  0.00  0.00    +0.080 A 
ENDBRANCH  25  33
ENDBRANCH  24  26
ENDBRANCH  23  24
ENDBRANCH   1  23
TORSDOF 7
ENDMDL
MODEL 4
REMARK VINA RESULT:      -7.5      2.765     10.195
REMARK  Name = 
REMARK  8 active torsions:
REMARK  status: ('A' for Active; 'I' for Inactive)
REMARK    1  A    between atoms: C_1  and  C_2
REMARK    2  A    between atoms: C_4  and  C_7
REMARK    3  A    between atoms: N_9  and  C_10
REMARK    4  A    between atoms: C_10  and  C_11
REMARK    5  A    between atoms: C_11  and  C_12
REMARK    6  A    between atoms: C_15  and  S_18
REMARK    7  A    between atoms: S_18  and  N_21
REMARK    8  A    between atoms: N_24  and  N_25
REMARK                            x       y       z     vdW  Elec       q    Type
REMARK                         _______ _______ _______ _____ _____    ______ ____
ROOT
ATOM      1  C   UNL     1       9.259  -0.795  22.323  0.00  0.00    -0.046 A 
ATOM      2  C   UNL     1       8.484  -1.925  22.015  0.00  0.00    +0.005 A 
ATOM      3  C   UNL     1       8.364  -2.981  22.927  0.00  0.00    +0.029 A 
ATOM      4  C   UNL     1       9.007  -2.898  24.166  0.00  0.00    +0.109 A 
ATOM      5  C   UNL     1       9.729  -1.759  24.509  0.00  0.00    +0.029 A 
ATOM      6  C   UNL     1       9.834  -0.707  23.601  0.00  0.00    +0.005 A 
ENDROOT
BRANCH   4   7
ATOM      7  S   UNL     1       8.951  -4.261  25.301  0.00  0.00    +0.076 S 
ATOM      8  O   UNL     1       8.574  -3.784  26.614  0.00  0.00    -0.150 OA
ATOM      9  O   UNL     1      10.179  -5.011  25.115  0.00  0.00    -0.150 OA
BRANCH   7  10
ATOM     10  N   UNL     1       7.745  -5.250  24.735  0.00  0.00    -0.168 N 
ATOM     11  H   UNL     1       8.081  -6.020  24.174  0.00  0.00    +0.178 HD
ATOM     12  C   UNL     1       6.400  -5.010  24.962  0.00  0.00    +0.333 C 
ATOM     13  N   UNL     1       5.570  -5.997  24.458  0.00  0.00    -0.231 N 
ATOM     14  H   UNL     1       5.964  -6.787  23.963  0.00  0.00    +0.171 HD
ATOM     15  O   UNL     1       6.013  -4.004  25.536  0.00  0.00    -0.250 OA
BRANCH  13  16
ATOM     16  N   UNL     1       4.146  -5.941  24.572  0.00  0.00    -0.226 NA
ATOM     17  C   UNL     1       3.620  -7.223  25.067  0.00  0.00    +0.105 C 
ATOM     18  C   UNL     1       2.182  -7.135  25.573  0.00  0.00    +0.017 C 
ATOM     19  C   UNL     1       1.130  -7.396  24.501  0.00  0.00    +0.001 C 
ATOM     20  C   UNL     1       1.380  -6.732  23.153  0.00  0.00    +0.001 C 
ATOM     21  C   UNL     1       2.017  -5.350  23.255  0.00  0.00    +0.017 C 
ATOM     22  C   UNL     1       3.544  -5.413  23.335  0.00  0.00    +0.105 C 
ENDBRANCH  13  16
ENDBRANCH   7  10
ENDBRANCH   4   7
BRANCH   1  23
ATOM     23  C   UNL     1       9.434   0.313  21.302  0.00  0.00    +0.054 C 
BRANCH  23  24
ATOM     24  C   UNL     1       8.402   1.443  21.434  0.00  0.00    +0.109 C 
BRANCH  24  26
ATOM     25  C   UNL     1       8.802   3.050  23.263  0.00  0.00    +0.266 C 
ATOM     26  N   UNL     1       8.967   2.669  21.948  0.00  0.00    -0.310 N 
ATOM     27  H   UNL     1       9.573   3.242  21.369  0.00  0.00    +0.149 HD
ATOM     28  O   UNL     1       8.109   2.426  24.062  0.00  0.00    -0.268 OA
BRANCH  25  33
ATOM     29  C   UNL     1      12.296   6.536  24.441  0.00  0.00    +0.089 C 
ATOM     30  C   UNL     1      11.115   5.713  24.133  0.00  0.00    +0.135 A 
ATOM     31  O   UNL     1       9.903   6.319  24.244  0.00  0.00    -0.359 OA
ATOM     32  N   UNL     1       8.902   5.415  23.936  0.00  0.00    -0.073 NA
ATOM     33  C   UNL     1       9.529   4.261  23.639  0.00  0.00    +0.168 A 
ATOM     34  C   UNL     1      10.935   4.410  23.746  0.00  0.00    +0.080 A 
ENDBRANCH  25  33
ENDBRANCH  24  26
ENDBRANCH  23  24
ENDBRANCH   1  23
TORSDOF 7
ENDMDL
MODEL 5
REMARK VINA RESULT:      -7.3      3.336      5.430
REMARK  Name = 
REMARK  8 active torsions:
REMARK  status: ('A' for Active; 'I' for Inactive)
REMARK    1  A    between atoms: C_1  and  C_2
REMARK    2  A    between atoms: C_4  and  C_7
REMARK    3  A    between atoms: N_9  and  C_10
REMARK    4  A    between atoms: C_10  and  C_11
REMARK    5  A    between atoms: C_11  and  C_12
REMARK    6  A    between atoms: C_15  and  S_18
REMARK    7  A    between atoms: S_18  and  N_21
REMARK    8  A    between atoms: N_24  and  N_25
REMARK                            x       y       z     vdW  Elec       q    Type
REMARK                         _______ _______ _______ _____ _____    ______ ____
ROOT
ATOM      1  C   UNL     1       5.338  -6.268  26.420  0.00  0.00    -0.046 A 
ATOM      2  C   UNL     1       4.532  -6.699  25.353  0.00  0.00    +0.005 A 
ATOM      3  C   UNL     1       4.845  -6.349  24.033  0.00  0.00    +0.029 A 
ATOM      4  C   UNL     1       5.983  -5.579  23.776  0.00  0.00    +0.109 A 
ATOM      5  C   UNL     1       6.824  -5.195  24.815  0.00  0.00    +0.029 A 
ATOM      6  C   UNL     1       6.513  -5.557  26.126  0.00  0.00    +0.005 A 
ENDROOT
BRANCH   4   7
ATOM      7  S   UNL     1       6.350  -5.042  22.124  0.00  0.00    +0.076 S 
ATOM      8  O   UNL     1       5.232  -4.287  21.599  0.00  0.00    -0.150 OA
ATOM      9  O   UNL     1       6.856  -6.200  21.410  0.00  0.00    -0.150 OA
BRANCH   7  10
ATOM     10  N   UNL     1       7.648  -4.021  22.276  0.00  0.00    -0.168 N 
ATOM     11  H   UNL     1       8.542  -4.482  22.181  0.00  0.00    +0.178 HD
ATOM     12  C   UNL     1       7.521  -2.671  22.563  0.00  0.00    +0.333 C 
ATOM     13  N   UNL     1       8.728  -1.994  22.577  0.00  0.00    -0.231 N 
ATOM     14  H   UNL     1       9.592  -2.492  22.407  0.00  0.00    +0.171 HD
ATOM     15  O   UNL     1       6.436  -2.162  22.797  0.00  0.00    -0.250 OA
BRANCH  13  16
ATOM     16  N   UNL     1       8.825  -0.596  22.864  0.00  0.00    -0.226 NA
ATOM     17  C   UNL     1       9.584   0.092  21.809  0.00  0.00    +0.105 C 
ATOM     18  C   UNL     1       9.417   1.610  21.831  0.00  0.00    +0.017 C 
ATOM     19  C   UNL     1      10.438   2.335  22.700  0.00  0.00    +0.001 C 
ATOM     20  C   UNL     1      10.724   1.699  24.053  0.00  0.00    +0.001 C 
ATOM     21  C   UNL     1       9.502   1.065  24.708  0.00  0.00    +0.017 C 
ATOM     22  C   UNL     1       9.275  -0.378  24.251  0.00  0.00    +0.105 C 
ENDBRANCH  13  16
ENDBRANCH   7  10
ENDBRANCH   4   7
BRANCH   1  23
ATOM     23  C   UNL     1       4.954  -6.599  27.849  0.00  0.00    +0.054 C 
BRANCH  23  24
ATOM     24  C   UNL     1       4.352  -5.412  28.617  0.00  0.00    +0.109 C 
BRANCH  24  26
ATOM     25  C   UNL     1       4.194  -2.955  28.458  0.00  0.00    +0.266 C 
ATOM     26  N   UNL     1       4.354  -4.185  27.855  0.00  0.00    -0.310 N 
ATOM     27  H   UNL     1       4.558  -4.193  26.860  0.00  0.00    +0.149 HD
ATOM     28  O   UNL     1       3.964  -2.818  29.657  0.00  0.00    -0.268 OA
BRANCH  25  33
ATOM     29  C   UNL     1       5.723   0.482  25.053  0.00  0.00    +0.089 C 
ATOM     30  C   UNL     1       5.070  -0.372  26.058  0.00  0.00    +0.135 A 
ATOM     31  O   UNL     1       3.866   0.050  26.527  0.00  0.00    -0.359 OA
ATOM     32  N   UNL     1       3.394  -0.850  27.467  0.00  0.00    -0.073 NA
ATOM     33  C   UNL     1       4.329  -1.814  27.555  0.00  0.00    +0.168 A 
ATOM     34  C   UNL     1       5.406  -1.551  26.671  0.00  0.00    +0.080 A 
ENDBRANCH  25  33
ENDBRANCH  24  26
ENDBRANCH  23  24
ENDBRANCH   1  23
TORSDOF 7
ENDMDL
MODEL 6
REMARK VINA RESULT:      -7.3      2.386     10.000
REMARK  Name = 
REMARK  8 active torsions:
REMARK  status: ('A' for Active; 'I' for Inactive)
REMARK    1  A    between atoms: C_1  and  C_2
REMARK    2  A    between atoms: C_4  and  C_7
REMARK    3  A    between atoms: N_9  and  C_10
REMARK    4  A    between atoms: C_10  and  C_11
REMARK    5  A    between atoms: C_11  and  C_12
REMARK    6  A    between atoms: C_15  and  S_18
REMARK    7  A    between atoms: S_18  and  N_21
REMARK    8  A    between atoms: N_24  and  N_25
REMARK                            x       y       z     vdW  Elec       q    Type
REMARK                         _______ _______ _______ _____ _____    ______ ____
ROOT
ATOM      1  C   UNL     1      10.627   2.601  23.313  0.00  0.00    -0.046 A 
ATOM      2  C   UNL     1      10.146   2.109  22.088  0.00  0.00    +0.005 A 
ATOM      3  C   UNL     1       9.776   0.765  21.952  0.00  0.00    +0.029 A 
ATOM      4  C   UNL     1       9.869  -0.090  23.055  0.00  0.00    +0.109 A 
ATOM      5  C   UNL     1      10.286   0.396  24.290  0.00  0.00    +0.029 A 
ATOM      6  C   UNL     1      10.641   1.738  24.421  0.00  0.00    +0.005 A 
ENDROOT
BRANCH   4   7
ATOM      7  S   UNL     1       9.498  -1.818  22.886  0.00  0.00    +0.076 S 
ATOM      8  O   UNL     1      10.709  -2.593  23.047  0.00  0.00    -0.150 OA
ATOM      9  O   UNL     1       8.691  -1.957  21.688  0.00  0.00    -0.150 OA
BRANCH   7  10
ATOM     10  N   UNL     1       8.476  -2.169  24.144  0.00  0.00    -0.168 N 
ATOM     11  H   UNL     1       8.195  -1.359  24.678  0.00  0.00    +0.178 HD
ATOM     12  C   UNL     1       8.090  -3.459  24.469  0.00  0.00    +0.333 C 
ATOM     13  N   UNL     1       7.180  -3.518  25.510  0.00  0.00    -0.231 N 
ATOM     14  H   UNL     1       6.876  -2.668  25.967  0.00  0.00    +0.171 HD
ATOM     15  O   UNL     1       8.542  -4.433  23.887  0.00  0.00    -0.250 OA
BRANCH  13  16
ATOM     16  N   UNL     1       6.661  -4.752  26.013  0.00  0.00    -0.226 NA
ATOM     17  C   UNL     1       5.394  -5.085  25.342  0.00  0.00    +0.105 C 
ATOM     18  C   UNL     1       4.970  -6.540  25.533  0.00  0.00    +0.017 C 
ATOM     19  C   UNL     1       4.100  -6.777  26.762  0.00  0.00    +0.001 C 
ATOM     20  C   UNL     1       4.541  -6.063  28.032  0.00  0.00    +0.001 C 
ATOM     21  C   UNL     1       6.054  -5.972  28.195  0.00  0.00    +0.017 C 
ATOM     22  C   UNL     1       6.647  -4.752  27.486  0.00  0.00    +0.105 C 
ENDBRANCH  13  16
ENDBRANCH   7  10
ENDBRANCH   4   7
BRANCH   1  23
ATOM     23  C   UNL     1      11.085   4.042  23.430  0.00  0.00    +0.054 C 
BRANCH  23  24
ATOM     24  C   UNL     1       9.992   4.998  23.930  0.00  0.00    +0.109 C 
BRANCH  24  26
ATOM     25  C   UNL     1       7.745   5.180  22.926  0.00  0.00    +0.266 C 
ATOM     26  N   UNL     1       8.655   4.498  23.706  0.00  0.00    -0.310 N 
ATOM     27  H   UNL     1       8.380   3.584  24.053  0.00  0.00    +0.149 HD
ATOM     28  O   UNL     1       7.972   6.284  22.436  0.00  0.00    -0.268 OA
BRANCH  25  33
ATOM     29  C   UNL     1       2.876   3.782  22.624  0.00  0.00    +0.089 C 
ATOM     30  C   UNL     1       4.337   3.959  22.615  0.00  0.00    +0.135 A 
ATOM     31  O   UNL     1       5.077   2.896  22.199  0.00  0.00    -0.359 OA
ATOM     32  N   UNL     1       6.422   3.216  22.260  0.00  0.00    -0.073 NA
ATOM     33  C   UNL     1       6.479   4.480  22.718  0.00  0.00    +0.168 A 
ATOM     34  C   UNL     1       5.177   4.990  22.948  0.00  0.00    +0.080 A 
ENDBRANCH  25  33
ENDBRANCH  24  26
ENDBRANCH  23  24
ENDBRANCH   1  23
TORSDOF 7
ENDMDL
MODEL 7
REMARK VINA RESULT:      -7.2      2.634      8.981
REMARK  Name = 
REMARK  8 active torsions:
REMARK  status: ('A' for Active; 'I' for Inactive)
REMARK    1  A    between atoms: C_1  and  C_2
REMARK    2  A    between atoms: C_4  and  C_7
REMARK    3  A    between atoms: N_9  and  C_10
REMARK    4  A    between atoms: C_10  and  C_11
REMARK    5  A    between atoms: C_11  and  C_12
REMARK    6  A    between atoms: C_15  and  S_18
REMARK    7  A    between atoms: S_18  and  N_21
REMARK    8  A    between atoms: N_24  and  N_25
REMARK                            x       y       z     vdW  Elec       q    Type
REMARK                         _______ _______ _______ _____ _____    ______ ____
ROOT
ATOM      1  C   UNL     1      10.053   2.521  23.428  0.00  0.00    -0.046 A 
ATOM      2  C   UNL     1      10.169   1.660  24.532  0.00  0.00    +0.005 A 
ATOM      3  C   UNL     1      10.058   0.273  24.372  0.00  0.00    +0.029 A 
ATOM      4  C   UNL     1       9.849  -0.259  23.096  0.00  0.00    +0.109 A 
ATOM      5  C   UNL     1       9.792   0.576  21.985  0.00  0.00    +0.029 A 
ATOM      6  C   UNL     1       9.916   1.955  22.150  0.00  0.00    +0.005 A 
ENDROOT
BRANCH   4   7
ATOM      7  S   UNL     1       9.609  -2.004  22.879  0.00  0.00    +0.076 S 
ATOM      8  O   UNL     1      10.798  -2.714  23.298  0.00  0.00    -0.150 OA
ATOM      9  O   UNL     1       9.076  -2.189  21.542  0.00  0.00    -0.150 OA
BRANCH   7  10
ATOM     10  N   UNL     1       8.368  -2.404  23.904  0.00  0.00    -0.168 N 
ATOM     11  H   UNL     1       7.984  -1.616  24.405  0.00  0.00    +0.178 HD
ATOM     12  C   UNL     1       7.935  -3.706  24.098  0.00  0.00    +0.333 C 
ATOM     13  N   UNL     1       6.843  -3.805  24.943  0.00  0.00    -0.231 N 
ATOM     14  H   UNL     1       6.452  -2.974  25.366  0.00  0.00    +0.171 HD
ATOM     15  O   UNL     1       8.498  -4.656  23.575  0.00  0.00    -0.250 OA
BRANCH  13  16
ATOM     16  N   UNL     1       6.246  -5.058  25.288  0.00  0.00    -0.226 NA
ATOM     17  C   UNL     1       5.123  -5.355  24.385  0.00  0.00    +0.105 C 
ATOM     18  C   UNL     1       4.675  -6.815  24.432  0.00  0.00    +0.017 C 
ATOM     19  C   UNL     1       3.599  -7.102  25.472  0.00  0.00    +0.001 C 
ATOM     20  C   UNL     1       3.802  -6.448  26.832  0.00  0.00    +0.001 C 
ATOM     21  C   UNL     1       5.260  -6.371  27.268  0.00  0.00    +0.017 C 
ATOM     22  C   UNL     1       5.968  -5.123  26.733  0.00  0.00    +0.105 C 
ENDBRANCH  13  16
ENDBRANCH   7  10
ENDBRANCH   4   7
BRANCH   1  23
ATOM     23  C   UNL     1      10.111   4.024  23.622  0.00  0.00    +0.054 C 
BRANCH  23  24
ATOM     24  C   UNL     1       8.730   4.681  23.770  0.00  0.00    +0.109 C 
BRANCH  24  26
ATOM     25  C   UNL     1       6.740   3.226  23.662  0.00  0.00    +0.266 C 
ATOM     26  N   UNL     1       7.754   3.815  24.389  0.00  0.00    -0.310 N 
ATOM     27  H   UNL     1       7.841   3.552  25.365  0.00  0.00    +0.149 HD
ATOM     28  O   UNL     1       6.549   3.451  22.469  0.00  0.00    -0.268 OA
BRANCH  25  33
ATOM     29  C   UNL     1       4.872  -0.654  26.346  0.00  0.00    +0.089 C 
ATOM     30  C   UNL     1       5.182   0.571  25.592  0.00  0.00    +0.135 A 
ATOM     31  O   UNL     1       4.158   1.445  25.401  0.00  0.00    -0.359 OA
ATOM     32  N   UNL     1       4.606   2.531  24.669  0.00  0.00    -0.073 NA
ATOM     33  C   UNL     1       5.908   2.297  24.424  0.00  0.00    +0.168 A 
ATOM     34  C   UNL     1       6.315   1.066  24.999  0.00  0.00    +0.080 A 
ENDBRANCH  25  33
ENDBRANCH  24  26
ENDBRANCH  23  24
ENDBRANCH   1  23
TORSDOF 7
ENDMDL
MODEL 8
REMARK VINA RESULT:      -7.2      2.956     10.301
REMARK  Name = 
REMARK  8 active torsions:
REMARK  status: ('A' for Active; 'I' for Inactive)
REMARK    1  A    between atoms: C_1  and  C_2
REMARK    2  A    between atoms: C_4  and  C_7
REMARK    3  A    between atoms: N_9  and  C_10
REMARK    4  A    between atoms: C_10  and  C_11
REMARK    5  A    between atoms: C_11  and  C_12
REMARK    6  A    between atoms: C_15  and  S_18
REMARK    7  A    between atoms: S_18  and  N_21
REMARK    8  A    between atoms: N_24  and  N_25
REMARK                            x       y       z     vdW  Elec       q    Type
REMARK                         _______ _______ _______ _____ _____    ______ ____
ROOT
ATOM      1  C   UNL     1       9.989  -0.006  23.983  0.00  0.00    -0.046 A 
ATOM      2  C   UNL     1      10.197  -1.144  23.187  0.00  0.00    +0.005 A 
ATOM      3  C   UNL     1       9.782  -2.409  23.623  0.00  0.00    +0.029 A 
ATOM      4  C   UNL     1       9.137  -2.534  24.858  0.00  0.00    +0.109 A 
ATOM      5  C   UNL     1       8.870  -1.409  25.631  0.00  0.00    +0.029 A 
ATOM      6  C   UNL     1       9.275  -0.151  25.184  0.00  0.00    +0.005 A 
ENDROOT
BRANCH   4   7
ATOM      7  S   UNL     1       8.687  -4.135  25.478  0.00  0.00    +0.076 S 
ATOM      8  O   UNL     1       8.843  -4.160  26.916  0.00  0.00    -0.150 OA
ATOM      9  O   UNL     1       9.368  -5.111  24.648  0.00  0.00    -0.150 OA
BRANCH   7  10
ATOM     10  N   UNL     1       7.077  -4.305  25.119  0.00  0.00    -0.168 N 
ATOM     11  H   UNL     1       6.712  -3.571  24.528  0.00  0.00    +0.178 HD
ATOM     12  C   UNL     1       6.290  -5.326  25.628  0.00  0.00    +0.333 C 
ATOM     13  N   UNL     1       4.993  -5.317  25.146  0.00  0.00    -0.231 N 
ATOM     14  H   UNL     1       4.697  -4.597  24.499  0.00  0.00    +0.171 HD
ATOM     15  O   UNL     1       6.724  -6.128  26.441  0.00  0.00    -0.250 OA
BRANCH  13  16
ATOM     16  N   UNL     1       4.012  -6.275  25.552  0.00  0.00    -0.226 NA
ATOM     17  C   UNL     1       3.313  -6.820  24.378  0.00  0.00    +0.105 C 
ATOM     18  C   UNL     1       2.532  -8.099  24.676  0.00  0.00    +0.017 C 
ATOM     19  C   UNL     1       1.093  -7.860  25.119  0.00  0.00    +0.001 C 
ATOM     20  C   UNL     1       0.889  -6.733  26.122  0.00  0.00    +0.001 C 
ATOM     21  C   UNL     1       2.016  -6.602  27.141  0.00  0.00    +0.017 C 
ATOM     22  C   UNL     1       3.168  -5.733  26.632  0.00  0.00    +0.105 C 
ENDBRANCH  13  16
ENDBRANCH   7  10
ENDBRANCH   4   7
BRANCH   1  23
ATOM     23  C   UNL     1      10.499   1.348  23.529  0.00  0.00    +0.054 C 
BRANCH  23  24
ATOM     24  C   UNL     1       9.996   1.763  22.138  0.00  0.00    +0.109 C 
BRANCH  24  26
ATOM     25  C   UNL     1       7.636   2.475  22.247  0.00  0.00    +0.266 C 
ATOM     26  N   UNL     1       8.979   2.787  22.187  0.00  0.00    -0.310 N 
ATOM     27  H   UNL     1       9.234   3.767  22.260  0.00  0.00    +0.149 HD
ATOM     28  O   UNL     1       7.209   1.325  22.187  0.00  0.00    -0.268 OA
BRANCH  25  33
ATOM     29  C   UNL     1       3.718   5.627  22.925  0.00  0.00    +0.089 C 
ATOM     30  C   UNL     1       4.993   4.925  22.709  0.00  0.00    +0.135 A 
ATOM     31  O   UNL     1       6.086   5.701  22.484  0.00  0.00    -0.359 OA
ATOM     32  N   UNL     1       7.195   4.895  22.289  0.00  0.00    -0.073 NA
ATOM     33  C   UNL     1       6.752   3.629  22.398  0.00  0.00    +0.168 A 
ATOM     34  C   UNL     1       5.361   3.605  22.672  0.00  0.00    +0.080 A 
ENDBRANCH  25  33
ENDBRANCH  24  26
ENDBRANCH  23  24
ENDBRANCH   1  23
TORSDOF 7
ENDMDL
MODEL 9
REMARK VINA RESULT:      -7.1      1.301      1.685
REMARK  Name = 
REMARK  8 active torsions:
REMARK  status: ('A' for Active; 'I' for Inactive)
REMARK    1  A    between atoms: C_1  and  C_2
REMARK    2  A    between atoms: C_4  and  C_7
REMARK    3  A    between atoms: N_9  and  C_10
REMARK    4  A    between atoms: C_10  and  C_11
REMARK    5  A    between atoms: C_11  and  C_12
REMARK    6  A    between atoms: C_15  and  S_18
REMARK    7  A    between atoms: S_18  and  N_21
REMARK    8  A    between atoms: N_24  and  N_25
REMARK                            x       y       z     vdW  Elec       q    Type
REMARK                         _______ _______ _______ _____ _____    ______ ____
ROOT
ATOM      1  C   UNL     1       5.733  -4.640  23.130  0.00  0.00    -0.046 A 
ATOM      2  C   UNL     1       5.404  -3.311  22.818  0.00  0.00    +0.005 A 
ATOM      3  C   UNL     1       6.402  -2.336  22.693  0.00  0.00    +0.029 A 
ATOM      4  C   UNL     1       7.742  -2.697  22.862  0.00  0.00    +0.109 A 
ATOM      5  C   UNL     1       8.089  -4.021  23.112  0.00  0.00    +0.029 A 
ATOM      6  C   UNL     1       7.091  -4.989  23.222  0.00  0.00    +0.005 A 
ENDROOT
BRANCH   4   7
ATOM      7  S   UNL     1       9.019  -1.465  22.804  0.00  0.00    +0.076 S 
ATOM      8  O   UNL     1       9.644  -1.474  21.499  0.00  0.00    -0.150 OA
ATOM      9  O   UNL     1       9.818  -1.635  24.004  0.00  0.00    -0.150 OA
BRANCH   7  10
ATOM     10  N   UNL     1       8.235  -0.017  23.003  0.00  0.00    -0.168 N 
ATOM     11  H   UNL     1       7.275  -0.111  23.303  0.00  0.00    +0.178 HD
ATOM     12  C   UNL     1       8.824   1.207  22.729  0.00  0.00    +0.333 C 
ATOM     13  N   UNL     1       8.015   2.289  23.030  0.00  0.00    -0.231 N 
ATOM     14  H   UNL     1       7.084   2.140  23.395  0.00  0.00    +0.171 HD
ATOM     15  O   UNL     1       9.944   1.289  22.248  0.00  0.00    -0.250 OA
BRANCH  13  16
ATOM     16  N   UNL     1       8.423   3.642  22.812  0.00  0.00    -0.226 NA
ATOM     17  C   UNL     1       9.082   4.178  24.013  0.00  0.00    +0.105 C 
ATOM     18  C   UNL     1       9.875   5.458  23.752  0.00  0.00    +0.017 C 
ATOM     19  C   UNL     1       9.063   6.737  23.923  0.00  0.00    +0.001 C 
ATOM     20  C   UNL     1       7.662   6.715  23.328  0.00  0.00    +0.001 C 
ATOM     21  C   UNL     1       7.557   5.933  22.024  0.00  0.00    +0.017 C 
ATOM     22  C   UNL     1       7.316   4.439  22.254  0.00  0.00    +0.105 C 
ENDBRANCH  13  16
ENDBRANCH   7  10
ENDBRANCH   4   7
BRANCH   1  23
ATOM     23  C   UNL     1       4.640  -5.673  23.326  0.00  0.00    +0.054 C 
BRANCH  23  24
ATOM     24  C   UNL     1       4.977  -6.736  24.382  0.00  0.00    +0.109 C 
BRANCH  24  26
ATOM     25  C   UNL     1       5.690  -5.937  26.605  0.00  0.00    +0.266 C 
ATOM     26  N   UNL     1       4.689  -6.305  25.730  0.00  0.00    -0.310 N 
ATOM     27  H   UNL     1       3.730  -6.185  26.042  0.00  0.00    +0.149 HD
ATOM     28  O   UNL     1       6.885  -6.020  26.334  0.00  0.00    -0.268 OA
BRANCH  25  33
ATOM     29  C   UNL     1       2.980  -4.103  30.484  0.00  0.00    +0.089 C 
ATOM     30  C   UNL     1       3.960  -4.635  29.523  0.00  0.00    +0.135 A 
ATOM     31  O   UNL     1       5.240  -4.762  29.964  0.00  0.00    -0.359 OA
ATOM     32  N   UNL     1       6.034  -5.259  28.945  0.00  0.00    -0.073 NA
ATOM     33  C   UNL     1       5.215  -5.427  27.890  0.00  0.00    +0.168 A 
ATOM     34  C   UNL     1       3.889  -5.049  28.218  0.00  0.00    +0.080 A 
ENDBRANCH  25  33
ENDBRANCH  24  26
ENDBRANCH  23  24
ENDBRANCH   1  23
TORSDOF 7
ENDMDL
