MODEL 1
REMARK VINA RESULT:      -6.4      0.000      0.000
REMARK  Name = 
REMARK  30 active torsions:
REMARK  status: ('A' for Active; 'I' for Inactive)
REMARK    1  A    between atoms: C_1  and  C_2
REMARK    2  A    between atoms: C_2  and  C_4
REMARK    3  A    between atoms: C_4  and  S_6
REMARK    4  A    between atoms: S_6  and  C_7
REMARK    5  A    between atoms: C_7  and  C_8
REMARK    6  A    between atoms: C_8  and  N_9
REMARK    7  A    between atoms: C_10  and  C_12
REMARK    8  A    between atoms: C_12  and  C_13
REMARK    9  A    between atoms: C_13  and  N_14
REMARK   10  A    between atoms: C_15  and  C_17
REMARK   11  A    between atoms: C_17  and  O_19
REMARK   12  A    between atoms: C_17  and  C_20
REMARK   13  A    between atoms: C_20  and  C_21
REMARK   14  A    between atoms: C_20  and  C_22
REMARK   15  A    between atoms: C_20  and  C_23
REMARK   16  A    between atoms: C_23  and  O_24
REMARK   17  A    between atoms: O_24  and  P_25
REMARK   18  A    between atoms: P_25  and  O_26
REMARK   19  A    between atoms: P_25  and  O_28
REMARK   20  A    between atoms: O_28  and  P_29
REMARK   21  A    between atoms: P_29  and  O_30
REMARK   22  A    between atoms: P_29  and  O_32
REMARK   23  A    between atoms: O_32  and  C_33
REMARK   24  A    between atoms: C_33  and  C_34
REMARK   25  A    between atoms: C_37  and  N_49
REMARK   26  A    between atoms: C_39  and  O_41
REMARK   27  A    between atoms: C_42  and  O_44
REMARK   28  A    between atoms: O_44  and  P_45
REMARK   29  A    between atoms: P_45  and  O_46
REMARK   30  A    between atoms: P_45  and  O_47
REMARK                            x       y       z     vdW  Elec       q    Type
REMARK                         _______ _______ _______ _____ _____    ______ ____
ROOT
ATOM      1  P   UNL     1       9.247  -2.614  23.674  0.00  0.00    +0.483 P 
ATOM      2  O   UNL     1      10.419  -1.972  23.008  0.00  0.00    -0.227 OA
ENDROOT
BRANCH   1   3
ATOM      3  O   UNL     1       8.350  -3.428  22.639  0.00  0.00    -0.302 OA
ATOM      4  H   UNL     1       7.608  -3.884  23.073  0.00  0.00    +0.222 HD
ENDBRANCH   1   3
BRANCH   1   5
ATOM      5  O   UNL     1       8.171  -1.682  24.415  0.00  0.00    -0.186 OA
BRANCH   5   6
ATOM      6  P   UNL     1       7.084  -0.496  23.781  0.00  0.00    +0.483 P 
ATOM      7  O   UNL     1       6.387  -1.565  22.941  0.00  0.00    -0.227 OA
BRANCH   6   8
ATOM      8  O   UNL     1       5.997   0.690  23.147  0.00  0.00    -0.302 OA
ATOM      9  H   UNL     1       5.107   0.301  23.030  0.00  0.00    +0.222 HD
ENDBRANCH   6   8
BRANCH   6  10
ATOM     10  O   UNL     1       6.376  -0.376  25.255  0.00  0.00    -0.286 OA
BRANCH  10  11
ATOM     11  C   UNL     1       7.192  -0.052  26.379  0.00  0.00    +0.181 C 
BRANCH  11  12
ATOM     12  C   UNL     1       6.623   0.996  27.365  0.00  0.00    +0.024 C 
ATOM     13  C   UNL     1       5.093   0.809  27.449  0.00  0.00    +0.016 C 
ATOM     14  C   UNL     1       7.234   0.806  28.763  0.00  0.00    +0.016 C 
BRANCH  12  15
ATOM     15  C   UNL     1       6.942   2.449  26.880  0.00  0.00    +0.208 C 
BRANCH  15  18
ATOM     16  N   UNL     1       5.489   2.878  24.914  0.00  0.00    -0.313 N 
ATOM     17  H   UNL     1       5.910   2.031  24.553  0.00  0.00    +0.149 HD
ATOM     18  C   UNL     1       5.729   3.179  26.237  0.00  0.00    +0.242 C 
ATOM     19  O   UNL     1       5.020   3.963  26.858  0.00  0.00    -0.273 OA
BRANCH  16  20
ATOM     20  C   UNL     1       4.444   3.510  24.114  0.00  0.00    +0.113 C 
BRANCH  20  21
ATOM     21  C   UNL     1       4.854   4.120  22.772  0.00  0.00    +0.114 C 
BRANCH  21  24
ATOM     22  N   UNL     1       7.050   5.238  22.681  0.00  0.00    -0.314 N 
ATOM     23  H   UNL     1       7.422   4.303  22.778  0.00  0.00    +0.149 HD
ATOM     24  C   UNL     1       5.688   5.393  22.801  0.00  0.00    +0.215 C 
ATOM     25  O   UNL     1       5.128   6.483  22.872  0.00  0.00    -0.276 OA
BRANCH  22  26
ATOM     26  C   UNL     1       8.050   6.297  22.687  0.00  0.00    +0.115 C 
BRANCH  26  27
ATOM     27  C   UNL     1       9.301   6.077  23.527  0.00  0.00    +0.096 C 
BRANCH  27  28
ATOM     28  S   UNL     1       9.150   4.496  24.399  0.00  0.00    -0.082 S 
BRANCH  28  29
ATOM     29  C   UNL     1      10.471   3.630  23.634  0.00  0.00    +0.215 C 
ATOM     30  O   UNL     1      11.478   4.195  23.242  0.00  0.00    -0.280 OA
BRANCH  29  32
ATOM     31  C   UNL     1       9.990   1.695  22.072  0.00  0.00    +0.047 C 
ATOM     32  C   UNL     1      10.281   2.144  23.474  0.00  0.00    -0.004 C 
ATOM     33  C   UNL     1      10.353   1.256  24.481  0.00  0.00    +0.016 C 
ENDBRANCH  29  32
ENDBRANCH  28  29
ENDBRANCH  27  28
ENDBRANCH  26  27
ENDBRANCH  22  26
ENDBRANCH  21  24
ENDBRANCH  20  21
ENDBRANCH  16  20
ENDBRANCH  15  18
BRANCH  15  34
ATOM     34  O   UNL     1       7.516   3.211  27.942  0.00  0.00    -0.382 OA
ATOM     35  H   UNL     1       8.345   3.592  27.607  0.00  0.00    +0.210 HD
ENDBRANCH  15  34
ENDBRANCH  12  15
ENDBRANCH  11  12
ENDBRANCH  10  11
ENDBRANCH   6  10
ENDBRANCH   5   6
ENDBRANCH   1   5
BRANCH   1  36
ATOM     36  O   UNL     1       9.697  -3.761  24.737  0.00  0.00    -0.284 OA
BRANCH  36  37
ATOM     37  C   UNL     1       8.949  -3.879  25.966  0.00  0.00    +0.206 C 
BRANCH  37  38
ATOM     38  C   UNL     1       8.009  -5.128  26.032  0.00  0.00    +0.179 C 
ATOM     39  C   UNL     1       6.971  -5.034  27.171  0.00  0.00    +0.194 C 
ATOM     40  C   UNL     1       5.739  -4.395  26.537  0.00  0.00    +0.196 C 
ATOM     41  C   UNL     1       6.024  -4.423  25.031  0.00  0.00    +0.253 C 
ATOM     42  O   UNL     1       7.194  -5.250  24.833  0.00  0.00    -0.346 OA
BRANCH  41  43
ATOM     43  N   UNL     1       4.893  -4.899  24.247  0.00  0.00    -0.286 N 
ATOM     44  C   UNL     1       4.201  -6.055  24.523  0.00  0.00    +0.167 A 
ATOM     45  N   UNL     1       4.443  -6.939  25.510  0.00  0.00    -0.216 NA
ATOM     46  C   UNL     1       3.535  -7.941  25.484  0.00  0.00    +0.225 A 
ATOM     47  N   UNL     1       2.520  -8.133  24.613  0.00  0.00    -0.219 NA
ATOM     48  C   UNL     1       2.342  -7.232  23.620  0.00  0.00    +0.147 A 
ATOM     49  N   UNL     1       1.309  -7.461  22.720  0.00  0.00    -0.341 N 
ATOM     50  H   UNL     1       0.990  -6.629  22.235  0.00  0.00    +0.144 HD
ATOM     51  H   UNL     1       0.606  -8.088  23.090  0.00  0.00    +0.144 HD
ATOM     52  C   UNL     1       3.201  -6.118  23.563  0.00  0.00    +0.147 A 
ATOM     53  N   UNL     1       3.270  -5.022  22.722  0.00  0.00    -0.231 NA
ATOM     54  C   UNL     1       4.286  -4.310  23.178  0.00  0.00    +0.203 A 
ENDBRANCH  41  43
BRANCH  40  55
ATOM     55  O   UNL     1       5.554  -3.062  27.015  0.00  0.00    -0.385 OA
ATOM     56  H   UNL     1       5.975  -3.027  27.901  0.00  0.00    +0.210 HD
ENDBRANCH  40  55
BRANCH  39  57
ATOM     57  O   UNL     1       6.542  -6.333  27.606  0.00  0.00    -0.278 OA
BRANCH  57  58
ATOM     58  P   UNL     1       5.933  -6.473  29.075  0.00  0.00    +0.473 P 
ATOM     59  O   UNL     1       5.798  -5.186  29.808  0.00  0.00    -0.228 OA
BRANCH  58  60
ATOM     60  O   UNL     1       4.596  -7.294  28.829  0.00  0.00    -0.303 OA
ATOM     61  H   UNL     1       3.779  -6.862  29.143  0.00  0.00    +0.222 HD
ENDBRANCH  58  60
BRANCH  58  62
ATOM     62  O   UNL     1       6.914  -7.552  29.728  0.00  0.00    -0.303 OA
ATOM     63  H   UNL     1       6.493  -8.085  30.425  0.00  0.00    +0.222 HD
ENDBRANCH  58  62
ENDBRANCH  57  58
ENDBRANCH  39  57
ENDBRANCH  37  38
ENDBRANCH  36  37
ENDBRANCH   1  36
TORSDOF 27
ENDMDL
MODEL 2
REMARK VINA RESULT:      -6.3      3.204      5.830
REMARK  Name = 
REMARK  30 active torsions:
REMARK  status: ('A' for Active; 'I' for Inactive)
REMARK    1  A    between atoms: C_1  and  C_2
REMARK    2  A    between atoms: C_2  and  C_4
REMARK    3  A    between atoms: C_4  and  S_6
REMARK    4  A    between atoms: S_6  and  C_7
REMARK    5  A    between atoms: C_7  and  C_8
REMARK    6  A    between atoms: C_8  and  N_9
REMARK    7  A    between atoms: C_10  and  C_12
REMARK    8  A    between atoms: C_12  and  C_13
REMARK    9  A    between atoms: C_13  and  N_14
REMARK   10  A    between atoms: C_15  and  C_17
REMARK   11  A    between atoms: C_17  and  O_19
REMARK   12  A    between atoms: C_17  and  C_20
REMARK   13  A    between atoms: C_20  and  C_21
REMARK   14  A    between atoms: C_20  and  C_22
REMARK   15  A    between atoms: C_20  and  C_23
REMARK   16  A    between atoms: C_23  and  O_24
REMARK   17  A    between atoms: O_24  and  P_25
REMARK   18  A    between atoms: P_25  and  O_26
REMARK   19  A    between atoms: P_25  and  O_28
REMARK   20  A    between atoms: O_28  and  P_29
REMARK   21  A    between atoms: P_29  and  O_30
REMARK   22  A    between atoms: P_29  and  O_32
REMARK   23  A    between atoms: O_32  and  C_33
REMARK   24  A    between atoms: C_33  and  C_34
REMARK   25  A    between atoms: C_37  and  N_49
REMARK   26  A    between atoms: C_39  and  O_41
REMARK   27  A    between atoms: C_42  and  O_44
REMARK   28  A    between atoms: O_44  and  P_45
REMARK   29  A    between atoms: P_45  and  O_46
REMARK   30  A    between atoms: P_45  and  O_47
REMARK                            x       y       z     vdW  Elec       q    Type
REMARK                         _______ _______ _______ _____ _____    ______ ____
ROOT
ATOM      1  P   UNL     1       9.772   1.069  22.695  0.00  0.00    +0.483 P 
ATOM      2  O   UNL     1      10.987   0.868  23.539  0.00  0.00    -0.227 OA
ENDROOT
BRANCH   1   3
ATOM      3  O   UNL     1      10.060   2.043  21.467  0.00  0.00    -0.302 OA
ATOM      4  H   UNL     1      10.989   2.004  21.176  0.00  0.00    +0.222 HD
ENDBRANCH   1   3
BRANCH   1   5
ATOM      5  O   UNL     1       8.465   1.719  23.360  0.00  0.00    -0.186 OA
BRANCH   5   6
ATOM      6  P   UNL     1       7.422   2.977  22.793  0.00  0.00    +0.483 P 
ATOM      7  O   UNL     1       6.585   2.874  24.067  0.00  0.00    -0.227 OA
BRANCH   6   8
ATOM      8  O   UNL     1       6.378   4.234  22.227  0.00  0.00    -0.302 OA
ATOM      9  H   UNL     1       6.343   4.961  22.881  0.00  0.00    +0.222 HD
ENDBRANCH   6   8
BRANCH   6  10
ATOM     10  O   UNL     1       8.637   4.058  22.994  0.00  0.00    -0.286 OA
BRANCH  10  11
ATOM     11  C   UNL     1       8.958   4.488  24.316  0.00  0.00    +0.181 C 
BRANCH  11  12
ATOM     12  C   UNL     1       9.026   6.016  24.547  0.00  0.00    +0.024 C 
ATOM     13  C   UNL     1      10.467   6.382  24.966  0.00  0.00    +0.016 C 
ATOM     14  C   UNL     1       8.666   6.772  23.259  0.00  0.00    +0.016 C 
BRANCH  12  15
ATOM     15  C   UNL     1       8.032   6.456  25.673  0.00  0.00    +0.208 C 
BRANCH  15  18
ATOM     16  N   UNL     1       6.108   5.083  26.433  0.00  0.00    -0.313 N 
ATOM     17  H   UNL     1       6.602   5.074  27.317  0.00  0.00    +0.149 HD
ATOM     18  C   UNL     1       6.579   5.944  25.465  0.00  0.00    +0.242 C 
ATOM     19  O   UNL     1       5.884   6.284  24.514  0.00  0.00    -0.273 OA
BRANCH  16  20
ATOM     20  C   UNL     1       4.800   4.439  26.381  0.00  0.00    +0.113 C 
BRANCH  20  21
ATOM     21  C   UNL     1       4.255   3.838  27.678  0.00  0.00    +0.114 C 
BRANCH  21  24
ATOM     22  N   UNL     1       4.333   1.899  29.199  0.00  0.00    -0.314 N 
ATOM     23  H   UNL     1       3.455   2.259  29.547  0.00  0.00    +0.149 HD
ATOM     24  C   UNL     1       5.018   2.672  28.290  0.00  0.00    +0.215 C 
ATOM     25  O   UNL     1       6.166   2.437  27.920  0.00  0.00    -0.276 OA
BRANCH  22  26
ATOM     26  C   UNL     1       4.847   0.741  29.919  0.00  0.00    +0.115 C 
BRANCH  26  27
ATOM     27  C   UNL     1       4.074  -0.565  29.790  0.00  0.00    +0.096 C 
BRANCH  27  28
ATOM     28  S   UNL     1       2.520  -0.243  28.916  0.00  0.00    -0.082 S 
BRANCH  28  29
ATOM     29  C   UNL     1       3.028  -0.653  27.287  0.00  0.00    +0.215 C 
ATOM     30  O   UNL     1       3.480   0.178  26.518  0.00  0.00    -0.280 OA
BRANCH  29  32
ATOM     31  C   UNL     1       1.460  -2.480  26.503  0.00  0.00    +0.047 C 
ATOM     32  C   UNL     1       2.857  -2.096  26.887  0.00  0.00    -0.004 C 
ATOM     33  C   UNL     1       3.852  -3.001  26.866  0.00  0.00    +0.016 C 
ENDBRANCH  29  32
ENDBRANCH  28  29
ENDBRANCH  27  28
ENDBRANCH  26  27
ENDBRANCH  22  26
ENDBRANCH  21  24
ENDBRANCH  20  21
ENDBRANCH  16  20
ENDBRANCH  15  18
BRANCH  15  34
ATOM     34  O   UNL     1       8.544   6.093  26.955  0.00  0.00    -0.382 OA
ATOM     35  H   UNL     1       9.248   6.725  27.173  0.00  0.00    +0.210 HD
ENDBRANCH  15  34
ENDBRANCH  12  15
ENDBRANCH  11  12
ENDBRANCH  10  11
ENDBRANCH   6  10
ENDBRANCH   5   6
ENDBRANCH   1   5
BRANCH   1  36
ATOM     36  O   UNL     1       9.300  -0.304  21.959  0.00  0.00    -0.284 OA
BRANCH  36  37
ATOM     37  C   UNL     1       9.981  -1.529  22.306  0.00  0.00    +0.206 C 
BRANCH  37  38
ATOM     38  C   UNL     1       9.486  -2.188  23.635  0.00  0.00    +0.179 C 
ATOM     39  C   UNL     1       8.493  -1.294  24.410  0.00  0.00    +0.194 C 
ATOM     40  C   UNL     1       7.111  -1.718  23.924  0.00  0.00    +0.196 C 
ATOM     41  C   UNL     1       7.360  -3.005  23.129  0.00  0.00    +0.253 C 
ATOM     42  O   UNL     1       8.728  -3.404  23.381  0.00  0.00    -0.346 OA
BRANCH  41  43
ATOM     43  N   UNL     1       6.423  -4.069  23.460  0.00  0.00    -0.286 N 
ATOM     44  C   UNL     1       6.408  -4.730  24.666  0.00  0.00    +0.167 A 
ATOM     45  N   UNL     1       7.236  -4.546  25.711  0.00  0.00    -0.216 NA
ATOM     46  C   UNL     1       6.898  -5.362  26.736  0.00  0.00    +0.225 A 
ATOM     47  N   UNL     1       5.913  -6.285  26.784  0.00  0.00    -0.219 NA
ATOM     48  C   UNL     1       5.130  -6.453  25.694  0.00  0.00    +0.147 A 
ATOM     49  N   UNL     1       4.140  -7.425  25.754  0.00  0.00    -0.341 N 
ATOM     50  H   UNL     1       3.381  -7.285  25.097  0.00  0.00    +0.144 HD
ATOM     51  H   UNL     1       3.899  -7.671  26.706  0.00  0.00    +0.144 HD
ATOM     52  C   UNL     1       5.358  -5.632  24.573  0.00  0.00    +0.147 A 
ATOM     53  N   UNL     1       4.735  -5.522  23.342  0.00  0.00    -0.231 NA
ATOM     54  C   UNL     1       5.394  -4.563  22.716  0.00  0.00    +0.203 A 
ENDBRANCH  41  43
BRANCH  40  55
ATOM     55  O   UNL     1       6.524  -0.701  23.112  0.00  0.00    -0.385 OA
ATOM     56  H   UNL     1       7.265  -0.146  22.787  0.00  0.00    +0.210 HD
ENDBRANCH  40  55
BRANCH  39  57
ATOM     57  O   UNL     1       8.505  -1.584  25.816  0.00  0.00    -0.278 OA
BRANCH  57  58
ATOM     58  P   UNL     1       7.946  -0.476  26.820  0.00  0.00    +0.473 P 
ATOM     59  O   UNL     1       6.584  -0.759  27.348  0.00  0.00    -0.228 OA
BRANCH  58  60
ATOM     60  O   UNL     1       9.110  -0.345  27.891  0.00  0.00    -0.303 OA
ATOM     61  H   UNL     1       9.082  -0.997  28.618  0.00  0.00    +0.222 HD
ENDBRANCH  58  60
BRANCH  58  62
ATOM     62  O   UNL     1       8.096   0.854  25.947  0.00  0.00    -0.303 OA
ATOM     63  H   UNL     1       8.020   1.670  26.471  0.00  0.00    +0.222 HD
ENDBRANCH  58  62
ENDBRANCH  57  58
ENDBRANCH  39  57
ENDBRANCH  37  38
ENDBRANCH  36  37
ENDBRANCH   1  36
TORSDOF 27
ENDMDL
MODEL 3
REMARK VINA RESULT:      -6.3      3.345      7.026
REMARK  Name = 
REMARK  30 active torsions:
REMARK  status: ('A' for Active; 'I' for Inactive)
REMARK    1  A    between atoms: C_1  and  C_2
REMARK    2  A    between atoms: C_2  and  C_4
REMARK    3  A    between atoms: C_4  and  S_6
REMARK    4  A    between atoms: S_6  and  C_7
REMARK    5  A    between atoms: C_7  and  C_8
REMARK    6  A    between atoms: C_8  and  N_9
REMARK    7  A    between atoms: C_10  and  C_12
REMARK    8  A    between atoms: C_12  and  C_13
REMARK    9  A    between atoms: C_13  and  N_14
REMARK   10  A    between atoms: C_15  and  C_17
REMARK   11  A    between atoms: C_17  and  O_19
REMARK   12  A    between atoms: C_17  and  C_20
REMARK   13  A    between atoms: C_20  and  C_21
REMARK   14  A    between atoms: C_20  and  C_22
REMARK   15  A    between atoms: C_20  and  C_23
REMARK   16  A    between atoms: C_23  and  O_24
REMARK   17  A    between atoms: O_24  and  P_25
REMARK   18  A    between atoms: P_25  and  O_26
REMARK   19  A    between atoms: P_25  and  O_28
REMARK   20  A    between atoms: O_28  and  P_29
REMARK   21  A    between atoms: P_29  and  O_30
REMARK   22  A    between atoms: P_29  and  O_32
REMARK   23  A    between atoms: O_32  and  C_33
REMARK   24  A    between atoms: C_33  and  C_34
REMARK   25  A    between atoms: C_37  and  N_49
REMARK   26  A    between atoms: C_39  and  O_41
REMARK   27  A    between atoms: C_42  and  O_44
REMARK   28  A    between atoms: O_44  and  P_45
REMARK   29  A    between atoms: P_45  and  O_46
REMARK   30  A    between atoms: P_45  and  O_47
REMARK                            x       y       z     vdW  Elec       q    Type
REMARK                         _______ _______ _______ _____ _____    ______ ____
ROOT
ATOM      1  P   UNL     1       4.834   3.945  27.816  0.00  0.00    +0.483 P 
ATOM      2  O   UNL     1       3.672   4.007  26.882  0.00  0.00    -0.227 OA
ENDROOT
BRANCH   1   3
ATOM      3  O   UNL     1       4.485   4.574  29.238  0.00  0.00    -0.302 OA
ATOM      4  H   UNL     1       4.290   3.892  29.905  0.00  0.00    +0.222 HD
ENDBRANCH   1   3
BRANCH   1   5
ATOM      5  O   UNL     1       6.189   4.706  27.418  0.00  0.00    -0.186 OA
BRANCH   5   6
ATOM      6  P   UNL     1       7.210   5.747  28.349  0.00  0.00    +0.483 P 
ATOM      7  O   UNL     1       7.529   4.599  29.305  0.00  0.00    -0.227 OA
BRANCH   6   8
ATOM      8  O   UNL     1       8.231   6.787  29.280  0.00  0.00    -0.302 OA
ATOM      9  H   UNL     1       7.936   7.716  29.189  0.00  0.00    +0.222 HD
ENDBRANCH   6   8
BRANCH   6  10
ATOM     10  O   UNL     1       8.285   5.777  27.112  0.00  0.00    -0.286 OA
BRANCH  10  11
ATOM     11  C   UNL     1       7.933   6.472  25.918  0.00  0.00    +0.181 C 
BRANCH  11  12
ATOM     12  C   UNL     1       8.451   5.870  24.590  0.00  0.00    +0.024 C 
ATOM     13  C   UNL     1       7.964   6.761  23.427  0.00  0.00    +0.016 C 
ATOM     14  C   UNL     1       9.987   5.824  24.584  0.00  0.00    +0.016 C 
BRANCH  12  15
ATOM     15  C   UNL     1       7.912   4.415  24.389  0.00  0.00    +0.208 C 
BRANCH  15  18
ATOM     16  N   UNL     1       9.483   2.948  23.148  0.00  0.00    -0.313 N 
ATOM     17  H   UNL     1       9.742   2.624  24.071  0.00  0.00    +0.149 HD
ATOM     18  C   UNL     1       8.368   3.752  23.059  0.00  0.00    +0.242 C 
ATOM     19  O   UNL     1       7.777   3.918  21.998  0.00  0.00    -0.273 OA
BRANCH  16  20
ATOM     20  C   UNL     1      10.108   2.296  22.001  0.00  0.00    +0.113 C 
BRANCH  20  21
ATOM     21  C   UNL     1       9.783   0.820  21.763  0.00  0.00    +0.114 C 
BRANCH  21  24
ATOM     22  N   UNL     1       9.592  -1.426  22.762  0.00  0.00    -0.314 N 
ATOM     23  H   UNL     1       8.851  -1.558  22.087  0.00  0.00    +0.149 HD
ATOM     24  C   UNL     1      10.137  -0.167  22.866  0.00  0.00    +0.215 C 
ATOM     25  O   UNL     1      10.918   0.168  23.753  0.00  0.00    -0.276 OA
BRANCH  22  26
ATOM     26  C   UNL     1       9.777  -2.534  23.690  0.00  0.00    +0.115 C 
BRANCH  26  27
ATOM     27  C   UNL     1       8.663  -2.802  24.694  0.00  0.00    +0.096 C 
BRANCH  27  28
ATOM     28  S   UNL     1       8.123  -4.523  24.525  0.00  0.00    -0.082 S 
BRANCH  28  29
ATOM     29  C   UNL     1       6.585  -4.253  23.723  0.00  0.00    +0.215 C 
ATOM     30  O   UNL     1       5.935  -3.235  23.889  0.00  0.00    -0.280 OA
BRANCH  29  32
ATOM     31  C   UNL     1       7.125  -5.867  21.848  0.00  0.00    +0.047 C 
ATOM     32  C   UNL     1       6.105  -5.365  22.826  0.00  0.00    -0.004 C 
ATOM     33  C   UNL     1       4.868  -5.892  22.864  0.00  0.00    +0.016 C 
ENDBRANCH  29  32
ENDBRANCH  28  29
ENDBRANCH  27  28
ENDBRANCH  26  27
ENDBRANCH  22  26
ENDBRANCH  21  24
ENDBRANCH  20  21
ENDBRANCH  16  20
ENDBRANCH  15  18
BRANCH  15  34
ATOM     34  O   UNL     1       8.233   3.607  25.521  0.00  0.00    -0.382 OA
ATOM     35  H   UNL     1       8.789   2.876  25.204  0.00  0.00    +0.210 HD
ENDBRANCH  15  34
ENDBRANCH  12  15
ENDBRANCH  11  12
ENDBRANCH  10  11
ENDBRANCH   6  10
ENDBRANCH   5   6
ENDBRANCH   1   5
BRANCH   1  36
ATOM     36  O   UNL     1       5.240   2.414  28.192  0.00  0.00    -0.284 OA
BRANCH  36  37
ATOM     37  C   UNL     1       4.202   1.412  28.171  0.00  0.00    +0.206 C 
BRANCH  37  38
ATOM     38  C   UNL     1       3.997   0.725  26.781  0.00  0.00    +0.179 C 
ATOM     39  C   UNL     1       5.329   0.415  26.066  0.00  0.00    +0.194 C 
ATOM     40  C   UNL     1       5.687  -1.006  26.487  0.00  0.00    +0.196 C 
ATOM     41  C   UNL     1       4.423  -1.535  27.174  0.00  0.00    +0.253 C 
ATOM     42  O   UNL     1       3.367  -0.580  26.915  0.00  0.00    -0.346 OA
BRANCH  41  43
ATOM     43  N   UNL     1       4.053  -2.873  26.734  0.00  0.00    -0.286 N 
ATOM     44  C   UNL     1       4.774  -4.005  27.035  0.00  0.00    +0.167 A 
ATOM     45  N   UNL     1       5.920  -4.084  27.737  0.00  0.00    -0.216 NA
ATOM     46  C   UNL     1       6.321  -5.371  27.849  0.00  0.00    +0.225 A 
ATOM     47  N   UNL     1       5.743  -6.479  27.336  0.00  0.00    -0.219 NA
ATOM     48  C   UNL     1       4.610  -6.340  26.609  0.00  0.00    +0.147 A 
ATOM     49  N   UNL     1       4.045  -7.487  26.068  0.00  0.00    -0.341 N 
ATOM     50  H   UNL     1       3.059  -7.401  25.851  0.00  0.00    +0.144 HD
ATOM     51  H   UNL     1       4.351  -8.328  26.542  0.00  0.00    +0.144 HD
ATOM     52  C   UNL     1       4.069  -5.049  26.453  0.00  0.00    +0.147 A 
ATOM     53  N   UNL     1       2.935  -4.572  25.819  0.00  0.00    -0.231 NA
ATOM     54  C   UNL     1       2.957  -3.267  26.027  0.00  0.00    +0.203 A 
ENDBRANCH  41  43
BRANCH  40  55
ATOM     55  O   UNL     1       6.808  -1.008  27.372  0.00  0.00    -0.385 OA
ATOM     56  H   UNL     1       7.396  -1.733  27.069  0.00  0.00    +0.210 HD
ENDBRANCH  40  55
BRANCH  39  57
ATOM     57  O   UNL     1       5.166   0.358  24.641  0.00  0.00    -0.278 OA
BRANCH  57  58
ATOM     58  P   UNL     1       6.461   0.540  23.725  0.00  0.00    +0.473 P 
ATOM     59  O   UNL     1       7.702   0.868  24.477  0.00  0.00    -0.228 OA
BRANCH  58  60
ATOM     60  O   UNL     1       6.481  -0.796  22.868  0.00  0.00    -0.303 OA
ATOM     61  H   UNL     1       7.338  -1.265  22.849  0.00  0.00    +0.222 HD
ENDBRANCH  58  60
BRANCH  58  62
ATOM     62  O   UNL     1       5.963   1.641  22.680  0.00  0.00    -0.303 OA
ATOM     63  H   UNL     1       5.172   1.372  22.182  0.00  0.00    +0.222 HD
ENDBRANCH  58  62
ENDBRANCH  57  58
ENDBRANCH  39  57
ENDBRANCH  37  38
ENDBRANCH  36  37
ENDBRANCH   1  36
TORSDOF 27
ENDMDL
MODEL 4
REMARK VINA RESULT:      -6.3      2.666      5.043
REMARK  Name = 
REMARK  30 active torsions:
REMARK  status: ('A' for Active; 'I' for Inactive)
REMARK    1  A    between atoms: C_1  and  C_2
REMARK    2  A    between atoms: C_2  and  C_4
REMARK    3  A    between atoms: C_4  and  S_6
REMARK    4  A    between atoms: S_6  and  C_7
REMARK    5  A    between atoms: C_7  and  C_8
REMARK    6  A    between atoms: C_8  and  N_9
REMARK    7  A    between atoms: C_10  and  C_12
REMARK    8  A    between atoms: C_12  and  C_13
REMARK    9  A    between atoms: C_13  and  N_14
REMARK   10  A    between atoms: C_15  and  C_17
REMARK   11  A    between atoms: C_17  and  O_19
REMARK   12  A    between atoms: C_17  and  C_20
REMARK   13  A    between atoms: C_20  and  C_21
REMARK   14  A    between atoms: C_20  and  C_22
REMARK   15  A    between atoms: C_20  and  C_23
REMARK   16  A    between atoms: C_23  and  O_24
REMARK   17  A    between atoms: O_24  and  P_25
REMARK   18  A    between atoms: P_25  and  O_26
REMARK   19  A    between atoms: P_25  and  O_28
REMARK   20  A    between atoms: O_28  and  P_29
REMARK   21  A    between atoms: P_29  and  O_30
REMARK   22  A    between atoms: P_29  and  O_32
REMARK   23  A    between atoms: O_32  and  C_33
REMARK   24  A    between atoms: C_33  and  C_34
REMARK   25  A    between atoms: C_37  and  N_49
REMARK   26  A    between atoms: C_39  and  O_41
REMARK   27  A    between atoms: C_42  and  O_44
REMARK   28  A    between atoms: O_44  and  P_45
REMARK   29  A    between atoms: P_45  and  O_46
REMARK   30  A    between atoms: P_45  and  O_47
REMARK                            x       y       z     vdW  Elec       q    Type
REMARK                         _______ _______ _______ _____ _____    ______ ____
ROOT
ATOM      1  P   UNL     1       9.426  -1.795  23.284  0.00  0.00    +0.483 P 
ATOM      2  O   UNL     1      10.692  -2.320  22.693  0.00  0.00    -0.227 OA
ENDROOT
BRANCH   1   3
ATOM      3  O   UNL     1       8.174  -2.066  22.337  0.00  0.00    -0.302 OA
ATOM      4  H   UNL     1       8.387  -2.680  21.611  0.00  0.00    +0.222 HD
ENDBRANCH   1   3
BRANCH   1   5
ATOM      5  O   UNL     1       9.305  -0.224  23.586  0.00  0.00    -0.186 OA
BRANCH   5   6
ATOM      6  P   UNL     1       9.822   1.143  22.661  0.00  0.00    +0.483 P 
ATOM      7  O   UNL     1       8.640   0.963  21.711  0.00  0.00    -0.227 OA
BRANCH   6   8
ATOM      8  O   UNL     1      10.340   2.509  21.736  0.00  0.00    -0.302 OA
ATOM      9  H   UNL     1      10.973   2.227  21.046  0.00  0.00    +0.222 HD
ENDBRANCH   6   8
BRANCH   6  10
ATOM     10  O   UNL     1       9.410   2.126  23.907  0.00  0.00    -0.286 OA
BRANCH  10  11
ATOM     11  C   UNL     1       9.897   3.467  23.909  0.00  0.00    +0.181 C 
BRANCH  11  12
ATOM     12  C   UNL     1       8.837   4.586  24.034  0.00  0.00    +0.024 C 
ATOM     13  C   UNL     1       8.575   4.846  25.534  0.00  0.00    +0.016 C 
ATOM     14  C   UNL     1       9.340   5.880  23.376  0.00  0.00    +0.016 C 
BRANCH  12  15
ATOM     15  C   UNL     1       7.498   4.167  23.340  0.00  0.00    +0.208 C 
BRANCH  15  18
ATOM     16  N   UNL     1       5.382   4.610  24.559  0.00  0.00    -0.313 N 
ATOM     17  H   UNL     1       5.680   3.837  25.140  0.00  0.00    +0.149 HD
ATOM     18  C   UNL     1       6.301   5.106  23.661  0.00  0.00    +0.242 C 
ATOM     19  O   UNL     1       6.179   6.219  23.163  0.00  0.00    -0.273 OA
BRANCH  16  20
ATOM     20  C   UNL     1       4.155   5.307  24.934  0.00  0.00    +0.113 C 
BRANCH  20  21
ATOM     21  C   UNL     1       2.906   4.458  25.175  0.00  0.00    +0.114 C 
BRANCH  21  24
ATOM     22  N   UNL     1       2.671   2.504  26.661  0.00  0.00    -0.314 N 
ATOM     23  H   UNL     1       2.438   3.190  27.366  0.00  0.00    +0.149 HD
ATOM     24  C   UNL     1       3.102   2.972  25.441  0.00  0.00    +0.215 C 
ATOM     25  O   UNL     1       3.574   2.256  24.562  0.00  0.00    -0.276 OA
BRANCH  22  26
ATOM     26  C   UNL     1       2.756   1.133  27.146  0.00  0.00    +0.115 C 
BRANCH  26  27
ATOM     27  C   UNL     1       3.905   0.791  28.085  0.00  0.00    +0.096 C 
BRANCH  27  28
ATOM     28  S   UNL     1       5.272   0.105  27.113  0.00  0.00    -0.082 S 
BRANCH  28  29
ATOM     29  C   UNL     1       6.203   1.573  26.868  0.00  0.00    +0.215 C 
ATOM     30  O   UNL     1       6.641   1.890  25.776  0.00  0.00    -0.280 OA
BRANCH  29  32
ATOM     31  C   UNL     1       5.863   3.796  28.032  0.00  0.00    +0.047 C 
ATOM     32  C   UNL     1       6.442   2.414  28.095  0.00  0.00    -0.004 C 
ATOM     33  C   UNL     1       7.119   1.999  29.181  0.00  0.00    +0.016 C 
ENDBRANCH  29  32
ENDBRANCH  28  29
ENDBRANCH  27  28
ENDBRANCH  26  27
ENDBRANCH  22  26
ENDBRANCH  21  24
ENDBRANCH  20  21
ENDBRANCH  16  20
ENDBRANCH  15  18
BRANCH  15  34
ATOM     34  O   UNL     1       7.695   4.020  21.934  0.00  0.00    -0.382 OA
ATOM     35  H   UNL     1       8.299   3.271  21.805  0.00  0.00    +0.210 HD
ENDBRANCH  15  34
ENDBRANCH  12  15
ENDBRANCH  11  12
ENDBRANCH  10  11
ENDBRANCH   6  10
ENDBRANCH   5   6
ENDBRANCH   1   5
BRANCH   1  36
ATOM     36  O   UNL     1       9.016  -2.576  24.652  0.00  0.00    -0.284 OA
BRANCH  36  37
ATOM     37  C   UNL     1       7.797  -2.184  25.318  0.00  0.00    +0.206 C 
BRANCH  37  38
ATOM     38  C   UNL     1       6.603  -3.173  25.114  0.00  0.00    +0.179 C 
ATOM     39  C   UNL     1       7.040  -4.513  24.484  0.00  0.00    +0.194 C 
ATOM     40  C   UNL     1       7.333  -5.433  25.665  0.00  0.00    +0.196 C 
ATOM     41  C   UNL     1       6.781  -4.683  26.883  0.00  0.00    +0.253 C 
ATOM     42  O   UNL     1       6.009  -3.567  26.383  0.00  0.00    -0.346 OA
BRANCH  41  43
ATOM     43  N   UNL     1       5.988  -5.531  27.762  0.00  0.00    -0.286 N 
ATOM     44  C   UNL     1       4.668  -5.844  27.540  0.00  0.00    +0.167 A 
ATOM     45  N   UNL     1       3.885  -5.422  26.528  0.00  0.00    -0.216 NA
ATOM     46  C   UNL     1       2.648  -5.960  26.628  0.00  0.00    +0.225 A 
ATOM     47  N   UNL     1       2.164  -6.781  27.585  0.00  0.00    -0.219 NA
ATOM     48  C   UNL     1       2.982  -7.147  28.598  0.00  0.00    +0.147 A 
ATOM     49  N   UNL     1       2.458  -7.970  29.586  0.00  0.00    -0.341 N 
ATOM     50  H   UNL     1       3.156  -8.492  30.104  0.00  0.00    +0.144 HD
ATOM     51  H   UNL     1       1.634  -8.468  29.275  0.00  0.00    +0.144 HD
ATOM     52  C   UNL     1       4.312  -6.682  28.586  0.00  0.00    +0.147 A 
ATOM     53  N   UNL     1       5.391  -6.890  29.426  0.00  0.00    -0.231 NA
ATOM     54  C   UNL     1       6.377  -6.196  28.886  0.00  0.00    +0.203 A 
ENDBRANCH  41  43
BRANCH  40  55
ATOM     55  O   UNL     1       8.736  -5.675  25.786  0.00  0.00    -0.385 OA
ATOM     56  H   UNL     1       8.829  -6.483  26.334  0.00  0.00    +0.210 HD
ENDBRANCH  40  55
BRANCH  39  57
ATOM     57  O   UNL     1       5.963  -5.142  23.774  0.00  0.00    -0.278 OA
BRANCH  57  58
ATOM     58  P   UNL     1       5.986  -5.102  22.178  0.00  0.00    +0.473 P 
ATOM     59  O   UNL     1       5.719  -3.759  21.595  0.00  0.00    -0.228 OA
BRANCH  58  60
ATOM     60  O   UNL     1       7.385  -5.764  21.826  0.00  0.00    -0.303 OA
ATOM     61  H   UNL     1       7.434  -6.191  20.948  0.00  0.00    +0.222 HD
ENDBRANCH  58  60
BRANCH  58  62
ATOM     62  O   UNL     1       4.933  -6.246  21.812  0.00  0.00    -0.303 OA
ATOM     63  H   UNL     1       5.226  -6.823  21.086  0.00  0.00    +0.222 HD
ENDBRANCH  58  62
ENDBRANCH  57  58
ENDBRANCH  39  57
ENDBRANCH  37  38
ENDBRANCH  36  37
ENDBRANCH   1  36
TORSDOF 27
ENDMDL
MODEL 5
REMARK VINA RESULT:      -6.3      2.934      5.170
REMARK  Name = 
REMARK  30 active torsions:
REMARK  status: ('A' for Active; 'I' for Inactive)
REMARK    1  A    between atoms: C_1  and  C_2
REMARK    2  A    between atoms: C_2  and  C_4
REMARK    3  A    between atoms: C_4  and  S_6
REMARK    4  A    between atoms: S_6  and  C_7
REMARK    5  A    between atoms: C_7  and  C_8
REMARK    6  A    between atoms: C_8  and  N_9
REMARK    7  A    between atoms: C_10  and  C_12
REMARK    8  A    between atoms: C_12  and  C_13
REMARK    9  A    between atoms: C_13  and  N_14
REMARK   10  A    between atoms: C_15  and  C_17
REMARK   11  A    between atoms: C_17  and  O_19
REMARK   12  A    between atoms: C_17  and  C_20
REMARK   13  A    between atoms: C_20  and  C_21
REMARK   14  A    between atoms: C_20  and  C_22
REMARK   15  A    between atoms: C_20  and  C_23
REMARK   16  A    between atoms: C_23  and  O_24
REMARK   17  A    between atoms: O_24  and  P_25
REMARK   18  A    between atoms: P_25  and  O_26
REMARK   19  A    between atoms: P_25  and  O_28
REMARK   20  A    between atoms: O_28  and  P_29
REMARK   21  A    between atoms: P_29  and  O_30
REMARK   22  A    between atoms: P_29  and  O_32
REMARK   23  A    between atoms: O_32  and  C_33
REMARK   24  A    between atoms: C_33  and  C_34
REMARK   25  A    between atoms: C_37  and  N_49
REMARK   26  A    between atoms: C_39  and  O_41
REMARK   27  A    between atoms: C_42  and  O_44
REMARK   28  A    between atoms: O_44  and  P_45
REMARK   29  A    between atoms: P_45  and  O_46
REMARK   30  A    between atoms: P_45  and  O_47
REMARK                            x       y       z     vdW  Elec       q    Type
REMARK                         _______ _______ _______ _____ _____    ______ ____
ROOT
ATOM      1  P   UNL     1       9.838   1.171  22.781  0.00  0.00    +0.483 P 
ATOM      2  O   UNL     1      10.926   1.155  23.803  0.00  0.00    -0.227 OA
ENDROOT
BRANCH   1   3
ATOM      3  O   UNL     1      10.209   2.094  21.536  0.00  0.00    -0.302 OA
ATOM      4  H   UNL     1       9.925   1.703  20.690  0.00  0.00    +0.222 HD
ENDBRANCH   1   3
BRANCH   1   5
ATOM      5  O   UNL     1       8.388   1.714  23.201  0.00  0.00    -0.186 OA
BRANCH   5   6
ATOM      6  P   UNL     1       7.336   2.838  22.414  0.00  0.00    +0.483 P 
ATOM      7  O   UNL     1       6.172   2.384  23.292  0.00  0.00    -0.227 OA
BRANCH   6   8
ATOM      8  O   UNL     1       6.284   3.963  21.626  0.00  0.00    -0.302 OA
ATOM      9  H   UNL     1       6.766   4.433  20.917  0.00  0.00    +0.222 HD
ENDBRANCH   6   8
BRANCH   6  10
ATOM     10  O   UNL     1       8.143   4.074  23.128  0.00  0.00    -0.286 OA
BRANCH  10  11
ATOM     11  C   UNL     1       7.853   4.381  24.491  0.00  0.00    +0.181 C 
BRANCH  11  12
ATOM     12  C   UNL     1       7.789   5.881  24.862  0.00  0.00    +0.024 C 
ATOM     13  C   UNL     1       8.579   6.094  26.172  0.00  0.00    +0.016 C 
ATOM     14  C   UNL     1       8.413   6.738  23.749  0.00  0.00    +0.016 C 
BRANCH  12  15
ATOM     15  C   UNL     1       6.308   6.342  25.070  0.00  0.00    +0.208 C 
BRANCH  15  18
ATOM     16  N   UNL     1       4.420   5.050  24.108  0.00  0.00    -0.313 N 
ATOM     17  H   UNL     1       4.212   4.838  25.076  0.00  0.00    +0.149 HD
ATOM     18  C   UNL     1       5.373   6.017  23.872  0.00  0.00    +0.242 C 
ATOM     19  O   UNL     1       5.460   6.583  22.788  0.00  0.00    -0.273 OA
BRANCH  16  20
ATOM     20  C   UNL     1       3.497   4.553  23.092  0.00  0.00    +0.113 C 
BRANCH  20  21
ATOM     21  C   UNL     1       2.376   3.620  23.551  0.00  0.00    +0.114 C 
BRANCH  21  24
ATOM     22  N   UNL     1       1.602   2.640  25.677  0.00  0.00    -0.314 N 
ATOM     23  H   UNL     1       1.594   1.770  25.162  0.00  0.00    +0.149 HD
ATOM     24  C   UNL     1       1.850   3.793  24.969  0.00  0.00    +0.215 C 
ATOM     25  O   UNL     1       1.721   4.922  25.435  0.00  0.00    -0.276 OA
BRANCH  22  26
ATOM     26  C   UNL     1       1.092   2.548  27.039  0.00  0.00    +0.115 C 
BRANCH  26  27
ATOM     27  C   UNL     1       2.112   2.539  28.171  0.00  0.00    +0.096 C 
BRANCH  27  28
ATOM     28  S   UNL     1       3.395   1.317  27.793  0.00  0.00    -0.082 S 
BRANCH  28  29
ATOM     29  C   UNL     1       4.718   2.409  27.421  0.00  0.00    +0.215 C 
ATOM     30  O   UNL     1       4.732   3.092  26.411  0.00  0.00    -0.280 OA
BRANCH  29  32
ATOM     31  C   UNL     1       5.608   1.640  29.663  0.00  0.00    +0.047 C 
ATOM     32  C   UNL     1       5.846   2.442  28.419  0.00  0.00    -0.004 C 
ATOM     33  C   UNL     1       6.992   3.126  28.248  0.00  0.00    +0.016 C 
ENDBRANCH  29  32
ENDBRANCH  28  29
ENDBRANCH  27  28
ENDBRANCH  26  27
ENDBRANCH  22  26
ENDBRANCH  21  24
ENDBRANCH  20  21
ENDBRANCH  16  20
ENDBRANCH  15  18
BRANCH  15  34
ATOM     34  O   UNL     1       5.796   5.825  26.298  0.00  0.00    -0.382 OA
ATOM     35  H   UNL     1       6.532   5.385  26.754  0.00  0.00    +0.210 HD
ENDBRANCH  15  34
ENDBRANCH  12  15
ENDBRANCH  11  12
ENDBRANCH  10  11
ENDBRANCH   6  10
ENDBRANCH   5   6
ENDBRANCH   1   5
BRANCH   1  36
ATOM     36  O   UNL     1       9.620  -0.288  22.093  0.00  0.00    -0.284 OA
BRANCH  36  37
ATOM     37  C   UNL     1      10.316  -1.417  22.660  0.00  0.00    +0.206 C 
BRANCH  37  38
ATOM     38  C   UNL     1       9.525  -2.166  23.782  0.00  0.00    +0.179 C 
ATOM     39  C   UNL     1       8.342  -1.340  24.330  0.00  0.00    +0.194 C 
ATOM     40  C   UNL     1       7.140  -1.756  23.488  0.00  0.00    +0.196 C 
ATOM     41  C   UNL     1       7.622  -2.987  22.711  0.00  0.00    +0.253 C 
ATOM     42  O   UNL     1       8.894  -3.377  23.278  0.00  0.00    -0.346 OA
BRANCH  41  43
ATOM     43  N   UNL     1       6.666  -4.085  22.735  0.00  0.00    -0.286 N 
ATOM     44  C   UNL     1       6.302  -4.760  23.877  0.00  0.00    +0.167 A 
ATOM     45  N   UNL     1       6.760  -4.560  25.127  0.00  0.00    -0.216 NA
ATOM     46  C   UNL     1       6.150  -5.399  25.996  0.00  0.00    +0.225 A 
ATOM     47  N   UNL     1       5.232  -6.355  25.737  0.00  0.00    -0.219 NA
ATOM     48  C   UNL     1       4.831  -6.537  24.458  0.00  0.00    +0.147 A 
ATOM     49  N   UNL     1       3.906  -7.542  24.208  0.00  0.00    -0.341 N 
ATOM     50  H   UNL     1       3.383  -7.420  23.348  0.00  0.00    +0.144 HD
ATOM     51  H   UNL     1       3.391  -7.807  25.038  0.00  0.00    +0.144 HD
ATOM     52  C   UNL     1       5.366  -5.696  23.463  0.00  0.00    +0.147 A 
ATOM     53  N   UNL     1       5.150  -5.592  22.100  0.00  0.00    -0.231 NA
ATOM     54  C   UNL     1       5.936  -4.605  21.708  0.00  0.00    +0.203 A 
ENDBRANCH  41  43
BRANCH  40  55
ATOM     55  O   UNL     1       6.743  -0.701  22.612  0.00  0.00    -0.385 OA
ATOM     56  H   UNL     1       5.802  -0.512  22.817  0.00  0.00    +0.210 HD
ENDBRANCH  40  55
BRANCH  39  57
ATOM     57  O   UNL     1       8.009  -1.716  25.675  0.00  0.00    -0.278 OA
BRANCH  57  58
ATOM     58  P   UNL     1       7.285  -0.638  26.603  0.00  0.00    +0.473 P 
ATOM     59  O   UNL     1       6.022  -1.117  27.228  0.00  0.00    -0.228 OA
BRANCH  58  60
ATOM     60  O   UNL     1       8.441  -0.187  27.594  0.00  0.00    -0.303 OA
ATOM     61  H   UNL     1       8.888  -0.914  28.069  0.00  0.00    +0.222 HD
ENDBRANCH  58  60
BRANCH  58  62
ATOM     62  O   UNL     1       7.147   0.604  25.607  0.00  0.00    -0.303 OA
ATOM     63  H   UNL     1       6.241   0.952  25.547  0.00  0.00    +0.222 HD
ENDBRANCH  58  62
ENDBRANCH  57  58
ENDBRANCH  39  57
ENDBRANCH  37  38
ENDBRANCH  36  37
ENDBRANCH   1  36
TORSDOF 27
ENDMDL
MODEL 6
REMARK VINA RESULT:      -6.2      3.656      7.141
REMARK  Name = 
REMARK  30 active torsions:
REMARK  status: ('A' for Active; 'I' for Inactive)
REMARK    1  A    between atoms: C_1  and  C_2
REMARK    2  A    between atoms: C_2  and  C_4
REMARK    3  A    between atoms: C_4  and  S_6
REMARK    4  A    between atoms: S_6  and  C_7
REMARK    5  A    between atoms: C_7  and  C_8
REMARK    6  A    between atoms: C_8  and  N_9
REMARK    7  A    between atoms: C_10  and  C_12
REMARK    8  A    between atoms: C_12  and  C_13
REMARK    9  A    between atoms: C_13  and  N_14
REMARK   10  A    between atoms: C_15  and  C_17
REMARK   11  A    between atoms: C_17  and  O_19
REMARK   12  A    between atoms: C_17  and  C_20
REMARK   13  A    between atoms: C_20  and  C_21
REMARK   14  A    between atoms: C_20  and  C_22
REMARK   15  A    between atoms: C_20  and  C_23
REMARK   16  A    between atoms: C_23  and  O_24
REMARK   17  A    between atoms: O_24  and  P_25
REMARK   18  A    between atoms: P_25  and  O_26
REMARK   19  A    between atoms: P_25  and  O_28
REMARK   20  A    between atoms: O_28  and  P_29
REMARK   21  A    between atoms: P_29  and  O_30
REMARK   22  A    between atoms: P_29  and  O_32
REMARK   23  A    between atoms: O_32  and  C_33
REMARK   24  A    between atoms: C_33  and  C_34
REMARK   25  A    between atoms: C_37  and  N_49
REMARK   26  A    between atoms: C_39  and  O_41
REMARK   27  A    between atoms: C_42  and  O_44
REMARK   28  A    between atoms: O_44  and  P_45
REMARK   29  A    between atoms: P_45  and  O_46
REMARK   30  A    between atoms: P_45  and  O_47
REMARK                            x       y       z     vdW  Elec       q    Type
REMARK                         _______ _______ _______ _____ _____    ______ ____
ROOT
ATOM      1  P   UNL     1       4.755   3.210  27.281  0.00  0.00    +0.483 P 
ATOM      2  O   UNL     1       4.928   3.928  28.578  0.00  0.00    -0.227 OA
ENDROOT
BRANCH   1   3
ATOM      3  O   UNL     1       6.154   2.783  26.649  0.00  0.00    -0.302 OA
ATOM      4  H   UNL     1       6.767   2.427  27.317  0.00  0.00    +0.222 HD
ENDBRANCH   1   3
BRANCH   1   5
ATOM      5  O   UNL     1       4.037   3.971  26.064  0.00  0.00    -0.186 OA
BRANCH   5   6
ATOM      6  P   UNL     1       3.646   3.425  24.470  0.00  0.00    +0.483 P 
ATOM      7  O   UNL     1       3.001   4.773  24.153  0.00  0.00    -0.227 OA
BRANCH   6   8
ATOM      8  O   UNL     1       3.254   2.880  22.876  0.00  0.00    -0.302 OA
ATOM      9  H   UNL     1       2.575   3.462  22.480  0.00  0.00    +0.222 HD
ENDBRANCH   6   8
BRANCH   6  10
ATOM     10  O   UNL     1       5.239   3.449  24.085  0.00  0.00    -0.286 OA
BRANCH  10  11
ATOM     11  C   UNL     1       5.869   4.709  23.861  0.00  0.00    +0.181 C 
BRANCH  11  12
ATOM     12  C   UNL     1       7.059   4.720  22.872  0.00  0.00    +0.024 C 
ATOM     13  C   UNL     1       6.877   3.555  21.875  0.00  0.00    +0.016 C 
ATOM     14  C   UNL     1       7.103   6.047  22.099  0.00  0.00    +0.016 C 
BRANCH  12  15
ATOM     15  C   UNL     1       8.416   4.545  23.631  0.00  0.00    +0.208 C 
BRANCH  15  18
ATOM     16  N   UNL     1       9.766   2.672  22.719  0.00  0.00    -0.313 N 
ATOM     17  H   UNL     1      10.229   3.403  22.194  0.00  0.00    +0.149 HD
ATOM     18  C   UNL     1       8.905   3.072  23.718  0.00  0.00    +0.242 C 
ATOM     19  O   UNL     1       8.562   2.310  24.615  0.00  0.00    -0.273 OA
BRANCH  16  20
ATOM     20  C   UNL     1      10.278   1.312  22.584  0.00  0.00    +0.113 C 
BRANCH  20  21
ATOM     21  C   UNL     1       9.520   0.360  21.657  0.00  0.00    +0.114 C 
BRANCH  21  24
ATOM     22  N   UNL     1       8.300  -1.754  22.009  0.00  0.00    -0.314 N 
ATOM     23  H   UNL     1       7.474  -1.172  21.969  0.00  0.00    +0.149 HD
ATOM     24  C   UNL     1       9.521  -1.120  22.011  0.00  0.00    +0.215 C 
ATOM     25  O   UNL     1      10.587  -1.691  22.226  0.00  0.00    -0.276 OA
BRANCH  22  26
ATOM     26  C   UNL     1       8.046  -3.154  22.319  0.00  0.00    +0.115 C 
BRANCH  26  27
ATOM     27  C   UNL     1       6.682  -3.509  22.898  0.00  0.00    +0.096 C 
BRANCH  27  28
ATOM     28  S   UNL     1       6.683  -5.258  23.372  0.00  0.00    -0.082 S 
BRANCH  28  29
ATOM     29  C   UNL     1       5.199  -5.761  22.581  0.00  0.00    +0.215 C 
ATOM     30  O   UNL     1       5.109  -5.859  21.369  0.00  0.00    -0.280 OA
BRANCH  29  32
ATOM     31  C   UNL     1       4.392  -6.737  24.773  0.00  0.00    +0.047 C 
ATOM     32  C   UNL     1       4.033  -6.049  23.490  0.00  0.00    -0.004 C 
ATOM     33  C   UNL     1       2.755  -5.735  23.210  0.00  0.00    +0.016 C 
ENDBRANCH  29  32
ENDBRANCH  28  29
ENDBRANCH  27  28
ENDBRANCH  26  27
ENDBRANCH  22  26
ENDBRANCH  21  24
ENDBRANCH  20  21
ENDBRANCH  16  20
ENDBRANCH  15  18
BRANCH  15  34
ATOM     34  O   UNL     1       9.411   5.401  23.070  0.00  0.00    -0.382 OA
ATOM     35  H   UNL     1       9.300   5.378  22.105  0.00  0.00    +0.210 HD
ENDBRANCH  15  34
ENDBRANCH  12  15
ENDBRANCH  11  12
ENDBRANCH  10  11
ENDBRANCH   6  10
ENDBRANCH   5   6
ENDBRANCH   1   5
BRANCH   1  36
ATOM     36  O   UNL     1       3.995   1.783  27.465  0.00  0.00    -0.284 OA
BRANCH  36  37
ATOM     37  C   UNL     1       4.459   0.895  28.504  0.00  0.00    +0.206 C 
BRANCH  37  38
ATOM     38  C   UNL     1       4.514  -0.611  28.089  0.00  0.00    +0.179 C 
ATOM     39  C   UNL     1       4.004  -0.853  26.652  0.00  0.00    +0.194 C 
ATOM     40  C   UNL     1       5.246  -0.775  25.769  0.00  0.00    +0.196 C 
ATOM     41  C   UNL     1       6.420  -0.784  26.755  0.00  0.00    +0.253 C 
ATOM     42  O   UNL     1       5.881  -1.110  28.057  0.00  0.00    -0.346 OA
BRANCH  41  43
ATOM     43  N   UNL     1       7.480  -1.705  26.370  0.00  0.00    -0.286 N 
ATOM     44  C   UNL     1       7.453  -3.055  26.625  0.00  0.00    +0.167 A 
ATOM     45  N   UNL     1       6.498  -3.748  27.274  0.00  0.00    -0.216 NA
ATOM     46  C   UNL     1       6.805  -5.065  27.309  0.00  0.00    +0.225 A 
ATOM     47  N   UNL     1       7.903  -5.684  26.823  0.00  0.00    -0.219 NA
ATOM     48  C   UNL     1       8.848  -4.937  26.209  0.00  0.00    +0.147 A 
ATOM     49  N   UNL     1       9.982  -5.588  25.740  0.00  0.00    -0.341 N 
ATOM     50  H   UNL     1      10.472  -5.090  25.006  0.00  0.00    +0.144 HD
ATOM     51  H   UNL     1       9.832  -6.581  25.615  0.00  0.00    +0.144 HD
ATOM     52  C   UNL     1       8.625  -3.553  26.074  0.00  0.00    +0.147 A 
ATOM     53  N   UNL     1       9.352  -2.534  25.484  0.00  0.00    -0.231 NA
ATOM     54  C   UNL     1       8.621  -1.448  25.670  0.00  0.00    +0.203 A 
ENDBRANCH  41  43
BRANCH  40  55
ATOM     55  O   UNL     1       5.232   0.412  24.975  0.00  0.00    -0.385 OA
ATOM     56  H   UNL     1       5.095   1.158  25.598  0.00  0.00    +0.210 HD
ENDBRANCH  40  55
BRANCH  39  57
ATOM     57  O   UNL     1       3.504  -2.188  26.484  0.00  0.00    -0.278 OA
BRANCH  57  58
ATOM     58  P   UNL     1       1.939  -2.437  26.681  0.00  0.00    +0.473 P 
ATOM     59  O   UNL     1       1.597  -3.276  27.861  0.00  0.00    -0.228 OA
BRANCH  58  60
ATOM     60  O   UNL     1       1.338  -0.968  26.655  0.00  0.00    -0.303 OA
ATOM     61  H   UNL     1       1.985  -0.257  26.479  0.00  0.00    +0.222 HD
ENDBRANCH  58  60
BRANCH  58  62
ATOM     62  O   UNL     1       1.526  -3.030  25.256  0.00  0.00    -0.303 OA
ATOM     63  H   UNL     1       2.236  -3.539  24.828  0.00  0.00    +0.222 HD
ENDBRANCH  58  62
ENDBRANCH  57  58
ENDBRANCH  39  57
ENDBRANCH  37  38
ENDBRANCH  36  37
ENDBRANCH   1  36
TORSDOF 27
ENDMDL
MODEL 7
REMARK VINA RESULT:      -6.2      3.258      9.287
REMARK  Name = 
REMARK  30 active torsions:
REMARK  status: ('A' for Active; 'I' for Inactive)
REMARK    1  A    between atoms: C_1  and  C_2
REMARK    2  A    between atoms: C_2  and  C_4
REMARK    3  A    between atoms: C_4  and  S_6
REMARK    4  A    between atoms: S_6  and  C_7
REMARK    5  A    between atoms: C_7  and  C_8
REMARK    6  A    between atoms: C_8  and  N_9
REMARK    7  A    between atoms: C_10  and  C_12
REMARK    8  A    between atoms: C_12  and  C_13
REMARK    9  A    between atoms: C_13  and  N_14
REMARK   10  A    between atoms: C_15  and  C_17
REMARK   11  A    between atoms: C_17  and  O_19
REMARK   12  A    between atoms: C_17  and  C_20
REMARK   13  A    between atoms: C_20  and  C_21
REMARK   14  A    between atoms: C_20  and  C_22
REMARK   15  A    between atoms: C_20  and  C_23
REMARK   16  A    between atoms: C_23  and  O_24
REMARK   17  A    between atoms: O_24  and  P_25
REMARK   18  A    between atoms: P_25  and  O_26
REMARK   19  A    between atoms: P_25  and  O_28
REMARK   20  A    between atoms: O_28  and  P_29
REMARK   21  A    between atoms: P_29  and  O_30
REMARK   22  A    between atoms: P_29  and  O_32
REMARK   23  A    between atoms: O_32  and  C_33
REMARK   24  A    between atoms: C_33  and  C_34
REMARK   25  A    between atoms: C_37  and  N_49
REMARK   26  A    between atoms: C_39  and  O_41
REMARK   27  A    between atoms: C_42  and  O_44
REMARK   28  A    between atoms: O_44  and  P_45
REMARK   29  A    between atoms: P_45  and  O_46
REMARK   30  A    between atoms: P_45  and  O_47
REMARK                            x       y       z     vdW  Elec       q    Type
REMARK                         _______ _______ _______ _____ _____    ______ ____
ROOT
ATOM      1  P   UNL     1       9.000   1.292  21.936  0.00  0.00    +0.483 P 
ATOM      2  O   UNL     1       7.824   1.699  21.112  0.00  0.00    -0.227 OA
ENDROOT
BRANCH   1   3
ATOM      3  O   UNL     1      10.222   2.299  21.761  0.00  0.00    -0.302 OA
ATOM      4  H   UNL     1      10.414   2.487  20.825  0.00  0.00    +0.222 HD
ENDBRANCH   1   3
BRANCH   1   5
ATOM      5  O   UNL     1       9.680  -0.136  21.665  0.00  0.00    -0.186 OA
BRANCH   5   6
ATOM      6  P   UNL     1       9.849  -1.515  22.695  0.00  0.00    +0.483 P 
ATOM      7  O   UNL     1      10.456  -0.639  23.789  0.00  0.00    -0.227 OA
BRANCH   6   8
ATOM      8  O   UNL     1      10.019  -2.894  23.725  0.00  0.00    -0.302 OA
ATOM      9  H   UNL     1       9.142  -3.176  24.055  0.00  0.00    +0.222 HD
ENDBRANCH   6   8
BRANCH   6  10
ATOM     10  O   UNL     1       8.219  -1.580  22.854  0.00  0.00    -0.286 OA
BRANCH  10  11
ATOM     11  C   UNL     1       7.654  -2.585  23.695  0.00  0.00    +0.181 C 
BRANCH  11  12
ATOM     12  C   UNL     1       6.665  -3.569  23.027  0.00  0.00    +0.024 C 
ATOM     13  C   UNL     1       5.277  -3.382  23.678  0.00  0.00    +0.016 C 
ATOM     14  C   UNL     1       6.560  -3.286  21.520  0.00  0.00    +0.016 C 
BRANCH  12  15
ATOM     15  C   UNL     1       7.133  -5.049  23.221  0.00  0.00    +0.208 C 
BRANCH  15  18
ATOM     16  N   UNL     1       7.086  -5.397  25.678  0.00  0.00    -0.313 N 
ATOM     17  H   UNL     1       6.102  -5.578  25.526  0.00  0.00    +0.149 HD
ATOM     18  C   UNL     1       7.883  -5.303  24.559  0.00  0.00    +0.242 C 
ATOM     19  O   UNL     1       9.101  -5.424  24.624  0.00  0.00    -0.273 OA
BRANCH  16  20
ATOM     20  C   UNL     1       7.603  -5.561  27.033  0.00  0.00    +0.113 C 
BRANCH  20  21
ATOM     21  C   UNL     1       6.632  -5.337  28.193  0.00  0.00    +0.114 C 
BRANCH  21  24
ATOM     22  N   UNL     1       4.218  -5.842  28.227  0.00  0.00    -0.314 N 
ATOM     23  H   UNL     1       4.106  -4.837  28.218  0.00  0.00    +0.149 HD
ATOM     24  C   UNL     1       5.495  -6.335  28.364  0.00  0.00    +0.215 C 
ATOM     25  O   UNL     1       5.752  -7.520  28.558  0.00  0.00    -0.276 OA
BRANCH  22  26
ATOM     26  C   UNL     1       2.976  -6.594  28.351  0.00  0.00    +0.115 C 
BRANCH  26  27
ATOM     27  C   UNL     1       1.883  -6.318  27.327  0.00  0.00    +0.096 C 
BRANCH  27  28
ATOM     28  S   UNL     1       2.581  -5.338  25.973  0.00  0.00    -0.082 S 
BRANCH  28  29
ATOM     29  C   UNL     1       3.313  -6.633  25.042  0.00  0.00    +0.215 C 
ATOM     30  O   UNL     1       4.488  -6.939  25.165  0.00  0.00    -0.280 OA
BRANCH  29  32
ATOM     31  C   UNL     1       2.117  -6.569  22.811  0.00  0.00    +0.047 C 
ATOM     32  C   UNL     1       2.407  -7.337  24.066  0.00  0.00    -0.004 C 
ATOM     33  C   UNL     1       1.875  -8.557  24.267  0.00  0.00    +0.016 C 
ENDBRANCH  29  32
ENDBRANCH  28  29
ENDBRANCH  27  28
ENDBRANCH  26  27
ENDBRANCH  22  26
ENDBRANCH  21  24
ENDBRANCH  20  21
ENDBRANCH  16  20
ENDBRANCH  15  18
BRANCH  15  34
ATOM     34  O   UNL     1       6.032  -5.942  23.053  0.00  0.00    -0.382 OA
ATOM     35  H   UNL     1       5.369  -5.483  22.511  0.00  0.00    +0.210 HD
ENDBRANCH  15  34
ENDBRANCH  12  15
ENDBRANCH  11  12
ENDBRANCH  10  11
ENDBRANCH   6  10
ENDBRANCH   5   6
ENDBRANCH   1   5
BRANCH   1  36
ATOM     36  O   UNL     1       8.692   1.378  23.532  0.00  0.00    -0.284 OA
BRANCH  36  37
ATOM     37  C   UNL     1       8.842   2.657  24.185  0.00  0.00    +0.206 C 
BRANCH  37  38
ATOM     38  C   UNL     1       7.543   3.183  24.879  0.00  0.00    +0.179 C 
ATOM     39  C   UNL     1       6.257   2.772  24.129  0.00  0.00    +0.194 C 
ATOM     40  C   UNL     1       5.824   1.458  24.771  0.00  0.00    +0.196 C 
ATOM     41  C   UNL     1       6.699   1.334  26.024  0.00  0.00    +0.253 C 
ATOM     42  O   UNL     1       7.369   2.603  26.203  0.00  0.00    -0.346 OA
BRANCH  41  43
ATOM     43  N   UNL     1       5.944   0.957  27.211  0.00  0.00    -0.286 N 
ATOM     44  C   UNL     1       5.404  -0.292  27.411  0.00  0.00    +0.167 A 
ATOM     45  N   UNL     1       5.446  -1.346  26.574  0.00  0.00    -0.216 NA
ATOM     46  C   UNL     1       4.826  -2.416  27.125  0.00  0.00    +0.225 A 
ATOM     47  N   UNL     1       4.198  -2.500  28.317  0.00  0.00    -0.219 NA
ATOM     48  C   UNL     1       4.155  -1.401  29.105  0.00  0.00    +0.147 A 
ATOM     49  N   UNL     1       3.482  -1.500  30.316  0.00  0.00    -0.341 N 
ATOM     50  H   UNL     1       3.764  -0.812  31.005  0.00  0.00    +0.144 HD
ATOM     51  H   UNL     1       3.381  -2.459  30.623  0.00  0.00    +0.144 HD
ATOM     52  C   UNL     1       4.801  -0.231  28.658  0.00  0.00    +0.147 A 
ATOM     53  N   UNL     1       4.975   1.022  29.218  0.00  0.00    -0.231 NA
ATOM     54  C   UNL     1       5.679   1.695  28.325  0.00  0.00    +0.203 A 
ENDBRANCH  41  43
BRANCH  40  55
ATOM     55  O   UNL     1       6.025   0.363  23.876  0.00  0.00    -0.385 OA
ATOM     56  H   UNL     1       5.487   0.557  23.079  0.00  0.00    +0.210 HD
ENDBRANCH  40  55
BRANCH  39  57
ATOM     57  O   UNL     1       5.181   3.688  24.379  0.00  0.00    -0.278 OA
BRANCH  57  58
ATOM     58  P   UNL     1       3.839   3.526  23.530  0.00  0.00    +0.473 P 
ATOM     59  O   UNL     1       2.714   2.899  24.275  0.00  0.00    -0.228 OA
BRANCH  58  60
ATOM     60  O   UNL     1       3.592   4.992  22.972  0.00  0.00    -0.303 OA
ATOM     61  H   UNL     1       3.959   5.166  22.083  0.00  0.00    +0.222 HD
ENDBRANCH  58  60
BRANCH  58  62
ATOM     62  O   UNL     1       4.364   2.727  22.250  0.00  0.00    -0.303 OA
ATOM     63  H   UNL     1       3.969   3.033  21.415  0.00  0.00    +0.222 HD
ENDBRANCH  58  62
ENDBRANCH  57  58
ENDBRANCH  39  57
ENDBRANCH  37  38
ENDBRANCH  36  37
ENDBRANCH   1  36
TORSDOF 27
ENDMDL
MODEL 8
REMARK VINA RESULT:      -6.2      2.779      6.267
REMARK  Name = 
REMARK  30 active torsions:
REMARK  status: ('A' for Active; 'I' for Inactive)
REMARK    1  A    between atoms: C_1  and  C_2
REMARK    2  A    between atoms: C_2  and  C_4
REMARK    3  A    between atoms: C_4  and  S_6
REMARK    4  A    between atoms: S_6  and  C_7
REMARK    5  A    between atoms: C_7  and  C_8
REMARK    6  A    between atoms: C_8  and  N_9
REMARK    7  A    between atoms: C_10  and  C_12
REMARK    8  A    between atoms: C_12  and  C_13
REMARK    9  A    between atoms: C_13  and  N_14
REMARK   10  A    between atoms: C_15  and  C_17
REMARK   11  A    between atoms: C_17  and  O_19
REMARK   12  A    between atoms: C_17  and  C_20
REMARK   13  A    between atoms: C_20  and  C_21
REMARK   14  A    between atoms: C_20  and  C_22
REMARK   15  A    between atoms: C_20  and  C_23
REMARK   16  A    between atoms: C_23  and  O_24
REMARK   17  A    between atoms: O_24  and  P_25
REMARK   18  A    between atoms: P_25  and  O_26
REMARK   19  A    between atoms: P_25  and  O_28
REMARK   20  A    between atoms: O_28  and  P_29
REMARK   21  A    between atoms: P_29  and  O_30
REMARK   22  A    between atoms: P_29  and  O_32
REMARK   23  A    between atoms: O_32  and  C_33
REMARK   24  A    between atoms: C_33  and  C_34
REMARK   25  A    between atoms: C_37  and  N_49
REMARK   26  A    between atoms: C_39  and  O_41
REMARK   27  A    between atoms: C_42  and  O_44
REMARK   28  A    between atoms: O_44  and  P_45
REMARK   29  A    between atoms: P_45  and  O_46
REMARK   30  A    between atoms: P_45  and  O_47
REMARK                            x       y       z     vdW  Elec       q    Type
REMARK                         _______ _______ _______ _____ _____    ______ ____
ROOT
ATOM      1  P   UNL     1       4.143   2.033  28.650  0.00  0.00    +0.483 P 
ATOM      2  O   UNL     1       2.651   1.969  28.622  0.00  0.00    -0.227 OA
ENDROOT
BRANCH   1   3
ATOM      3  O   UNL     1       4.677   2.804  29.938  0.00  0.00    -0.302 OA
ATOM      4  H   UNL     1       4.208   3.644  30.086  0.00  0.00    +0.222 HD
ENDBRANCH   1   3
BRANCH   1   5
ATOM      5  O   UNL     1       4.909   2.777  27.452  0.00  0.00    -0.186 OA
BRANCH   5   6
ATOM      6  P   UNL     1       6.195   3.933  27.485  0.00  0.00    +0.483 P 
ATOM      7  O   UNL     1       7.184   2.840  27.885  0.00  0.00    -0.227 OA
BRANCH   6   8
ATOM      8  O   UNL     1       7.481   5.089  27.518  0.00  0.00    -0.302 OA
ATOM      9  H   UNL     1       7.963   5.030  28.367  0.00  0.00    +0.222 HD
ENDBRANCH   6   8
BRANCH   6  10
ATOM     10  O   UNL     1       6.108   4.056  25.853  0.00  0.00    -0.286 OA
BRANCH  10  11
ATOM     11  C   UNL     1       6.164   5.354  25.262  0.00  0.00    +0.181 C 
BRANCH  11  12
ATOM     12  C   UNL     1       5.515   5.506  23.867  0.00  0.00    +0.024 C 
ATOM     13  C   UNL     1       4.130   4.822  23.895  0.00  0.00    +0.016 C 
ATOM     14  C   UNL     1       5.339   6.991  23.514  0.00  0.00    +0.016 C 
BRANCH  12  15
ATOM     15  C   UNL     1       6.400   4.837  22.763  0.00  0.00    +0.208 C 
BRANCH  15  18
ATOM     16  N   UNL     1       8.338   3.525  23.590  0.00  0.00    -0.313 N 
ATOM     17  H   UNL     1       7.747   2.728  23.389  0.00  0.00    +0.149 HD
ATOM     18  C   UNL     1       7.907   4.751  23.131  0.00  0.00    +0.242 C 
ATOM     19  O   UNL     1       8.675   5.700  23.015  0.00  0.00    -0.273 OA
BRANCH  16  20
ATOM     20  C   UNL     1       9.697   3.262  24.053  0.00  0.00    +0.113 C 
BRANCH  20  21
ATOM     21  C   UNL     1      10.141   1.801  24.145  0.00  0.00    +0.114 C 
BRANCH  21  24
ATOM     22  N   UNL     1       9.794  -0.394  23.077  0.00  0.00    -0.314 N 
ATOM     23  H   UNL     1       9.904  -0.759  24.013  0.00  0.00    +0.149 HD
ATOM     24  C   UNL     1      10.030   0.948  22.890  0.00  0.00    +0.215 C 
ATOM     25  O   UNL     1      10.099   1.483  21.786  0.00  0.00    -0.276 OA
BRANCH  22  26
ATOM     26  C   UNL     1       9.657  -1.407  22.038  0.00  0.00    +0.115 C 
BRANCH  26  27
ATOM     27  C   UNL     1       8.561  -2.450  22.216  0.00  0.00    +0.096 C 
BRANCH  27  28
ATOM     28  S   UNL     1       8.221  -2.647  23.985  0.00  0.00    -0.082 S 
BRANCH  28  29
ATOM     29  C   UNL     1       7.470  -4.234  23.947  0.00  0.00    +0.215 C 
ATOM     30  O   UNL     1       7.719  -5.090  24.779  0.00  0.00    -0.280 OA
BRANCH  29  32
ATOM     31  C   UNL     1       6.877  -5.626  21.917  0.00  0.00    +0.047 C 
ATOM     32  C   UNL     1       6.509  -4.482  22.814  0.00  0.00    -0.004 C 
ATOM     33  C   UNL     1       5.400  -3.755  22.585  0.00  0.00    +0.016 C 
ENDBRANCH  29  32
ENDBRANCH  28  29
ENDBRANCH  27  28
ENDBRANCH  26  27
ENDBRANCH  22  26
ENDBRANCH  21  24
ENDBRANCH  20  21
ENDBRANCH  16  20
ENDBRANCH  15  18
BRANCH  15  34
ATOM     34  O   UNL     1       5.867   3.562  22.407  0.00  0.00    -0.382 OA
ATOM     35  H   UNL     1       6.572   2.907  22.543  0.00  0.00    +0.210 HD
ENDBRANCH  15  34
ENDBRANCH  12  15
ENDBRANCH  11  12
ENDBRANCH  10  11
ENDBRANCH   6  10
ENDBRANCH   5   6
ENDBRANCH   1   5
BRANCH   1  36
ATOM     36  O   UNL     1       4.819   0.561  28.808  0.00  0.00    -0.284 OA
BRANCH  36  37
ATOM     37  C   UNL     1       4.059  -0.585  28.370  0.00  0.00    +0.206 C 
BRANCH  37  38
ATOM     38  C   UNL     1       3.921  -0.712  26.817  0.00  0.00    +0.179 C 
ATOM     39  C   UNL     1       5.225  -1.184  26.139  0.00  0.00    +0.194 C 
ATOM     40  C   UNL     1       5.112  -2.704  26.069  0.00  0.00    +0.196 C 
ATOM     41  C   UNL     1       3.653  -2.999  26.437  0.00  0.00    +0.253 C 
ATOM     42  O   UNL     1       2.952  -1.733  26.447  0.00  0.00    -0.346 OA
BRANCH  41  43
ATOM     43  N   UNL     1       3.021  -3.953  25.537  0.00  0.00    -0.286 N 
ATOM     44  C   UNL     1       3.465  -5.241  25.351  0.00  0.00    +0.167 A 
ATOM     45  N   UNL     1       4.536  -5.829  25.918  0.00  0.00    -0.216 NA
ATOM     46  C   UNL     1       4.643  -7.115  25.514  0.00  0.00    +0.225 A 
ATOM     47  N   UNL     1       3.860  -7.789  24.643  0.00  0.00    -0.219 NA
ATOM     48  C   UNL     1       2.817  -7.142  24.076  0.00  0.00    +0.147 A 
ATOM     49  N   UNL     1       2.040  -7.844  23.164  0.00  0.00    -0.341 N 
ATOM     50  H   UNL     1       1.106  -7.470  23.040  0.00  0.00    +0.144 HD
ATOM     51  H   UNL     1       2.135  -8.847  23.268  0.00  0.00    +0.144 HD
ATOM     52  C   UNL     1       2.576  -5.805  24.448  0.00  0.00    +0.147 A 
ATOM     53  N   UNL     1       1.601  -4.889  24.094  0.00  0.00    -0.231 NA
ATOM     54  C   UNL     1       1.897  -3.801  24.783  0.00  0.00    +0.203 A 
ENDBRANCH  41  43
BRANCH  40  55
ATOM     55  O   UNL     1       6.022  -3.324  26.979  0.00  0.00    -0.385 OA
ATOM     56  H   UNL     1       6.247  -4.196  26.590  0.00  0.00    +0.210 HD
ENDBRANCH  40  55
BRANCH  39  57
ATOM     57  O   UNL     1       5.301  -0.747  24.774  0.00  0.00    -0.278 OA
BRANCH  57  58
ATOM     58  P   UNL     1       5.993   0.658  24.468  0.00  0.00    +0.473 P 
ATOM     59  O   UNL     1       6.796   0.687  23.216  0.00  0.00    -0.228 OA
BRANCH  58  60
ATOM     60  O   UNL     1       4.781   1.679  24.558  0.00  0.00    -0.303 OA
ATOM     61  H   UNL     1       4.575   2.154  23.730  0.00  0.00    +0.222 HD
ENDBRANCH  58  60
BRANCH  58  62
ATOM     62  O   UNL     1       6.798   0.922  25.823  0.00  0.00    -0.303 OA
ATOM     63  H   UNL     1       7.755   1.034  25.689  0.00  0.00    +0.222 HD
ENDBRANCH  58  62
ENDBRANCH  57  58
ENDBRANCH  39  57
ENDBRANCH  37  38
ENDBRANCH  36  37
ENDBRANCH   1  36
TORSDOF 27
ENDMDL
MODEL 9
REMARK VINA RESULT:      -6.1      3.299      5.534
REMARK  Name = 
REMARK  30 active torsions:
REMARK  status: ('A' for Active; 'I' for Inactive)
REMARK    1  A    between atoms: C_1  and  C_2
REMARK    2  A    between atoms: C_2  and  C_4
REMARK    3  A    between atoms: C_4  and  S_6
REMARK    4  A    between atoms: S_6  and  C_7
REMARK    5  A    between atoms: C_7  and  C_8
REMARK    6  A    between atoms: C_8  and  N_9
REMARK    7  A    between atoms: C_10  and  C_12
REMARK    8  A    between atoms: C_12  and  C_13
REMARK    9  A    between atoms: C_13  and  N_14
REMARK   10  A    between atoms: C_15  and  C_17
REMARK   11  A    between atoms: C_17  and  O_19
REMARK   12  A    between atoms: C_17  and  C_20
REMARK   13  A    between atoms: C_20  and  C_21
REMARK   14  A    between atoms: C_20  and  C_22
REMARK   15  A    between atoms: C_20  and  C_23
REMARK   16  A    between atoms: C_23  and  O_24
REMARK   17  A    between atoms: O_24  and  P_25
REMARK   18  A    between atoms: P_25  and  O_26
REMARK   19  A    between atoms: P_25  and  O_28
REMARK   20  A    between atoms: O_28  and  P_29
REMARK   21  A    between atoms: P_29  and  O_30
REMARK   22  A    between atoms: P_29  and  O_32
REMARK   23  A    between atoms: O_32  and  C_33
REMARK   24  A    between atoms: C_33  and  C_34
REMARK   25  A    between atoms: C_37  and  N_49
REMARK   26  A    between atoms: C_39  and  O_41
REMARK   27  A    between atoms: C_42  and  O_44
REMARK   28  A    between atoms: O_44  and  P_45
REMARK   29  A    between atoms: P_45  and  O_46
REMARK   30  A    between atoms: P_45  and  O_47
REMARK                            x       y       z     vdW  Elec       q    Type
REMARK                         _______ _______ _______ _____ _____    ______ ____
ROOT
ATOM      1  P   UNL     1       3.144  -0.651  27.125  0.00  0.00    +0.483 P 
ATOM      2  O   UNL     1       3.542  -0.907  28.541  0.00  0.00    -0.227 OA
ENDROOT
BRANCH   1   3
ATOM      3  O   UNL     1       4.408  -0.587  26.158  0.00  0.00    -0.302 OA
ATOM      4  H   UNL     1       4.858  -1.447  26.082  0.00  0.00    +0.222 HD
ENDBRANCH   1   3
BRANCH   1   5
ATOM      5  O   UNL     1       2.362   0.705  26.774  0.00  0.00    -0.186 OA
BRANCH   5   6
ATOM      6  P   UNL     1       2.914   2.344  26.735  0.00  0.00    +0.483 P 
ATOM      7  O   UNL     1       3.992   2.019  27.768  0.00  0.00    -0.227 OA
BRANCH   6   8
ATOM      8  O   UNL     1       3.466   3.983  26.696  0.00  0.00    -0.302 OA
ATOM      9  H   UNL     1       3.320   4.406  27.566  0.00  0.00    +0.222 HD
ENDBRANCH   6   8
BRANCH   6  10
ATOM     10  O   UNL     1       3.486   2.102  25.218  0.00  0.00    -0.286 OA
BRANCH  10  11
ATOM     11  C   UNL     1       4.530   2.948  24.738  0.00  0.00    +0.181 C 
BRANCH  11  12
ATOM     12  C   UNL     1       4.305   3.609  23.358  0.00  0.00    +0.024 C 
ATOM     13  C   UNL     1       5.398   3.106  22.391  0.00  0.00    +0.016 C 
ATOM     14  C   UNL     1       2.923   3.233  22.801  0.00  0.00    +0.016 C 
BRANCH  12  15
ATOM     15  C   UNL     1       4.387   5.168  23.466  0.00  0.00    +0.208 C 
BRANCH  15  18
ATOM     16  N   UNL     1       6.703   6.059  23.528  0.00  0.00    -0.313 N 
ATOM     17  H   UNL     1       6.542   6.246  22.546  0.00  0.00    +0.149 HD
ATOM     18  C   UNL     1       5.610   5.680  24.277  0.00  0.00    +0.242 C 
ATOM     19  O   UNL     1       5.610   5.757  25.500  0.00  0.00    -0.273 OA
BRANCH  16  20
ATOM     20  C   UNL     1       7.970   6.498  24.104  0.00  0.00    +0.113 C 
BRANCH  20  21
ATOM     21  C   UNL     1       9.092   5.464  24.215  0.00  0.00    +0.114 C 
BRANCH  21  24
ATOM     22  N   UNL     1       9.125   3.499  22.726  0.00  0.00    -0.314 N 
ATOM     23  H   UNL     1       9.434   4.157  22.023  0.00  0.00    +0.149 HD
ATOM     24  C   UNL     1       8.740   4.009  23.944  0.00  0.00    +0.215 C 
ATOM     25  O   UNL     1       8.188   3.345  24.818  0.00  0.00    -0.276 OA
BRANCH  22  26
ATOM     26  C   UNL     1       8.898   2.146  22.237  0.00  0.00    +0.115 C 
BRANCH  26  27
ATOM     27  C   UNL     1      10.123   1.283  21.962  0.00  0.00    +0.096 C 
BRANCH  27  28
ATOM     28  S   UNL     1       9.887  -0.335  22.742  0.00  0.00    -0.082 S 
BRANCH  28  29
ATOM     29  C   UNL     1       9.856   0.170  24.423  0.00  0.00    +0.215 C 
ATOM     30  O   UNL     1      10.784   0.768  24.940  0.00  0.00    -0.280 OA
BRANCH  29  32
ATOM     31  C   UNL     1       8.873  -0.864  26.516  0.00  0.00    +0.047 C 
ATOM     32  C   UNL     1       8.616  -0.196  25.198  0.00  0.00    -0.004 C 
ATOM     33  C   UNL     1       7.360   0.036  24.776  0.00  0.00    +0.016 C 
ENDBRANCH  29  32
ENDBRANCH  28  29
ENDBRANCH  27  28
ENDBRANCH  26  27
ENDBRANCH  22  26
ENDBRANCH  21  24
ENDBRANCH  20  21
ENDBRANCH  16  20
ENDBRANCH  15  18
BRANCH  15  34
ATOM     34  O   UNL     1       4.327   5.758  22.168  0.00  0.00    -0.382 OA
ATOM     35  H   UNL     1       3.579   6.378  22.168  0.00  0.00    +0.210 HD
ENDBRANCH  15  34
ENDBRANCH  12  15
ENDBRANCH  11  12
ENDBRANCH  10  11
ENDBRANCH   6  10
ENDBRANCH   5   6
ENDBRANCH   1   5
BRANCH   1  36
ATOM     36  O   UNL     1       2.276  -1.877  26.499  0.00  0.00    -0.284 OA
BRANCH  36  37
ATOM     37  C   UNL     1       1.805  -2.904  27.397  0.00  0.00    +0.206 C 
BRANCH  37  38
ATOM     38  C   UNL     1       2.402  -4.323  27.124  0.00  0.00    +0.179 C 
ATOM     39  C   UNL     1       2.536  -4.634  25.617  0.00  0.00    +0.194 C 
ATOM     40  C   UNL     1       3.947  -4.192  25.242  0.00  0.00    +0.196 C 
ATOM     41  C   UNL     1       4.637  -3.926  26.585  0.00  0.00    +0.253 C 
ATOM     42  O   UNL     1       3.766  -4.437  27.621  0.00  0.00    -0.346 OA
BRANCH  41  43
ATOM     43  N   UNL     1       5.967  -4.514  26.668  0.00  0.00    -0.286 N 
ATOM     44  C   UNL     1       6.963  -4.288  25.747  0.00  0.00    +0.167 A 
ATOM     45  N   UNL     1       6.893  -3.538  24.631  0.00  0.00    -0.216 NA
ATOM     46  C   UNL     1       8.083  -3.532  23.987  0.00  0.00    +0.225 A 
ATOM     47  N   UNL     1       9.220  -4.181  24.317  0.00  0.00    -0.219 NA
ATOM     48  C   UNL     1       9.227  -4.949  25.430  0.00  0.00    +0.147 A 
ATOM     49  N   UNL     1      10.398  -5.629  25.739  0.00  0.00    -0.341 N 
ATOM     50  H   UNL     1      10.482  -5.888  26.715  0.00  0.00    +0.144 HD
ATOM     51  H   UNL     1      11.209  -5.224  25.288  0.00  0.00    +0.144 HD
ATOM     52  C   UNL     1       8.056  -5.006  26.211  0.00  0.00    +0.147 A 
ATOM     53  N   UNL     1       7.743  -5.649  27.396  0.00  0.00    -0.231 NA
ATOM     54  C   UNL     1       6.489  -5.313  27.640  0.00  0.00    +0.203 A 
ENDBRANCH  41  43
BRANCH  40  55
ATOM     55  O   UNL     1       3.913  -3.020  24.426  0.00  0.00    -0.385 OA
ATOM     56  H   UNL     1       3.370  -3.247  23.641  0.00  0.00    +0.210 HD
ENDBRANCH  40  55
BRANCH  39  57
ATOM     57  O   UNL     1       2.502  -6.046  25.361  0.00  0.00    -0.278 OA
BRANCH  57  58
ATOM     58  P   UNL     1       2.582  -6.540  23.845  0.00  0.00    +0.473 P 
ATOM     59  O   UNL     1       2.556  -5.442  22.841  0.00  0.00    -0.228 OA
BRANCH  58  60
ATOM     60  O   UNL     1       3.865  -7.475  23.843  0.00  0.00    -0.303 OA
ATOM     61  H   UNL     1       4.676  -7.069  24.205  0.00  0.00    +0.222 HD
ENDBRANCH  58  60
BRANCH  58  62
ATOM     62  O   UNL     1       1.369  -7.578  23.781  0.00  0.00    -0.303 OA
ATOM     63  H   UNL     1       1.657  -8.504  23.705  0.00  0.00    +0.222 HD
ENDBRANCH  58  62
ENDBRANCH  57  58
ENDBRANCH  39  57
ENDBRANCH  37  38
ENDBRANCH  36  37
ENDBRANCH   1  36
TORSDOF 27
ENDMDL
