MODEL 1
REMARK VINA RESULT:      -3.9      0.000      0.000
REMARK  Name = 
REMARK  23 active torsions:
REMARK  status: ('A' for Active; 'I' for Inactive)
REMARK    1  A    between atoms: C_1  and  C_2
REMARK    2  A    between atoms: C_2  and  C_3
REMARK    3  A    between atoms: C_2  and  C_4
REMARK    4  A    between atoms: C_8  and  C_9
REMARK    5  A    between atoms: C_9  and  C_10
REMARK    6  A    between atoms: C_10  and  C_11
REMARK    7  A    between atoms: C_11  and  C_12
REMARK    8  A    between atoms: C_12  and  N_13
REMARK    9  A    between atoms: C_17  and  C_18
REMARK   10  A    between atoms: C_18  and  C_19
REMARK   11  A    between atoms: C_31  and  C_32
REMARK   12  A    between atoms: C_32  and  C_33
REMARK   13  A    between atoms: C_36  and  O_37
REMARK   14  A    between atoms: C_43  and  N_69
REMARK   15  A    between atoms: C_48  and  C_52
REMARK   16  A    between atoms: N_54  and  C_55
REMARK   17  A    between atoms: C_55  and  C_56
REMARK   18  A    between atoms: C_55  and  C_66
REMARK   19  A    between atoms: C_56  and  C_57
REMARK   20  A    between atoms: C_70  and  C_72
REMARK   21  A    between atoms: C_72  and  N_73
REMARK   22  A    between atoms: C_72  and  C_74
REMARK   23  A    between atoms: C_74  and  C_75
REMARK                            x       y       z     vdW  Elec       q    Type
REMARK                         _______ _______ _______ _____ _____    ______ ____
ROOT
ATOM      1  C   UNL     1       1.238  -5.665  28.313  0.00  0.00    +0.161 C 
ATOM      2  C   UNL     1       1.988  -4.168  29.267  0.00  0.00    +0.234 C 
ATOM      3  O   UNL     1       2.178  -4.327  30.485  0.00  0.00    -0.274 OA
ATOM      4  N   UNL     1       2.348  -2.697  28.647  0.00  0.00    -0.302 N 
ATOM      5  H   UNL     1       1.804  -2.527  27.814  0.00  0.00    +0.150 HD
ATOM      6  C   UNL     1       3.265  -1.139  29.104  0.00  0.00    +0.169 C 
ATOM      7  C   UNL     1       3.945  -0.205  27.764  0.00  0.00    +0.112 C 
ATOM      8  S   UNL     1       5.673   1.014  27.703  0.00  0.00    -0.091 S 
ATOM      9  S   UNL     1       5.791   2.015  25.714  0.00  0.00    -0.091 S 
ATOM     10  C   UNL     1       7.647   2.648  25.010  0.00  0.00    +0.112 C 
ATOM     11  C   UNL     1       7.972   2.455  23.455  0.00  0.00    +0.169 C 
ATOM     12  C   UNL     1       8.084   0.957  23.145  0.00  0.00    +0.235 C 
ATOM     13  O   UNL     1       9.096   0.445  22.666  0.00  0.00    -0.274 OA
ATOM     14  N   UNL     1       6.959   0.250  23.414  0.00  0.00    -0.302 N 
ATOM     15  H   UNL     1       6.131   0.722  23.779  0.00  0.00    +0.150 HD
ATOM     16  C   UNL     1       6.858  -1.188  23.305  0.00  0.00    +0.163 C 
ATOM     17  C   UNL     1       5.530  -1.544  23.948  0.00  0.00    +0.234 C 
ATOM     18  O   UNL     1       4.669  -0.723  24.254  0.00  0.00    -0.274 OA
ATOM     19  N   UNL     1       5.364  -2.893  24.083  0.00  0.00    -0.302 N 
ATOM     20  H   UNL     1       6.173  -3.538  24.094  0.00  0.00    +0.150 HD
ATOM     21  C   UNL     1       4.118  -3.410  24.567  0.00  0.00    +0.163 C 
ATOM     22  C   UNL     1       4.134  -4.894  24.445  0.00  0.00    +0.234 C 
ATOM     23  O   UNL     1       5.149  -5.531  24.440  0.00  0.00    -0.274 OA
ATOM     24  N   UNL     1       2.887  -5.435  24.486  0.00  0.00    -0.302 N 
ATOM     25  H   UNL     1       2.063  -4.833  24.493  0.00  0.00    +0.150 HD
ATOM     26  C   UNL     1       2.694  -6.782  24.981  0.00  0.00    +0.159 C 
ATOM     27  C   UNL     1       1.585  -6.435  25.965  0.00  0.00    +0.234 C 
ATOM     28  O   UNL     1       0.446  -6.158  25.604  0.00  0.00    -0.274 OA
ATOM     29  N   UNL     1       2.092  -6.101  27.215  0.00  0.00    -0.302 N 
ATOM     30  H   UNL     1       2.831  -6.719  27.527  0.00  0.00    +0.150 HD
ENDROOT
BRANCH   6  31
ATOM     31  C   UNL     1       2.643   0.321  29.878  0.00  0.00    +0.235 C 
ATOM     32  N   UNL     1       3.237   1.639  29.630  0.00  0.00    -0.302 N 
ATOM     33  H   UNL     1       4.107   1.703  29.113  0.00  0.00    +0.150 HD
ATOM     34  O   UNL     1       1.568   0.267  30.483  0.00  0.00    -0.274 OA
BRANCH  32  35
ATOM     35  C   UNL     1       2.579   3.048  30.012  0.00  0.00    +0.164 C 
BRANCH  35  36
ATOM     36  C   UNL     1       1.440   3.927  29.216  0.00  0.00    +0.231 C 
ATOM     37  O   UNL     1       0.830   4.855  29.771  0.00  0.00    -0.274 OA
ATOM     38  N   UNL     1       1.035   3.651  27.965  0.00  0.00    -0.328 N 
ATOM     39  H   UNL     1       0.265   4.208  27.582  0.00  0.00    +0.145 HD
ATOM     40  H   UNL     1       1.303   2.814  27.491  0.00  0.00    +0.145 HD
ENDBRANCH  35  36
BRANCH  35  41
ATOM     41  C   UNL     1       3.637   4.161  30.361  0.00  0.00    +0.085 C 
BRANCH  41  42
ATOM     42  C   UNL     1       4.028   4.913  29.131  0.00  0.00    +0.019 A 
ATOM     43  N   UNL     1       3.229   5.888  28.555  0.00  0.00    -0.358 N 
ATOM     44  H   UNL     1       2.403   6.305  28.976  0.00  0.00    +0.166 HD
ATOM     45  C   UNL     1       3.530   5.958  27.205  0.00  0.00    +0.047 A 
ATOM     46  C   UNL     1       4.751   5.292  27.035  0.00  0.00    -0.000 A 
ATOM     47  C   UNL     1       5.306   5.235  25.742  0.00  0.00    +0.010 A 
ATOM     48  C   UNL     1       4.586   5.731  24.664  0.00  0.00    +0.001 A 
ATOM     49  C   UNL     1       3.356   6.352  24.850  0.00  0.00    +0.002 A 
ATOM     50  C   UNL     1       2.825   6.520  26.139  0.00  0.00    +0.026 A 
ATOM     51  C   UNL     1       5.100   4.747  28.289  0.00  0.00    +0.031 A 
ENDBRANCH  41  42
ENDBRANCH  35  41
ENDBRANCH  32  35
ENDBRANCH   6  31
BRANCH  11  52
ATOM     52  N   UNL     1       9.284   3.001  22.933  0.00  0.00    -0.302 N 
ATOM     53  H   UNL     1       9.176   3.621  22.128  0.00  0.00    +0.150 HD
ATOM     54  C   UNL     1      10.424   3.235  23.684  0.00  0.00    +0.231 C 
ATOM     55  O   UNL     1      10.487   2.913  24.866  0.00  0.00    -0.274 OA
BRANCH  54  56
ATOM     56  C   UNL     1      11.596   3.987  22.963  0.00  0.00    +0.142 C 
BRANCH  56  57
ATOM     57  N   UNL     1      11.879   3.382  21.638  0.00  0.00    -0.320 NA
ATOM     58  H   UNL     1      12.833   3.040  21.585  0.00  0.00    +0.119 HD
ATOM     59  H   UNL     1      11.264   2.577  21.496  0.00  0.00    +0.119 HD
ENDBRANCH  56  57
BRANCH  56  60
ATOM     60  C   UNL     1      11.250   5.476  22.733  0.00  0.00    +0.063 C 
BRANCH  60  61
ATOM     61  C   UNL     1      10.469   6.071  23.878  0.00  0.00    -0.045 A 
ATOM     62  C   UNL     1       9.072   6.130  23.822  0.00  0.00    +0.004 A 
ATOM     63  C   UNL     1       8.343   6.601  24.913  0.00  0.00    +0.000 A 
ATOM     64  C   UNL     1       9.005   7.018  26.066  0.00  0.00    +0.000 A 
ATOM     65  C   UNL     1      10.397   6.993  26.118  0.00  0.00    +0.000 A 
ATOM     66  C   UNL     1      11.128   6.534  25.024  0.00  0.00    +0.004 A 
ENDBRANCH  60  61
ENDBRANCH  56  60
ENDBRANCH  54  56
ENDBRANCH  11  52
BRANCH   1  68
ATOM     67  C   UNL     1       1.172  -8.585  27.911  0.00  0.00    +0.009 C 
ATOM     68  C   UNL     1       0.549  -7.322  28.734  0.00  0.00    +0.012 C 
ATOM     69  C   UNL     1       0.703  -8.007  30.172  0.00  0.00    +0.009 C 
ENDBRANCH   1  68
BRANCH  16  70
ATOM     70  C   UNL     1       6.891  -1.740  21.867  0.00  0.00    +0.067 C 
BRANCH  70  71
ATOM     71  C   UNL     1       6.977  -3.252  21.846  0.00  0.00    -0.045 A 
ATOM     72  C   UNL     1       7.851  -3.932  22.709  0.00  0.00    +0.007 A 
ATOM     73  C   UNL     1       7.774  -5.316  22.850  0.00  0.00    +0.045 A 
ATOM     74  C   UNL     1       6.853  -6.025  22.094  0.00  0.00    +0.117 A 
ATOM     75  C   UNL     1       6.015  -5.376  21.193  0.00  0.00    +0.045 A 
ATOM     76  C   UNL     1       6.075  -3.988  21.072  0.00  0.00    +0.007 A 
BRANCH  74  77
ATOM     77  O   UNL     1       6.792  -7.374  22.277  0.00  0.00    -0.507 OA
ATOM     78  H   UNL     1       7.656  -7.753  22.047  0.00  0.00    +0.292 HD
ENDBRANCH  74  77
ENDBRANCH  70  71
ENDBRANCH  16  70
BRANCH  21  79
ATOM     79  C   UNL     1       3.851  -3.152  26.032  0.00  0.00    +0.069 C 
BRANCH  79  80
ATOM     80  C   UNL     1       4.857  -3.714  27.016  0.00  0.00    -0.020 A 
ATOM     81  C   UNL     1       6.284  -3.635  26.996  0.00  0.00    +0.003 A 
ATOM     82  C   UNL     1       7.246  -2.773  26.457  0.00  0.00    +0.010 A 
ATOM     83  C   UNL     1       8.565  -3.209  26.302  0.00  0.00    +0.001 A 
ATOM     84  C   UNL     1       8.942  -4.471  26.749  0.00  0.00    +0.002 A 
ATOM     85  C   UNL     1       8.054  -5.260  27.483  0.00  0.00    +0.026 A 
ATOM     86  C   UNL     1       6.748  -4.785  27.629  0.00  0.00    +0.047 A 
ATOM     87  N   UNL     1       5.706  -5.241  28.388  0.00  0.00    -0.360 N 
ATOM     88  H   UNL     1       5.761  -6.008  29.043  0.00  0.00    +0.165 HD
ATOM     89  C   UNL     1       4.583  -4.514  28.109  0.00  0.00    +0.087 A 
ENDBRANCH  79  80
ENDBRANCH  21  79
BRANCH  26  90
ATOM     90  C   UNL     1       2.444  -7.683  23.793  0.00  0.00    +0.032 C 
BRANCH  90  91
ATOM     91  C   UNL     1       1.810  -6.809  22.697  0.00  0.00    +0.003 C 
BRANCH  91  92
ATOM     92  C   UNL     1       0.454  -7.291  22.245  0.00  0.00    +0.015 C 
BRANCH  92  93
ATOM     93  C   UNL     1       0.458  -7.464  20.729  0.00  0.00    +0.077 C 
BRANCH  93  94
ATOM     94  N   UNL     1       1.296  -8.604  20.397  0.00  0.00    -0.330 NA
ATOM     95  H   UNL     1       1.382  -8.680  19.387  0.00  0.00    +0.118 HD
ATOM     96  H   UNL     1       2.235  -8.450  20.761  0.00  0.00    +0.118 HD
ENDBRANCH  93  94
ENDBRANCH  92  93
ENDBRANCH  91  92
ENDBRANCH  90  91
ENDBRANCH  26  90
TORSDOF 21
ENDMDL
