MODEL 1
REMARK VINA RESULT:      -5.0      0.000      0.000
REMARK  Name = 
REMARK  0 active torsions:
REMARK  status: ('A' for Active; 'I' for Inactive)
REMARK                            x       y       z     vdW  Elec       q    Type
REMARK                         _______ _______ _______ _____ _____    ______ ____
ROOT
ATOM      1  O   UNL     1       9.683  -3.392  24.115  0.00  0.00    -0.266 OA
ATOM      2  C   UNL     1       9.792  -2.219  23.840  0.00  0.00    +0.289 C 
ATOM      3  C   UNL     1       9.563  -1.569  22.445  0.00  0.00    +0.249 C 
ATOM      4  O   UNL     1       9.242  -2.121  21.419  0.00  0.00    -0.282 OA
ATOM      5  C   UNL     1       9.819  -0.142  22.643  0.00  0.00    +0.048 A 
ATOM      6  C   UNL     1      10.156   0.032  23.983  0.00  0.00    +0.045 A 
ATOM      7  C   UNL     1      10.458   1.279  24.488  0.00  0.00    +0.024 A 
ATOM      8  C   UNL     1      10.411   2.361  23.599  0.00  0.00    +0.002 A 
ATOM      9  C   UNL     1      10.068   2.178  22.242  0.00  0.00    +0.001 A 
ATOM     10  C   UNL     1       9.765   0.907  21.748  0.00  0.00    +0.014 A 
ATOM     11  N   UNL     1      10.140  -1.174  24.675  0.00  0.00    -0.278 N 
ATOM     12  H   UNL     1      10.349  -1.304  25.654  0.00  0.00    +0.155 HD
ENDROOT
TORSDOF 0
ENDMDL
MODEL 2
REMARK VINA RESULT:      -4.9      1.325      2.275
REMARK  Name = 
REMARK  0 active torsions:
REMARK  status: ('A' for Active; 'I' for Inactive)
REMARK                            x       y       z     vdW  Elec       q    Type
REMARK                         _______ _______ _______ _____ _____    ______ ____
ROOT
ATOM      1  O   UNL     1       9.864  -3.430  24.125  0.00  0.00    -0.266 OA
ATOM      2  C   UNL     1       9.783  -2.246  23.891  0.00  0.00    +0.289 C 
ATOM      3  C   UNL     1       9.366  -1.131  24.893  0.00  0.00    +0.249 C 
ATOM      4  O   UNL     1       9.058  -1.261  26.055  0.00  0.00    -0.282 OA
ATOM      5  C   UNL     1       9.427   0.114  24.126  0.00  0.00    +0.048 A 
ATOM      6  C   UNL     1       9.830  -0.221  22.835  0.00  0.00    +0.045 A 
ATOM      7  C   UNL     1       9.982   0.744  21.862  0.00  0.00    +0.024 A 
ATOM      8  C   UNL     1       9.718   2.071  22.225  0.00  0.00    +0.002 A 
ATOM      9  C   UNL     1       9.311   2.403  23.535  0.00  0.00    +0.001 A 
ATOM     10  C   UNL     1       9.161   1.412  24.509  0.00  0.00    +0.014 A 
ATOM     11  N   UNL     1      10.035  -1.590  22.702  0.00  0.00    -0.278 N 
ATOM     12  H   UNL     1      10.328  -2.071  21.864  0.00  0.00    +0.155 HD
ENDROOT
TORSDOF 0
ENDMDL
MODEL 3
REMARK VINA RESULT:      -4.8      1.444      2.386
REMARK  Name = 
REMARK  0 active torsions:
REMARK  status: ('A' for Active; 'I' for Inactive)
REMARK                            x       y       z     vdW  Elec       q    Type
REMARK                         _______ _______ _______ _____ _____    ______ ____
ROOT
ATOM      1  O   UNL     1       7.952  -3.577  22.599  0.00  0.00    -0.266 OA
ATOM      2  C   UNL     1       8.471  -2.498  22.774  0.00  0.00    +0.289 C 
ATOM      3  C   UNL     1       9.041  -1.951  24.114  0.00  0.00    +0.249 C 
ATOM      4  O   UNL     1       9.059  -2.504  25.188  0.00  0.00    -0.282 OA
ATOM      5  C   UNL     1       9.553  -0.617  23.795  0.00  0.00    +0.048 A 
ATOM      6  C   UNL     1       9.317  -0.402  22.438  0.00  0.00    +0.045 A 
ATOM      7  C   UNL     1       9.688   0.776  21.827  0.00  0.00    +0.024 A 
ATOM      8  C   UNL     1      10.312   1.745  22.623  0.00  0.00    +0.002 A 
ATOM      9  C   UNL     1      10.548   1.521  23.997  0.00  0.00    +0.001 A 
ATOM     10  C   UNL     1      10.165   0.321  24.600  0.00  0.00    +0.014 A 
ATOM     11  N   UNL     1       8.690  -1.495  21.849  0.00  0.00    -0.278 N 
ATOM     12  H   UNL     1       8.417  -1.576  20.880  0.00  0.00    +0.155 HD
ENDROOT
TORSDOF 0
ENDMDL
MODEL 4
REMARK VINA RESULT:      -4.7      5.518      6.527
REMARK  Name = 
REMARK  0 active torsions:
REMARK  status: ('A' for Active; 'I' for Inactive)
REMARK                            x       y       z     vdW  Elec       q    Type
REMARK                         _______ _______ _______ _____ _____    ______ ____
ROOT
ATOM      1  O   UNL     1       8.215  -4.889  27.156  0.00  0.00    -0.266 OA
ATOM      2  C   UNL     1       7.712  -5.044  26.067  0.00  0.00    +0.289 C 
ATOM      3  C   UNL     1       8.419  -4.888  24.690  0.00  0.00    +0.249 C 
ATOM      4  O   UNL     1       9.572  -4.590  24.482  0.00  0.00    -0.282 OA
ATOM      5  C   UNL     1       7.386  -5.181  23.695  0.00  0.00    +0.048 A 
ATOM      6  C   UNL     1       6.217  -5.474  24.393  0.00  0.00    +0.045 A 
ATOM      7  C   UNL     1       5.051  -5.794  23.731  0.00  0.00    +0.024 A 
ATOM      8  C   UNL     1       5.091  -5.813  22.331  0.00  0.00    +0.002 A 
ATOM      9  C   UNL     1       6.279  -5.516  21.630  0.00  0.00    +0.001 A 
ATOM     10  C   UNL     1       7.452  -5.193  22.317  0.00  0.00    +0.014 A 
ATOM     11  N   UNL     1       6.409  -5.394  25.768  0.00  0.00    -0.278 N 
ATOM     12  H   UNL     1       5.712  -5.561  26.480  0.00  0.00    +0.155 HD
ENDROOT
TORSDOF 0
ENDMDL
MODEL 5
REMARK VINA RESULT:      -4.6      2.875      3.974
REMARK  Name = 
REMARK  0 active torsions:
REMARK  status: ('A' for Active; 'I' for Inactive)
REMARK                            x       y       z     vdW  Elec       q    Type
REMARK                         _______ _______ _______ _____ _____    ______ ____
ROOT
ATOM      1  O   UNL     1       7.622  -5.869  26.864  0.00  0.00    -0.266 OA
ATOM      2  C   UNL     1       8.038  -4.847  26.368  0.00  0.00    +0.289 C 
ATOM      3  C   UNL     1       8.869  -4.724  25.059  0.00  0.00    +0.249 C 
ATOM      4  O   UNL     1       9.230  -5.616  24.328  0.00  0.00    -0.282 OA
ATOM      5  C   UNL     1       9.118  -3.290  24.899  0.00  0.00    +0.048 A 
ATOM      6  C   UNL     1       8.513  -2.647  25.976  0.00  0.00    +0.045 A 
ATOM      7  C   UNL     1       8.572  -1.277  26.114  0.00  0.00    +0.024 A 
ATOM      8  C   UNL     1       9.262  -0.560  25.128  0.00  0.00    +0.002 A 
ATOM      9  C   UNL     1       9.873  -1.218  24.039  0.00  0.00    +0.001 A 
ATOM     10  C   UNL     1       9.804  -2.608  23.915  0.00  0.00    +0.014 A 
ATOM     11  N   UNL     1       7.888  -3.553  26.827  0.00  0.00    -0.278 N 
ATOM     12  H   UNL     1       7.384  -3.327  27.673  0.00  0.00    +0.155 HD
ENDROOT
TORSDOF 0
ENDMDL
MODEL 6
REMARK VINA RESULT:      -4.6      1.901      2.209
REMARK  Name = 
REMARK  0 active torsions:
REMARK  status: ('A' for Active; 'I' for Inactive)
REMARK                            x       y       z     vdW  Elec       q    Type
REMARK                         _______ _______ _______ _____ _____    ______ ____
ROOT
ATOM      1  O   UNL     1       8.434  -3.536  23.451  0.00  0.00    -0.266 OA
ATOM      2  C   UNL     1       8.411  -2.368  23.140  0.00  0.00    +0.289 C 
ATOM      3  C   UNL     1       9.595  -1.539  22.565  0.00  0.00    +0.249 C 
ATOM      4  O   UNL     1      10.719  -1.919  22.336  0.00  0.00    -0.282 OA
ATOM      5  C   UNL     1       9.054  -0.194  22.357  0.00  0.00    +0.048 A 
ATOM      6  C   UNL     1       7.721  -0.223  22.758  0.00  0.00    +0.045 A 
ATOM      7  C   UNL     1       6.929   0.903  22.686  0.00  0.00    +0.024 A 
ATOM      8  C   UNL     1       7.519   2.074  22.192  0.00  0.00    +0.002 A 
ATOM      9  C   UNL     1       8.871   2.096  21.788  0.00  0.00    +0.001 A 
ATOM     10  C   UNL     1       9.659   0.945  21.868  0.00  0.00    +0.014 A 
ATOM     11  N   UNL     1       7.350  -1.485  23.212  0.00  0.00    -0.278 N 
ATOM     12  H   UNL     1       6.439  -1.753  23.554  0.00  0.00    +0.155 HD
ENDROOT
TORSDOF 0
ENDMDL
MODEL 7
REMARK VINA RESULT:      -4.6      3.502      4.723
REMARK  Name = 
REMARK  0 active torsions:
REMARK  status: ('A' for Active; 'I' for Inactive)
REMARK                            x       y       z     vdW  Elec       q    Type
REMARK                         _______ _______ _______ _____ _____    ______ ____
ROOT
ATOM      1  O   UNL     1       7.418   4.117  22.079  0.00  0.00    -0.266 OA
ATOM      2  C   UNL     1       7.681   2.938  22.131  0.00  0.00    +0.289 C 
ATOM      3  C   UNL     1       6.836   1.830  22.822  0.00  0.00    +0.249 C 
ATOM      4  O   UNL     1       5.790   1.961  23.413  0.00  0.00    -0.282 OA
ATOM      5  C   UNL     1       7.580   0.589  22.601  0.00  0.00    +0.048 A 
ATOM      6  C   UNL     1       8.721   0.919  21.873  0.00  0.00    +0.045 A 
ATOM      7  C   UNL     1       9.636  -0.042  21.504  0.00  0.00    +0.024 A 
ATOM      8  C   UNL     1       9.373  -1.363  21.890  0.00  0.00    +0.002 A 
ATOM      9  C   UNL     1       8.215  -1.691  22.628  0.00  0.00    +0.001 A 
ATOM     10  C   UNL     1       7.298  -0.703  22.994  0.00  0.00    +0.014 A 
ATOM     11  N   UNL     1       8.776   2.283  21.601  0.00  0.00    -0.278 N 
ATOM     12  H   UNL     1       9.505   2.760  21.090  0.00  0.00    +0.155 HD
ENDROOT
TORSDOF 0
ENDMDL
MODEL 8
REMARK VINA RESULT:      -4.5      5.644      6.614
REMARK  Name = 
REMARK  0 active torsions:
REMARK  status: ('A' for Active; 'I' for Inactive)
REMARK                            x       y       z     vdW  Elec       q    Type
REMARK                         _______ _______ _______ _____ _____    ______ ____
ROOT
ATOM      1  O   UNL     1       5.744  -4.076  20.608  0.00  0.00    -0.266 OA
ATOM      2  C   UNL     1       6.061  -4.353  21.742  0.00  0.00    +0.289 C 
ATOM      3  C   UNL     1       5.103  -4.754  22.901  0.00  0.00    +0.249 C 
ATOM      4  O   UNL     1       3.899  -4.855  22.860  0.00  0.00    -0.282 OA
ATOM      5  C   UNL     1       5.974  -4.986  24.053  0.00  0.00    +0.048 A 
ATOM      6  C   UNL     1       7.282  -4.753  23.632  0.00  0.00    +0.045 A 
ATOM      7  C   UNL     1       8.346  -4.888  24.498  0.00  0.00    +0.024 A 
ATOM      8  C   UNL     1       8.059  -5.271  25.815  0.00  0.00    +0.002 A 
ATOM      9  C   UNL     1       6.732  -5.506  26.235  0.00  0.00    +0.001 A 
ATOM     10  C   UNL     1       5.665  -5.364  25.344  0.00  0.00    +0.014 A 
ATOM     11  N   UNL     1       7.328  -4.386  22.291  0.00  0.00    -0.278 N 
ATOM     12  H   UNL     1       8.160  -4.166  21.761  0.00  0.00    +0.155 HD
ENDROOT
TORSDOF 0
ENDMDL
MODEL 9
REMARK VINA RESULT:      -4.5      6.010      7.706
REMARK  Name = 
REMARK  0 active torsions:
REMARK  status: ('A' for Active; 'I' for Inactive)
REMARK                            x       y       z     vdW  Elec       q    Type
REMARK                         _______ _______ _______ _____ _____    ______ ____
ROOT
ATOM      1  O   UNL     1       6.046  -4.999  20.720  0.00  0.00    -0.266 OA
ATOM      2  C   UNL     1       5.870  -5.290  21.880  0.00  0.00    +0.289 C 
ATOM      3  C   UNL     1       6.704  -4.795  23.097  0.00  0.00    +0.249 C 
ATOM      4  O   UNL     1       7.653  -4.047  23.084  0.00  0.00    -0.282 OA
ATOM      5  C   UNL     1       6.091  -5.430  24.264  0.00  0.00    +0.048 A 
ATOM      6  C   UNL     1       5.029  -6.203  23.799  0.00  0.00    +0.045 A 
ATOM      7  C   UNL     1       4.245  -6.934  24.665  0.00  0.00    +0.024 A 
ATOM      8  C   UNL     1       4.558  -6.867  26.029  0.00  0.00    +0.002 A 
ATOM      9  C   UNL     1       5.635  -6.082  26.493  0.00  0.00    +0.001 A 
ATOM     10  C   UNL     1       6.420  -5.347  25.601  0.00  0.00    +0.014 A 
ATOM     11  N   UNL     1       4.903  -6.120  22.416  0.00  0.00    -0.278 N 
ATOM     12  H   UNL     1       4.211  -6.590  21.850  0.00  0.00    +0.155 HD
ENDROOT
TORSDOF 0
ENDMDL
