MODEL 1
REMARK VINA RESULT:      -5.0      0.000      0.000
REMARK  Name = 
REMARK  17 active torsions:
REMARK  status: ('A' for Active; 'I' for Inactive)
REMARK    1  A    between atoms: C_2  and  O_3
REMARK    2  A    between atoms: C_2  and  C_4
REMARK    3  A    between atoms: C_2  and  C_12
REMARK    4  A    between atoms: C_4  and  C_5
REMARK    5  A    between atoms: C_6  and  C_7
REMARK    6  A    between atoms: C_7  and  C_8
REMARK    7  A    between atoms: C_8  and  C_9
REMARK    8  A    between atoms: C_9  and  C_10
REMARK    9  A    between atoms: C_10  and  C_11
REMARK   10  A    between atoms: C_13  and  C_14
REMARK   11  A    between atoms: C_14  and  C_15
REMARK   12  A    between atoms: C_15  and  C_17
REMARK   13  A    between atoms: C_17  and  C_18
REMARK   14  A    between atoms: C_18  and  C_19
REMARK   15  A    between atoms: C_19  and  C_20
REMARK   16  A    between atoms: C_20  and  C_21
REMARK   17  A    between atoms: C_21  and  O_22
REMARK                            x       y       z     vdW  Elec       q    Type
REMARK                         _______ _______ _______ _____ _____    ______ ____
ROOT
ATOM      1  C   UNL     1       8.162  -1.711  22.703  0.00  0.00    +0.000 C 
ATOM      2  C   UNL     1       7.757  -2.839  22.097  0.00  0.00    -0.021 C 
ENDROOT
BRANCH   2   3
ATOM      3  C   UNL     1       6.444  -3.509  22.364  0.00  0.00    +0.101 C 
BRANCH   3   4
ATOM      4  C   UNL     1       6.667  -4.816  23.114  0.00  0.00    +0.137 C 
ATOM      5  O   UNL     1       7.489  -5.657  22.746  0.00  0.00    -0.297 OA
BRANCH   4   6
ATOM      6  C   UNL     1       5.751  -5.078  24.295  0.00  0.00    +0.074 C 
BRANCH   6   7
ATOM      7  C   UNL     1       6.551  -5.160  25.591  0.00  0.00    +0.008 C 
BRANCH   7   8
ATOM      8  C   UNL     1       7.308  -3.866  25.875  0.00  0.00    +0.011 C 
BRANCH   8   9
ATOM      9  C   UNL     1       8.702  -4.165  26.422  0.00  0.00    +0.120 C 
BRANCH   9  10
ATOM     10  C   UNL     1       9.633  -4.681  25.353  0.00  0.00    +0.305 C 
ATOM     11  O   UNL     1      10.055  -4.031  24.409  0.00  0.00    -0.251 OA
BRANCH  10  12
ATOM     12  O   UNL     1       9.962  -5.979  25.539  0.00  0.00    -0.481 OA
ATOM     13  H   UNL     1      10.211  -6.194  26.458  0.00  0.00    +0.295 HD
ENDBRANCH  10  12
ENDBRANCH   9  10
ENDBRANCH   8   9
ENDBRANCH   7   8
ENDBRANCH   6   7
ENDBRANCH   4   6
ENDBRANCH   3   4
ENDBRANCH   2   3
BRANCH   1  14
ATOM     14  C   UNL     1       9.467  -0.998  22.449  0.00  0.00    +0.141 C 
BRANCH  14  15
ATOM     15  O   UNL     1      10.450  -1.938  22.010  0.00  0.00    -0.387 OA
ATOM     16  H   UNL     1      11.317  -1.516  22.149  0.00  0.00    +0.210 HD
ENDBRANCH  14  15
BRANCH  14  17
ATOM     17  C   UNL     1       9.365   0.121  21.396  0.00  0.00    +0.062 C 
BRANCH  17  18
ATOM     18  C   UNL     1       9.725   1.491  21.915  0.00  0.00    -0.028 C 
ATOM     19  C   UNL     1       8.888   2.336  22.538  0.00  0.00    -0.031 C 
BRANCH  19  20
ATOM     20  C   UNL     1       7.447   2.032  22.815  0.00  0.00    +0.027 C 
BRANCH  20  21
ATOM     21  C   UNL     1       7.061   2.264  24.272  0.00  0.00    +0.004 C 
BRANCH  21  22
ATOM     22  C   UNL     1       8.170   1.749  25.192  0.00  0.00    +0.000 C 
BRANCH  22  23
ATOM     23  C   UNL     1       7.833   0.377  25.764  0.00  0.00    -0.003 C 
ATOM     24  C   UNL     1       9.091  -0.431  26.024  0.00  0.00    +0.004 C 
ENDBRANCH  22  23
ENDBRANCH  21  22
ENDBRANCH  20  21
ENDBRANCH  19  20
ENDBRANCH  17  18
ENDBRANCH  14  17
ENDBRANCH   1  14
TORSDOF 16
ENDMDL
MODEL 2
REMARK VINA RESULT:      -4.9      2.188      6.328
REMARK  Name = 
REMARK  17 active torsions:
REMARK  status: ('A' for Active; 'I' for Inactive)
REMARK    1  A    between atoms: C_2  and  O_3
REMARK    2  A    between atoms: C_2  and  C_4
REMARK    3  A    between atoms: C_2  and  C_12
REMARK    4  A    between atoms: C_4  and  C_5
REMARK    5  A    between atoms: C_6  and  C_7
REMARK    6  A    between atoms: C_7  and  C_8
REMARK    7  A    between atoms: C_8  and  C_9
REMARK    8  A    between atoms: C_9  and  C_10
REMARK    9  A    between atoms: C_10  and  C_11
REMARK   10  A    between atoms: C_13  and  C_14
REMARK   11  A    between atoms: C_14  and  C_15
REMARK   12  A    between atoms: C_15  and  C_17
REMARK   13  A    between atoms: C_17  and  C_18
REMARK   14  A    between atoms: C_18  and  C_19
REMARK   15  A    between atoms: C_19  and  C_20
REMARK   16  A    between atoms: C_20  and  C_21
REMARK   17  A    between atoms: C_21  and  O_22
REMARK                            x       y       z     vdW  Elec       q    Type
REMARK                         _______ _______ _______ _____ _____    ______ ____
ROOT
ATOM      1  C   UNL     1       8.699  -2.934  24.712  0.00  0.00    +0.000 C 
ATOM      2  C   UNL     1       8.148  -2.097  23.818  0.00  0.00    -0.021 C 
ENDROOT
BRANCH   2   3
ATOM      3  C   UNL     1       8.342  -2.208  22.336  0.00  0.00    +0.101 C 
BRANCH   3   4
ATOM      4  C   UNL     1       9.567  -1.411  21.908  0.00  0.00    +0.137 C 
ATOM      5  O   UNL     1      10.711  -1.734  22.232  0.00  0.00    -0.297 OA
BRANCH   4   6
ATOM      6  C   UNL     1       9.301  -0.133  21.134  0.00  0.00    +0.074 C 
BRANCH   6   7
ATOM      7  C   UNL     1       8.955   1.011  22.081  0.00  0.00    +0.008 C 
BRANCH   7   8
ATOM      8  C   UNL     1      10.176   1.866  22.408  0.00  0.00    +0.011 C 
BRANCH   8   9
ATOM      9  C   UNL     1      10.168   2.277  23.880  0.00  0.00    +0.120 C 
BRANCH   9  10
ATOM     10  C   UNL     1       9.929   1.102  24.795  0.00  0.00    +0.305 C 
ATOM     11  O   UNL     1      10.666   0.135  24.913  0.00  0.00    -0.251 OA
BRANCH  10  12
ATOM     12  O   UNL     1       8.777   1.219  25.493  0.00  0.00    -0.481 OA
ATOM     13  H   UNL     1       8.872   1.711  26.331  0.00  0.00    +0.295 HD
ENDBRANCH  10  12
ENDBRANCH   9  10
ENDBRANCH   8   9
ENDBRANCH   7   8
ENDBRANCH   6   7
ENDBRANCH   4   6
ENDBRANCH   3   4
ENDBRANCH   2   3
BRANCH   1  14
ATOM     14  C   UNL     1       8.515  -2.866  26.208  0.00  0.00    +0.141 C 
BRANCH  14  15
ATOM     15  O   UNL     1       8.549  -1.502  26.635  0.00  0.00    -0.387 OA
ATOM     16  H   UNL     1       9.489  -1.268  26.737  0.00  0.00    +0.210 HD
ENDBRANCH  14  15
BRANCH  14  17
ATOM     17  C   UNL     1       7.195  -3.491  26.697  0.00  0.00    +0.062 C 
BRANCH  17  18
ATOM     18  C   UNL     1       7.017  -4.938  26.310  0.00  0.00    -0.028 C 
ATOM     19  C   UNL     1       5.973  -5.444  25.634  0.00  0.00    -0.031 C 
BRANCH  19  20
ATOM     20  C   UNL     1       4.812  -4.626  25.155  0.00  0.00    +0.027 C 
BRANCH  20  21
ATOM     21  C   UNL     1       4.370  -4.994  23.742  0.00  0.00    +0.004 C 
BRANCH  21  22
ATOM     22  C   UNL     1       5.348  -4.405  22.723  0.00  0.00    +0.000 C 
BRANCH  22  23
ATOM     23  C   UNL     1       5.876  -5.472  21.771  0.00  0.00    -0.003 C 
ATOM     24  C   UNL     1       7.286  -5.891  22.148  0.00  0.00    +0.004 C 
ENDBRANCH  22  23
ENDBRANCH  21  22
ENDBRANCH  20  21
ENDBRANCH  19  20
ENDBRANCH  17  18
ENDBRANCH  14  17
ENDBRANCH   1  14
TORSDOF 16
ENDMDL
MODEL 3
REMARK VINA RESULT:      -4.9      1.460      2.101
REMARK  Name = 
REMARK  17 active torsions:
REMARK  status: ('A' for Active; 'I' for Inactive)
REMARK    1  A    between atoms: C_2  and  O_3
REMARK    2  A    between atoms: C_2  and  C_4
REMARK    3  A    between atoms: C_2  and  C_12
REMARK    4  A    between atoms: C_4  and  C_5
REMARK    5  A    between atoms: C_6  and  C_7
REMARK    6  A    between atoms: C_7  and  C_8
REMARK    7  A    between atoms: C_8  and  C_9
REMARK    8  A    between atoms: C_9  and  C_10
REMARK    9  A    between atoms: C_10  and  C_11
REMARK   10  A    between atoms: C_13  and  C_14
REMARK   11  A    between atoms: C_14  and  C_15
REMARK   12  A    between atoms: C_15  and  C_17
REMARK   13  A    between atoms: C_17  and  C_18
REMARK   14  A    between atoms: C_18  and  C_19
REMARK   15  A    between atoms: C_19  and  C_20
REMARK   16  A    between atoms: C_20  and  C_21
REMARK   17  A    between atoms: C_21  and  O_22
REMARK                            x       y       z     vdW  Elec       q    Type
REMARK                         _______ _______ _______ _____ _____    ______ ____
ROOT
ATOM      1  C   UNL     1       7.960  -2.216  23.207  0.00  0.00    +0.000 C 
ATOM      2  C   UNL     1       7.521  -3.268  22.498  0.00  0.00    -0.021 C 
ENDROOT
BRANCH   2   3
ATOM      3  C   UNL     1       6.088  -3.485  22.119  0.00  0.00    +0.101 C 
BRANCH   3   4
ATOM      4  C   UNL     1       5.841  -4.958  21.826  0.00  0.00    +0.137 C 
ATOM      5  O   UNL     1       5.924  -5.429  20.690  0.00  0.00    -0.297 OA
BRANCH   4   6
ATOM      6  C   UNL     1       5.392  -5.811  22.999  0.00  0.00    +0.074 C 
BRANCH   6   7
ATOM      7  C   UNL     1       4.904  -4.935  24.148  0.00  0.00    +0.008 C 
BRANCH   7   8
ATOM      8  C   UNL     1       5.511  -5.359  25.482  0.00  0.00    +0.011 C 
BRANCH   8   9
ATOM      9  C   UNL     1       7.033  -5.451  25.379  0.00  0.00    +0.120 C 
BRANCH   9  10
ATOM     10  C   UNL     1       7.719  -4.891  26.600  0.00  0.00    +0.305 C 
ATOM     11  O   UNL     1       8.085  -3.734  26.738  0.00  0.00    -0.251 OA
BRANCH  10  12
ATOM     12  O   UNL     1       7.904  -5.826  27.559  0.00  0.00    -0.481 OA
ATOM     13  H   UNL     1       8.173  -5.457  28.422  0.00  0.00    +0.295 HD
ENDBRANCH  10  12
ENDBRANCH   9  10
ENDBRANCH   8   9
ENDBRANCH   7   8
ENDBRANCH   6   7
ENDBRANCH   4   6
ENDBRANCH   3   4
ENDBRANCH   2   3
BRANCH   1  14
ATOM     14  C   UNL     1       9.394  -1.954  23.594  0.00  0.00    +0.141 C 
BRANCH  14  15
ATOM     15  O   UNL     1      10.013  -3.176  24.000  0.00  0.00    -0.387 OA
ATOM     16  H   UNL     1      10.964  -3.080  23.815  0.00  0.00    +0.210 HD
ENDBRANCH  14  15
BRANCH  14  17
ATOM     17  C   UNL     1      10.238  -1.340  22.460  0.00  0.00    +0.062 C 
BRANCH  17  18
ATOM     18  C   UNL     1       9.443  -0.525  21.471  0.00  0.00    -0.028 C 
ATOM     19  C   UNL     1       9.350   0.814  21.456  0.00  0.00    -0.031 C 
BRANCH  19  20
ATOM     20  C   UNL     1      10.040   1.710  22.439  0.00  0.00    +0.027 C 
BRANCH  20  21
ATOM     21  C   UNL     1       9.081   2.331  23.450  0.00  0.00    +0.004 C 
BRANCH  21  22
ATOM     22  C   UNL     1       9.167   1.576  24.778  0.00  0.00    +0.000 C 
BRANCH  22  23
ATOM     23  C   UNL     1       7.814   1.009  25.190  0.00  0.00    -0.003 C 
ATOM     24  C   UNL     1       6.765   1.267  24.123  0.00  0.00    +0.004 C 
ENDBRANCH  22  23
ENDBRANCH  21  22
ENDBRANCH  20  21
ENDBRANCH  19  20
ENDBRANCH  17  18
ENDBRANCH  14  17
ENDBRANCH   1  14
TORSDOF 16
ENDMDL
MODEL 4
REMARK VINA RESULT:      -4.9      1.871      2.948
REMARK  Name = 
REMARK  17 active torsions:
REMARK  status: ('A' for Active; 'I' for Inactive)
REMARK    1  A    between atoms: C_2  and  O_3
REMARK    2  A    between atoms: C_2  and  C_4
REMARK    3  A    between atoms: C_2  and  C_12
REMARK    4  A    between atoms: C_4  and  C_5
REMARK    5  A    between atoms: C_6  and  C_7
REMARK    6  A    between atoms: C_7  and  C_8
REMARK    7  A    between atoms: C_8  and  C_9
REMARK    8  A    between atoms: C_9  and  C_10
REMARK    9  A    between atoms: C_10  and  C_11
REMARK   10  A    between atoms: C_13  and  C_14
REMARK   11  A    between atoms: C_14  and  C_15
REMARK   12  A    between atoms: C_15  and  C_17
REMARK   13  A    between atoms: C_17  and  C_18
REMARK   14  A    between atoms: C_18  and  C_19
REMARK   15  A    between atoms: C_19  and  C_20
REMARK   16  A    between atoms: C_20  and  C_21
REMARK   17  A    between atoms: C_21  and  O_22
REMARK                            x       y       z     vdW  Elec       q    Type
REMARK                         _______ _______ _______ _____ _____    ______ ____
ROOT
ATOM      1  C   UNL     1       7.364  -1.151  24.967  0.00  0.00    +0.000 C 
ATOM      2  C   UNL     1       6.444  -1.401  24.021  0.00  0.00    -0.021 C 
ENDROOT
BRANCH   2   3
ATOM      3  C   UNL     1       5.382  -2.452  24.141  0.00  0.00    +0.101 C 
BRANCH   3   4
ATOM      4  C   UNL     1       5.453  -3.404  22.955  0.00  0.00    +0.137 C 
ATOM      5  O   UNL     1       4.502  -4.112  22.618  0.00  0.00    -0.297 OA
BRANCH   4   6
ATOM      6  C   UNL     1       6.796  -3.510  22.257  0.00  0.00    +0.074 C 
BRANCH   6   7
ATOM      7  C   UNL     1       7.390  -4.903  22.434  0.00  0.00    +0.008 C 
BRANCH   7   8
ATOM      8  C   UNL     1       7.664  -5.222  23.901  0.00  0.00    +0.011 C 
BRANCH   8   9
ATOM      9  C   UNL     1       8.809  -4.364  24.435  0.00  0.00    +0.120 C 
BRANCH   9  10
ATOM     10  C   UNL     1       9.245  -4.795  25.814  0.00  0.00    +0.305 C 
ATOM     11  O   UNL     1       8.701  -4.476  26.860  0.00  0.00    -0.251 OA
BRANCH  10  12
ATOM     12  O   UNL     1      10.337  -5.591  25.782  0.00  0.00    -0.481 OA
ATOM     13  H   UNL     1      10.148  -6.511  25.519  0.00  0.00    +0.295 HD
ENDBRANCH  10  12
ENDBRANCH   9  10
ENDBRANCH   8   9
ENDBRANCH   7   8
ENDBRANCH   6   7
ENDBRANCH   4   6
ENDBRANCH   3   4
ENDBRANCH   2   3
BRANCH   1  14
ATOM     14  C   UNL     1       8.436  -0.093  24.891  0.00  0.00    +0.141 C 
BRANCH  14  15
ATOM     15  O   UNL     1       8.655   0.463  26.189  0.00  0.00    -0.387 OA
ATOM     16  H   UNL     1       9.620   0.509  26.311  0.00  0.00    +0.210 HD
ENDBRANCH  14  15
BRANCH  14  17
ATOM     17  C   UNL     1       9.784  -0.616  24.357  0.00  0.00    +0.062 C 
BRANCH  17  18
ATOM     18  C   UNL     1       9.722  -1.158  22.951  0.00  0.00    -0.028 C 
ATOM     19  C   UNL     1       9.676  -0.421  21.829  0.00  0.00    -0.031 C 
BRANCH  19  20
ATOM     20  C   UNL     1       9.682   1.077  21.814  0.00  0.00    +0.027 C 
BRANCH  20  21
ATOM     21  C   UNL     1       8.305   1.673  21.539  0.00  0.00    +0.004 C 
BRANCH  21  22
ATOM     22  C   UNL     1       8.115   2.945  22.368  0.00  0.00    +0.000 C 
BRANCH  22  23
ATOM     23  C   UNL     1       9.269   3.160  23.340  0.00  0.00    -0.003 C 
ATOM     24  C   UNL     1       8.764   3.621  24.695  0.00  0.00    +0.004 C 
ENDBRANCH  22  23
ENDBRANCH  21  22
ENDBRANCH  20  21
ENDBRANCH  19  20
ENDBRANCH  17  18
ENDBRANCH  14  17
ENDBRANCH   1  14
TORSDOF 16
ENDMDL
MODEL 5
REMARK VINA RESULT:      -4.9      1.996      6.513
REMARK  Name = 
REMARK  17 active torsions:
REMARK  status: ('A' for Active; 'I' for Inactive)
REMARK    1  A    between atoms: C_2  and  O_3
REMARK    2  A    between atoms: C_2  and  C_4
REMARK    3  A    between atoms: C_2  and  C_12
REMARK    4  A    between atoms: C_4  and  C_5
REMARK    5  A    between atoms: C_6  and  C_7
REMARK    6  A    between atoms: C_7  and  C_8
REMARK    7  A    between atoms: C_8  and  C_9
REMARK    8  A    between atoms: C_9  and  C_10
REMARK    9  A    between atoms: C_10  and  C_11
REMARK   10  A    between atoms: C_13  and  C_14
REMARK   11  A    between atoms: C_14  and  C_15
REMARK   12  A    between atoms: C_15  and  C_17
REMARK   13  A    between atoms: C_17  and  C_18
REMARK   14  A    between atoms: C_18  and  C_19
REMARK   15  A    between atoms: C_19  and  C_20
REMARK   16  A    between atoms: C_20  and  C_21
REMARK   17  A    between atoms: C_21  and  O_22
REMARK                            x       y       z     vdW  Elec       q    Type
REMARK                         _______ _______ _______ _____ _____    ______ ____
ROOT
ATOM      1  C   UNL     1       9.104  -3.607  24.644  0.00  0.00    +0.000 C 
ATOM      2  C   UNL     1       8.547  -3.041  23.561  0.00  0.00    -0.021 C 
ENDROOT
BRANCH   2   3
ATOM      3  C   UNL     1       8.643  -1.581  23.235  0.00  0.00    +0.101 C 
BRANCH   3   4
ATOM      4  C   UNL     1      10.100  -1.180  23.054  0.00  0.00    +0.137 C 
ATOM      5  O   UNL     1      10.830  -1.706  22.212  0.00  0.00    -0.297 OA
BRANCH   4   6
ATOM      6  C   UNL     1      10.642  -0.156  24.035  0.00  0.00    +0.074 C 
BRANCH   6   7
ATOM      7  C   UNL     1       9.507   0.643  24.665  0.00  0.00    +0.008 C 
BRANCH   7   8
ATOM      8  C   UNL     1       9.595   2.126  24.319  0.00  0.00    +0.011 C 
BRANCH   8   9
ATOM      9  C   UNL     1       9.940   2.316  22.842  0.00  0.00    +0.120 C 
BRANCH   9  10
ATOM     10  C   UNL     1       8.713   2.283  21.965  0.00  0.00    +0.305 C 
ATOM     11  O   UNL     1       8.390   1.359  21.234  0.00  0.00    -0.251 OA
BRANCH  10  12
ATOM     12  O   UNL     1       7.981   3.416  22.061  0.00  0.00    -0.481 OA
ATOM     13  H   UNL     1       7.899   3.756  22.972  0.00  0.00    +0.295 HD
ENDBRANCH  10  12
ENDBRANCH   9  10
ENDBRANCH   8   9
ENDBRANCH   7   8
ENDBRANCH   6   7
ENDBRANCH   4   6
ENDBRANCH   3   4
ENDBRANCH   2   3
BRANCH   1  14
ATOM     14  C   UNL     1       9.044  -5.072  24.998  0.00  0.00    +0.141 C 
BRANCH  14  15
ATOM     15  O   UNL     1      10.332  -5.516  25.427  0.00  0.00    -0.387 OA
ATOM     16  H   UNL     1      10.249  -6.469  25.611  0.00  0.00    +0.210 HD
ENDBRANCH  14  15
BRANCH  14  17
ATOM     17  C   UNL     1       8.027  -5.399  26.108  0.00  0.00    +0.062 C 
BRANCH  17  18
ATOM     18  C   UNL     1       7.407  -4.185  26.755  0.00  0.00    -0.028 C 
ATOM     19  C   UNL     1       6.183  -3.700  26.496  0.00  0.00    -0.031 C 
BRANCH  19  20
ATOM     20  C   UNL     1       5.235  -4.309  25.509  0.00  0.00    +0.027 C 
BRANCH  20  21
ATOM     21  C   UNL     1       4.928  -3.387  24.333  0.00  0.00    +0.004 C 
BRANCH  21  22
ATOM     22  C   UNL     1       4.997  -4.175  23.023  0.00  0.00    +0.000 C 
BRANCH  22  23
ATOM     23  C   UNL     1       5.680  -5.523  23.214  0.00  0.00    -0.003 C 
ATOM     24  C   UNL     1       6.347  -5.985  21.932  0.00  0.00    +0.004 C 
ENDBRANCH  22  23
ENDBRANCH  21  22
ENDBRANCH  20  21
ENDBRANCH  19  20
ENDBRANCH  17  18
ENDBRANCH  14  17
ENDBRANCH   1  14
TORSDOF 16
ENDMDL
MODEL 6
REMARK VINA RESULT:      -4.8      1.744      3.096
REMARK  Name = 
REMARK  17 active torsions:
REMARK  status: ('A' for Active; 'I' for Inactive)
REMARK    1  A    between atoms: C_2  and  O_3
REMARK    2  A    between atoms: C_2  and  C_4
REMARK    3  A    between atoms: C_2  and  C_12
REMARK    4  A    between atoms: C_4  and  C_5
REMARK    5  A    between atoms: C_6  and  C_7
REMARK    6  A    between atoms: C_7  and  C_8
REMARK    7  A    between atoms: C_8  and  C_9
REMARK    8  A    between atoms: C_9  and  C_10
REMARK    9  A    between atoms: C_10  and  C_11
REMARK   10  A    between atoms: C_13  and  C_14
REMARK   11  A    between atoms: C_14  and  C_15
REMARK   12  A    between atoms: C_15  and  C_17
REMARK   13  A    between atoms: C_17  and  C_18
REMARK   14  A    between atoms: C_18  and  C_19
REMARK   15  A    between atoms: C_19  and  C_20
REMARK   16  A    between atoms: C_20  and  C_21
REMARK   17  A    between atoms: C_21  and  O_22
REMARK                            x       y       z     vdW  Elec       q    Type
REMARK                         _______ _______ _______ _____ _____    ______ ____
ROOT
ATOM      1  C   UNL     1       7.441  -1.198  24.323  0.00  0.00    +0.000 C 
ATOM      2  C   UNL     1       7.905  -2.216  23.580  0.00  0.00    -0.021 C 
ENDROOT
BRANCH   2   3
ATOM      3  C   UNL     1       7.350  -2.599  22.242  0.00  0.00    +0.101 C 
BRANCH   3   4
ATOM      4  C   UNL     1       6.440  -3.812  22.381  0.00  0.00    +0.137 C 
ATOM      5  O   UNL     1       5.358  -3.896  21.797  0.00  0.00    -0.297 OA
BRANCH   4   6
ATOM      6  C   UNL     1       6.892  -4.884  23.355  0.00  0.00    +0.074 C 
BRANCH   6   7
ATOM      7  C   UNL     1       5.692  -5.574  23.995  0.00  0.00    +0.008 C 
BRANCH   7   8
ATOM      8  C   UNL     1       5.882  -5.769  25.496  0.00  0.00    +0.011 C 
BRANCH   8   9
ATOM      9  C   UNL     1       6.678  -4.611  26.095  0.00  0.00    +0.120 C 
BRANCH   9  10
ATOM     10  C   UNL     1       7.894  -5.088  26.849  0.00  0.00    +0.305 C 
ATOM     11  O   UNL     1       9.032  -4.675  26.691  0.00  0.00    -0.251 OA
BRANCH  10  12
ATOM     12  O   UNL     1       7.596  -6.056  27.745  0.00  0.00    -0.481 OA
ATOM     13  H   UNL     1       7.891  -6.947  27.476  0.00  0.00    +0.295 HD
ENDBRANCH  10  12
ENDBRANCH   9  10
ENDBRANCH   8   9
ENDBRANCH   7   8
ENDBRANCH   6   7
ENDBRANCH   4   6
ENDBRANCH   3   4
ENDBRANCH   2   3
BRANCH   1  14
ATOM     14  C   UNL     1       7.983  -0.772  25.664  0.00  0.00    +0.141 C 
BRANCH  14  15
ATOM     15  O   UNL     1       8.755  -1.833  26.230  0.00  0.00    -0.387 OA
ATOM     16  H   UNL     1       8.256  -2.157  27.001  0.00  0.00    +0.210 HD
ENDBRANCH  14  15
BRANCH  14  17
ATOM     17  C   UNL     1       8.867   0.488  25.603  0.00  0.00    +0.062 C 
BRANCH  17  18
ATOM     18  C   UNL     1      10.269   0.234  25.110  0.00  0.00    -0.028 C 
ATOM     19  C   UNL     1      10.864   0.865  24.084  0.00  0.00    -0.031 C 
BRANCH  19  20
ATOM     20  C   UNL     1      10.207   1.935  23.268  0.00  0.00    +0.027 C 
BRANCH  20  21
ATOM     21  C   UNL     1       9.889   1.485  21.845  0.00  0.00    +0.004 C 
BRANCH  21  22
ATOM     22  C   UNL     1       8.374   1.366  21.664  0.00  0.00    +0.000 C 
BRANCH  22  23
ATOM     23  C   UNL     1       7.619   2.193  22.697  0.00  0.00    -0.003 C 
ATOM     24  C   UNL     1       6.974   3.410  22.059  0.00  0.00    +0.004 C 
ENDBRANCH  22  23
ENDBRANCH  21  22
ENDBRANCH  20  21
ENDBRANCH  19  20
ENDBRANCH  17  18
ENDBRANCH  14  17
ENDBRANCH   1  14
TORSDOF 16
ENDMDL
MODEL 7
REMARK VINA RESULT:      -4.8      2.121      6.488
REMARK  Name = 
REMARK  17 active torsions:
REMARK  status: ('A' for Active; 'I' for Inactive)
REMARK    1  A    between atoms: C_2  and  O_3
REMARK    2  A    between atoms: C_2  and  C_4
REMARK    3  A    between atoms: C_2  and  C_12
REMARK    4  A    between atoms: C_4  and  C_5
REMARK    5  A    between atoms: C_6  and  C_7
REMARK    6  A    between atoms: C_7  and  C_8
REMARK    7  A    between atoms: C_8  and  C_9
REMARK    8  A    between atoms: C_9  and  C_10
REMARK    9  A    between atoms: C_10  and  C_11
REMARK   10  A    between atoms: C_13  and  C_14
REMARK   11  A    between atoms: C_14  and  C_15
REMARK   12  A    between atoms: C_15  and  C_17
REMARK   13  A    between atoms: C_17  and  C_18
REMARK   14  A    between atoms: C_18  and  C_19
REMARK   15  A    between atoms: C_19  and  C_20
REMARK   16  A    between atoms: C_20  and  C_21
REMARK   17  A    between atoms: C_21  and  O_22
REMARK                            x       y       z     vdW  Elec       q    Type
REMARK                         _______ _______ _______ _____ _____    ______ ____
ROOT
ATOM      1  C   UNL     1       9.801  -3.624  24.529  0.00  0.00    +0.000 C 
ATOM      2  C   UNL     1       9.359  -2.622  23.751  0.00  0.00    -0.021 C 
ENDROOT
BRANCH   2   3
ATOM      3  C   UNL     1      10.171  -1.413  23.399  0.00  0.00    +0.101 C 
BRANCH   3   4
ATOM      4  C   UNL     1       9.679  -0.205  24.184  0.00  0.00    +0.137 C 
ATOM      5  O   UNL     1      10.347   0.823  24.302  0.00  0.00    -0.297 OA
BRANCH   4   6
ATOM      6  C   UNL     1       8.350  -0.365  24.901  0.00  0.00    +0.074 C 
BRANCH   6   7
ATOM      7  C   UNL     1       7.309   0.591  24.329  0.00  0.00    +0.008 C 
BRANCH   7   8
ATOM      8  C   UNL     1       7.154   0.426  22.820  0.00  0.00    +0.011 C 
BRANCH   8   9
ATOM      9  C   UNL     1       6.990   1.786  22.142  0.00  0.00    +0.120 C 
BRANCH   9  10
ATOM     10  C   UNL     1       8.239   2.626  22.248  0.00  0.00    +0.305 C 
ATOM     11  O   UNL     1       8.343   3.663  22.885  0.00  0.00    -0.251 OA
BRANCH  10  12
ATOM     12  O   UNL     1       9.269   2.107  21.541  0.00  0.00    -0.481 OA
ATOM     13  H   UNL     1       9.303   1.132  21.552  0.00  0.00    +0.295 HD
ENDBRANCH  10  12
ENDBRANCH   9  10
ENDBRANCH   8   9
ENDBRANCH   7   8
ENDBRANCH   6   7
ENDBRANCH   4   6
ENDBRANCH   3   4
ENDBRANCH   2   3
BRANCH   1  14
ATOM     14  C   UNL     1       9.022  -4.863  24.893  0.00  0.00    +0.141 C 
BRANCH  14  15
ATOM     15  O   UNL     1       9.925  -5.911  25.252  0.00  0.00    -0.387 OA
ATOM     16  H   UNL     1       9.460  -6.748  25.076  0.00  0.00    +0.210 HD
ENDBRANCH  14  15
BRANCH  14  17
ATOM     17  C   UNL     1       8.037  -4.654  26.059  0.00  0.00    +0.062 C 
BRANCH  17  18
ATOM     18  C   UNL     1       6.688  -5.295  25.850  0.00  0.00    -0.028 C 
ATOM     19  C   UNL     1       5.670  -4.766  25.152  0.00  0.00    -0.031 C 
BRANCH  19  20
ATOM     20  C   UNL     1       5.732  -3.436  24.464  0.00  0.00    +0.027 C 
BRANCH  20  21
ATOM     21  C   UNL     1       5.176  -3.475  23.044  0.00  0.00    +0.004 C 
BRANCH  21  22
ATOM     22  C   UNL     1       6.323  -3.396  22.035  0.00  0.00    +0.000 C 
BRANCH  22  23
ATOM     23  C   UNL     1       6.991  -4.751  21.836  0.00  0.00    -0.003 C 
ATOM     24  C   UNL     1       5.965  -5.824  21.517  0.00  0.00    +0.004 C 
ENDBRANCH  22  23
ENDBRANCH  21  22
ENDBRANCH  20  21
ENDBRANCH  19  20
ENDBRANCH  17  18
ENDBRANCH  14  17
ENDBRANCH   1  14
TORSDOF 16
ENDMDL
MODEL 8
REMARK VINA RESULT:      -4.8      1.837      6.178
REMARK  Name = 
REMARK  17 active torsions:
REMARK  status: ('A' for Active; 'I' for Inactive)
REMARK    1  A    between atoms: C_2  and  O_3
REMARK    2  A    between atoms: C_2  and  C_4
REMARK    3  A    between atoms: C_2  and  C_12
REMARK    4  A    between atoms: C_4  and  C_5
REMARK    5  A    between atoms: C_6  and  C_7
REMARK    6  A    between atoms: C_7  and  C_8
REMARK    7  A    between atoms: C_8  and  C_9
REMARK    8  A    between atoms: C_9  and  C_10
REMARK    9  A    between atoms: C_10  and  C_11
REMARK   10  A    between atoms: C_13  and  C_14
REMARK   11  A    between atoms: C_14  and  C_15
REMARK   12  A    between atoms: C_15  and  C_17
REMARK   13  A    between atoms: C_17  and  C_18
REMARK   14  A    between atoms: C_18  and  C_19
REMARK   15  A    between atoms: C_19  and  C_20
REMARK   16  A    between atoms: C_20  and  C_21
REMARK   17  A    between atoms: C_21  and  O_22
REMARK                            x       y       z     vdW  Elec       q    Type
REMARK                         _______ _______ _______ _____ _____    ______ ____
ROOT
ATOM      1  C   UNL     1       7.058  -3.964  22.601  0.00  0.00    +0.000 C 
ATOM      2  C   UNL     1       7.113  -2.631  22.450  0.00  0.00    -0.021 C 
ENDROOT
BRANCH   2   3
ATOM      3  C   UNL     1       7.956  -1.725  23.296  0.00  0.00    +0.101 C 
BRANCH   3   4
ATOM      4  C   UNL     1       9.375  -1.667  22.748  0.00  0.00    +0.137 C 
ATOM      5  O   UNL     1      10.314  -2.259  23.283  0.00  0.00    -0.297 OA
BRANCH   4   6
ATOM      6  C   UNL     1       9.597  -0.761  21.550  0.00  0.00    +0.074 C 
BRANCH   6   7
ATOM      7  C   UNL     1       8.982   0.614  21.791  0.00  0.00    +0.008 C 
BRANCH   7   8
ATOM      8  C   UNL     1      10.049   1.692  21.958  0.00  0.00    +0.011 C 
BRANCH   8   9
ATOM      9  C   UNL     1       9.938   2.354  23.330  0.00  0.00    +0.120 C 
BRANCH   9  10
ATOM     10  C   UNL     1      10.235   1.388  24.451  0.00  0.00    +0.305 C 
ATOM     11  O   UNL     1      11.270   0.753  24.584  0.00  0.00    -0.251 OA
BRANCH  10  12
ATOM     12  O   UNL     1       9.207   1.282  25.323  0.00  0.00    -0.481 OA
ATOM     13  H   UNL     1       8.341   1.527  24.945  0.00  0.00    +0.295 HD
ENDBRANCH  10  12
ENDBRANCH   9  10
ENDBRANCH   8   9
ENDBRANCH   7   8
ENDBRANCH   6   7
ENDBRANCH   4   6
ENDBRANCH   3   4
ENDBRANCH   2   3
BRANCH   1  14
ATOM     14  C   UNL     1       6.237  -4.910  21.761  0.00  0.00    +0.141 C 
BRANCH  14  15
ATOM     15  O   UNL     1       7.089  -5.894  21.173  0.00  0.00    -0.387 OA
ATOM     16  H   UNL     1       6.808  -5.984  20.245  0.00  0.00    +0.210 HD
ENDBRANCH  14  15
BRANCH  14  17
ATOM     17  C   UNL     1       5.132  -5.638  22.550  0.00  0.00    +0.062 C 
BRANCH  17  18
ATOM     18  C   UNL     1       4.182  -4.717  23.275  0.00  0.00    -0.028 C 
ATOM     19  C   UNL     1       4.057  -4.612  24.607  0.00  0.00    -0.031 C 
BRANCH  19  20
ATOM     20  C   UNL     1       4.862  -5.411  25.587  0.00  0.00    +0.027 C 
BRANCH  20  21
ATOM     21  C   UNL     1       5.975  -4.600  26.241  0.00  0.00    +0.004 C 
BRANCH  21  22
ATOM     22  C   UNL     1       7.311  -5.329  26.083  0.00  0.00    +0.000 C 
BRANCH  22  23
ATOM     23  C   UNL     1       8.475  -4.351  25.979  0.00  0.00    -0.003 C 
ATOM     24  C   UNL     1       9.709  -5.028  25.412  0.00  0.00    +0.004 C 
ENDBRANCH  22  23
ENDBRANCH  21  22
ENDBRANCH  20  21
ENDBRANCH  19  20
ENDBRANCH  17  18
ENDBRANCH  14  17
ENDBRANCH   1  14
TORSDOF 16
ENDMDL
MODEL 9
REMARK VINA RESULT:      -4.8      2.349      5.133
REMARK  Name = 
REMARK  17 active torsions:
REMARK  status: ('A' for Active; 'I' for Inactive)
REMARK    1  A    between atoms: C_2  and  O_3
REMARK    2  A    between atoms: C_2  and  C_4
REMARK    3  A    between atoms: C_2  and  C_12
REMARK    4  A    between atoms: C_4  and  C_5
REMARK    5  A    between atoms: C_6  and  C_7
REMARK    6  A    between atoms: C_7  and  C_8
REMARK    7  A    between atoms: C_8  and  C_9
REMARK    8  A    between atoms: C_9  and  C_10
REMARK    9  A    between atoms: C_10  and  C_11
REMARK   10  A    between atoms: C_13  and  C_14
REMARK   11  A    between atoms: C_14  and  C_15
REMARK   12  A    between atoms: C_15  and  C_17
REMARK   13  A    between atoms: C_17  and  C_18
REMARK   14  A    between atoms: C_18  and  C_19
REMARK   15  A    between atoms: C_19  and  C_20
REMARK   16  A    between atoms: C_20  and  C_21
REMARK   17  A    between atoms: C_21  and  O_22
REMARK                            x       y       z     vdW  Elec       q    Type
REMARK                         _______ _______ _______ _____ _____    ______ ____
ROOT
ATOM      1  C   UNL     1       7.003  -5.732  25.593  0.00  0.00    +0.000 C 
ATOM      2  C   UNL     1       5.770  -5.487  25.122  0.00  0.00    -0.021 C 
ENDROOT
BRANCH   2   3
ATOM      3  C   UNL     1       5.158  -6.207  23.959  0.00  0.00    +0.101 C 
BRANCH   3   4
ATOM      4  C   UNL     1       4.654  -5.206  22.929  0.00  0.00    +0.137 C 
ATOM      5  O   UNL     1       3.456  -4.954  22.783  0.00  0.00    -0.297 OA
BRANCH   4   6
ATOM      6  C   UNL     1       5.702  -4.595  22.017  0.00  0.00    +0.074 C 
BRANCH   6   7
ATOM      7  C   UNL     1       5.571  -3.075  21.984  0.00  0.00    +0.008 C 
BRANCH   7   8
ATOM      8  C   UNL     1       6.567  -2.399  22.921  0.00  0.00    +0.011 C 
BRANCH   8   9
ATOM      9  C   UNL     1       5.858  -1.850  24.158  0.00  0.00    +0.120 C 
BRANCH   9  10
ATOM     10  C   UNL     1       6.084  -0.369  24.330  0.00  0.00    +0.305 C 
ATOM     11  O   UNL     1       5.981   0.246  25.381  0.00  0.00    -0.251 OA
BRANCH  10  12
ATOM     12  O   UNL     1       6.416   0.239  23.169  0.00  0.00    -0.481 OA
ATOM     13  H   UNL     1       6.027   1.128  23.063  0.00  0.00    +0.295 HD
ENDBRANCH  10  12
ENDBRANCH   9  10
ENDBRANCH   8   9
ENDBRANCH   7   8
ENDBRANCH   6   7
ENDBRANCH   4   6
ENDBRANCH   3   4
ENDBRANCH   2   3
BRANCH   1  14
ATOM     14  C   UNL     1       7.647  -5.041  26.769  0.00  0.00    +0.141 C 
BRANCH  14  15
ATOM     15  O   UNL     1       7.712  -5.940  27.878  0.00  0.00    -0.387 OA
ATOM     16  H   UNL     1       7.566  -5.403  28.678  0.00  0.00    +0.210 HD
ENDBRANCH  14  15
BRANCH  14  17
ATOM     17  C   UNL     1       9.070  -4.527  26.481  0.00  0.00    +0.062 C 
BRANCH  17  18
ATOM     18  C   UNL     1       9.380  -4.359  25.014  0.00  0.00    -0.028 C 
ATOM     19  C   UNL     1       9.554  -3.188  24.381  0.00  0.00    -0.031 C 
BRANCH  19  20
ATOM     20  C   UNL     1       9.465  -1.853  25.055  0.00  0.00    +0.027 C 
BRANCH  20  21
ATOM     21  C   UNL     1       9.818  -0.695  24.127  0.00  0.00    +0.004 C 
BRANCH  21  22
ATOM     22  C   UNL     1      10.212  -1.234  22.751  0.00  0.00    +0.000 C 
BRANCH  22  23
ATOM     23  C   UNL     1       9.559  -0.436  21.628  0.00  0.00    -0.003 C 
ATOM     24  C   UNL     1       9.707   1.056  21.859  0.00  0.00    +0.004 C 
ENDBRANCH  22  23
ENDBRANCH  21  22
ENDBRANCH  20  21
ENDBRANCH  19  20
ENDBRANCH  17  18
ENDBRANCH  14  17
ENDBRANCH   1  14
TORSDOF 16
ENDMDL
