MODEL 1
REMARK VINA RESULT:      -4.2      0.000      0.000
REMARK  Name = 
REMARK  1 active torsions:
REMARK  status: ('A' for Active; 'I' for Inactive)
REMARK    1  A    between atoms: C_1  and  C_2
REMARK                            x       y       z     vdW  Elec       q    Type
REMARK                         _______ _______ _______ _____ _____    ______ ____
ROOT
ATOM      1  C   UNL     1       6.690  -5.087  22.984  0.00  0.00    +0.068 C 
ATOM      2  C   UNL     1       7.499  -5.031  24.239  0.00  0.00    +0.067 A 
ATOM      3  N   UNL     1       8.798  -4.646  24.143  0.00  0.00    -0.238 NA
ATOM      4  C   UNL     1       9.545  -4.589  25.267  0.00  0.00    +0.223 A 
ATOM      5  N   UNL     1       9.173  -4.870  26.521  0.00  0.00    -0.215 NA
ATOM      6  C   UNL     1       7.887  -5.249  26.605  0.00  0.00    +0.181 A 
ATOM      7  N   UNL     1       7.236  -5.596  27.759  0.00  0.00    -0.216 NA
ATOM      8  C   UNL     1       6.012  -5.893  27.384  0.00  0.00    +0.199 A 
ATOM      9  N   UNL     1       5.848  -5.753  26.034  0.00  0.00    -0.342 N 
ATOM     10  H   UNL     1       4.995  -5.925  25.521  0.00  0.00    +0.167 HD
ATOM     11  C   UNL     1       7.043  -5.338  25.510  0.00  0.00    +0.106 A 
ENDROOT
TORSDOF 0
ENDMDL
MODEL 2
REMARK VINA RESULT:      -4.2      1.319      3.157
REMARK  Name = 
REMARK  1 active torsions:
REMARK  status: ('A' for Active; 'I' for Inactive)
REMARK    1  A    between atoms: C_1  and  C_2
REMARK                            x       y       z     vdW  Elec       q    Type
REMARK                         _______ _______ _______ _____ _____    ______ ____
ROOT
ATOM      1  C   UNL     1       5.369  -6.098  26.168  0.00  0.00    +0.068 C 
ATOM      2  C   UNL     1       6.259  -5.386  25.202  0.00  0.00    +0.067 A 
ATOM      3  N   UNL     1       5.689  -4.832  24.100  0.00  0.00    -0.238 NA
ATOM      4  C   UNL     1       6.477  -4.184  23.215  0.00  0.00    +0.223 A 
ATOM      5  N   UNL     1       7.802  -4.001  23.268  0.00  0.00    -0.215 NA
ATOM      6  C   UNL     1       8.355  -4.553  24.360  0.00  0.00    +0.181 A 
ATOM      7  N   UNL     1       9.688  -4.523  24.676  0.00  0.00    -0.216 NA
ATOM      8  C   UNL     1       9.784  -5.175  25.813  0.00  0.00    +0.199 A 
ATOM      9  N   UNL     1       8.567  -5.625  26.243  0.00  0.00    -0.342 N 
ATOM     10  H   UNL     1       8.396  -6.149  27.089  0.00  0.00    +0.167 HD
ATOM     11  C   UNL     1       7.631  -5.236  25.323  0.00  0.00    +0.106 A 
ENDROOT
TORSDOF 0
ENDMDL
MODEL 3
REMARK VINA RESULT:      -4.2      2.256      3.231
REMARK  Name = 
REMARK  1 active torsions:
REMARK  status: ('A' for Active; 'I' for Inactive)
REMARK    1  A    between atoms: C_1  and  C_2
REMARK                            x       y       z     vdW  Elec       q    Type
REMARK                         _______ _______ _______ _____ _____    ______ ____
ROOT
ATOM      1  C   UNL     1       6.135  -3.033  22.232  0.00  0.00    +0.068 C 
ATOM      2  C   UNL     1       7.528  -2.928  22.762  0.00  0.00    +0.067 A 
ATOM      3  N   UNL     1       8.305  -1.909  22.311  0.00  0.00    -0.238 NA
ATOM      4  C   UNL     1       9.568  -1.796  22.779  0.00  0.00    +0.223 A 
ATOM      5  N   UNL     1      10.193  -2.582  23.664  0.00  0.00    -0.215 NA
ATOM      6  C   UNL     1       9.417  -3.586  24.101  0.00  0.00    +0.181 A 
ATOM      7  N   UNL     1       9.792  -4.542  25.008  0.00  0.00    -0.216 NA
ATOM      8  C   UNL     1       8.738  -5.315  25.146  0.00  0.00    +0.199 A 
ATOM      9  N   UNL     1       7.698  -4.896  24.363  0.00  0.00    -0.342 N 
ATOM     10  H   UNL     1       6.789  -5.333  24.304  0.00  0.00    +0.167 HD
ATOM     11  C   UNL     1       8.112  -3.783  23.681  0.00  0.00    +0.106 A 
ENDROOT
TORSDOF 0
ENDMDL
MODEL 4
REMARK VINA RESULT:      -4.1      4.342      5.405
REMARK  Name = 
REMARK  1 active torsions:
REMARK  status: ('A' for Active; 'I' for Inactive)
REMARK    1  A    between atoms: C_1  and  C_2
REMARK                            x       y       z     vdW  Elec       q    Type
REMARK                         _______ _______ _______ _____ _____    ______ ____
ROOT
ATOM      1  C   UNL     1      10.591   1.791  23.926  0.00  0.00    +0.068 C 
ATOM      2  C   UNL     1      10.204   0.348  23.926  0.00  0.00    +0.067 A 
ATOM      3  N   UNL     1      10.498  -0.389  22.824  0.00  0.00    -0.238 NA
ATOM      4  C   UNL     1      10.156  -1.697  22.805  0.00  0.00    +0.223 A 
ATOM      5  N   UNL     1       9.540  -2.403  23.760  0.00  0.00    -0.215 NA
ATOM      6  C   UNL     1       9.253  -1.664  24.844  0.00  0.00    +0.181 A 
ATOM      7  N   UNL     1       8.626  -2.121  25.973  0.00  0.00    -0.216 NA
ATOM      8  C   UNL     1       8.551  -1.078  26.768  0.00  0.00    +0.199 A 
ATOM      9  N   UNL     1       9.105   0.034  26.197  0.00  0.00    -0.342 N 
ATOM     10  H   UNL     1       9.162   0.950  26.621  0.00  0.00    +0.167 HD
ATOM     11  C   UNL     1       9.564  -0.319  24.957  0.00  0.00    +0.106 A 
ENDROOT
TORSDOF 0
ENDMDL
MODEL 5
REMARK VINA RESULT:      -4.1      2.645      4.441
REMARK  Name = 
REMARK  1 active torsions:
REMARK  status: ('A' for Active; 'I' for Inactive)
REMARK    1  A    between atoms: C_1  and  C_2
REMARK                            x       y       z     vdW  Elec       q    Type
REMARK                         _______ _______ _______ _____ _____    ______ ____
ROOT
ATOM      1  C   UNL     1       6.039  -3.629  21.808  0.00  0.00    +0.068 C 
ATOM      2  C   UNL     1       7.246  -3.660  22.688  0.00  0.00    +0.067 A 
ATOM      3  N   UNL     1       7.350  -4.668  23.591  0.00  0.00    -0.238 NA
ATOM      4  C   UNL     1       8.436  -4.713  24.395  0.00  0.00    +0.223 A 
ATOM      5  N   UNL     1       9.471  -3.866  24.433  0.00  0.00    -0.215 NA
ATOM      6  C   UNL     1       9.358  -2.873  23.536  0.00  0.00    +0.181 A 
ATOM      7  N   UNL     1      10.266  -1.865  23.350  0.00  0.00    -0.216 NA
ATOM      8  C   UNL     1       9.764  -1.126  22.386  0.00  0.00    +0.199 A 
ATOM      9  N   UNL     1       8.567  -1.618  21.943  0.00  0.00    -0.342 N 
ATOM     10  H   UNL     1       7.998  -1.217  21.211  0.00  0.00    +0.167 HD
ATOM     11  C   UNL     1       8.285  -2.743  22.669  0.00  0.00    +0.106 A 
ENDROOT
TORSDOF 0
ENDMDL
MODEL 6
REMARK VINA RESULT:      -4.1      2.607      3.940
REMARK  Name = 
REMARK  1 active torsions:
REMARK  status: ('A' for Active; 'I' for Inactive)
REMARK    1  A    between atoms: C_1  and  C_2
REMARK                            x       y       z     vdW  Elec       q    Type
REMARK                         _______ _______ _______ _____ _____    ______ ____
ROOT
ATOM      1  C   UNL     1       9.465  -4.915  25.543  0.00  0.00    +0.068 C 
ATOM      2  C   UNL     1       9.111  -4.003  24.414  0.00  0.00    +0.067 A 
ATOM      3  N   UNL     1       9.978  -3.004  24.106  0.00  0.00    -0.238 NA
ATOM      4  C   UNL     1       9.675  -2.169  23.088  0.00  0.00    +0.223 A 
ATOM      5  N   UNL     1       8.593  -2.184  22.301  0.00  0.00    -0.215 NA
ATOM      6  C   UNL     1       7.742  -3.175  22.615  0.00  0.00    +0.181 A 
ATOM      7  N   UNL     1       6.555  -3.431  21.980  0.00  0.00    -0.216 NA
ATOM      8  C   UNL     1       6.055  -4.475  22.602  0.00  0.00    +0.199 A 
ATOM      9  N   UNL     1       6.871  -4.902  23.612  0.00  0.00    -0.342 N 
ATOM     10  H   UNL     1       6.693  -5.686  24.225  0.00  0.00    +0.167 HD
ATOM     11  C   UNL     1       7.965  -4.080  23.639  0.00  0.00    +0.106 A 
ENDROOT
TORSDOF 0
ENDMDL
MODEL 7
REMARK VINA RESULT:      -4.1      2.055      3.806
REMARK  Name = 
REMARK  1 active torsions:
REMARK  status: ('A' for Active; 'I' for Inactive)
REMARK    1  A    between atoms: C_1  and  C_2
REMARK                            x       y       z     vdW  Elec       q    Type
REMARK                         _______ _______ _______ _____ _____    ______ ____
ROOT
ATOM      1  C   UNL     1       4.373  -5.806  25.374  0.00  0.00    +0.068 C 
ATOM      2  C   UNL     1       5.707  -5.585  24.737  0.00  0.00    +0.067 A 
ATOM      3  N   UNL     1       6.746  -5.239  25.540  0.00  0.00    -0.238 NA
ATOM      4  C   UNL     1       7.960  -5.036  24.982  0.00  0.00    +0.223 A 
ATOM      5  N   UNL     1       8.302  -5.129  23.692  0.00  0.00    -0.215 NA
ATOM      6  C   UNL     1       7.267  -5.470  22.907  0.00  0.00    +0.181 A 
ATOM      7  N   UNL     1       7.323  -5.638  21.549  0.00  0.00    -0.216 NA
ATOM      8  C   UNL     1       6.101  -5.966  21.195  0.00  0.00    +0.199 A 
ATOM      9  N   UNL     1       5.259  -6.015  22.271  0.00  0.00    -0.342 N 
ATOM     10  H   UNL     1       4.275  -6.245  22.241  0.00  0.00    +0.167 HD
ATOM     11  C   UNL     1       5.988  -5.700  23.385  0.00  0.00    +0.106 A 
ENDROOT
TORSDOF 0
ENDMDL
MODEL 8
REMARK VINA RESULT:      -4.0      3.242      5.165
REMARK  Name = 
REMARK  1 active torsions:
REMARK  status: ('A' for Active; 'I' for Inactive)
REMARK    1  A    between atoms: C_1  and  C_2
REMARK                            x       y       z     vdW  Elec       q    Type
REMARK                         _______ _______ _______ _____ _____    ______ ____
ROOT
ATOM      1  C   UNL     1       8.085  -0.627  26.798  0.00  0.00    +0.068 C 
ATOM      2  C   UNL     1       8.640  -1.669  25.882  0.00  0.00    +0.067 A 
ATOM      3  N   UNL     1       8.510  -2.971  26.247  0.00  0.00    -0.238 NA
ATOM      4  C   UNL     1       9.005  -3.928  25.432  0.00  0.00    +0.223 A 
ATOM      5  N   UNL     1       9.635  -3.772  24.262  0.00  0.00    -0.215 NA
ATOM      6  C   UNL     1       9.759  -2.481  23.911  0.00  0.00    +0.181 A 
ATOM      7  N   UNL     1      10.358  -2.024  22.768  0.00  0.00    -0.216 NA
ATOM      8  C   UNL     1      10.255  -0.716  22.828  0.00  0.00    +0.199 A 
ATOM      9  N   UNL     1       9.614  -0.311  23.966  0.00  0.00    -0.342 N 
ATOM     10  H   UNL     1       9.420   0.646  24.227  0.00  0.00    +0.167 HD
ATOM     11  C   UNL     1       9.284  -1.431  24.679  0.00  0.00    +0.106 A 
ENDROOT
TORSDOF 0
ENDMDL
MODEL 9
REMARK VINA RESULT:      -4.0      5.030      6.621
REMARK  Name = 
REMARK  1 active torsions:
REMARK  status: ('A' for Active; 'I' for Inactive)
REMARK    1  A    between atoms: C_1  and  C_2
REMARK                            x       y       z     vdW  Elec       q    Type
REMARK                         _______ _______ _______ _____ _____    ______ ____
ROOT
ATOM      1  C   UNL     1       8.691  -1.235  26.467  0.00  0.00    +0.068 C 
ATOM      2  C   UNL     1       9.247  -0.984  25.103  0.00  0.00    +0.067 A 
ATOM      3  N   UNL     1       9.516  -2.059  24.317  0.00  0.00    -0.238 NA
ATOM      4  C   UNL     1      10.019  -1.851  23.080  0.00  0.00    +0.223 A 
ATOM      5  N   UNL     1      10.304  -0.685  22.489  0.00  0.00    -0.215 NA
ATOM      6  C   UNL     1      10.035   0.370  23.275  0.00  0.00    +0.181 A 
ATOM      7  N   UNL     1      10.226   1.683  22.933  0.00  0.00    -0.216 NA
ATOM      8  C   UNL     1       9.835   2.370  23.983  0.00  0.00    +0.199 A 
ATOM      9  N   UNL     1       9.399   1.552  24.989  0.00  0.00    -0.342 N 
ATOM     10  H   UNL     1       9.052   1.855  25.888  0.00  0.00    +0.167 HD
ATOM     11  C   UNL     1       9.518   0.259  24.555  0.00  0.00    +0.106 A 
ENDROOT
TORSDOF 0
ENDMDL
