MODEL 1
REMARK VINA RESULT:      -7.1      0.000      0.000
REMARK  Name = 
REMARK  5 active torsions:
REMARK  status: ('A' for Active; 'I' for Inactive)
REMARK    1  A    between atoms: O_1  and  C_2
REMARK    2  A    between atoms: C_2  and  C_4
REMARK    3  A    between atoms: C_4  and  N_5
REMARK    4  A    between atoms: N_10  and  C_11
REMARK    5  A    between atoms: C_11  and  C_12
REMARK                            x       y       z     vdW  Elec       q    Type
REMARK                         _______ _______ _______ _____ _____    ______ ____
ROOT
ATOM      1  N   UNL     1       6.124  -5.279  24.640  0.00  0.00    -0.290 N 
ATOM      2  C   UNL     1       7.417  -5.062  24.167  0.00  0.00    +0.333 A 
ATOM      3  O   UNL     1       7.780  -5.487  23.073  0.00  0.00    -0.246 OA
ATOM      4  N   UNL     1       8.230  -4.306  24.993  0.00  0.00    -0.254 N 
ATOM      5  C   UNL     1       7.928  -3.983  26.301  0.00  0.00    +0.257 A 
ATOM      6  O   UNL     1       8.708  -3.468  27.095  0.00  0.00    -0.268 OA
ATOM      7  C   UNL     1       6.563  -4.304  26.748  0.00  0.00    +0.088 A 
ATOM      8  C   UNL     1       5.725  -4.911  25.903  0.00  0.00    +0.096 A 
ENDROOT
BRANCH   1   9
ATOM      9  C   UNL     1       5.165  -5.944  23.746  0.00  0.00    +0.246 C 
BRANCH   9  10
ATOM     10  C   UNL     1       4.306  -4.958  22.962  0.00  0.00    +0.325 C 
ATOM     11  O   UNL     1       3.083  -4.952  23.021  0.00  0.00    -0.249 OA
BRANCH  10  12
ATOM     12  O   UNL     1       4.987  -4.059  22.213  0.00  0.00    -0.479 OA
ATOM     13  H   UNL     1       5.957  -4.134  22.305  0.00  0.00    +0.295 HD
ENDBRANCH  10  12
ENDBRANCH   9  10
ENDBRANCH   1   9
BRANCH   4  14
ATOM     14  C   UNL     1       9.513  -3.870  24.468  0.00  0.00    +0.192 C 
BRANCH  14  15
ATOM     15  C   UNL     1       9.450  -2.429  24.013  0.00  0.00    +0.099 A 
ATOM     16  S   UNL     1       8.801  -2.124  22.446  0.00  0.00    -0.070 S 
ATOM     17  C   UNL     1       9.320  -0.492  22.550  0.00  0.00    +0.039 A 
ATOM     18  C   UNL     1       9.824  -0.250  23.830  0.00  0.00    +0.080 A 
ATOM     19  C   UNL     1      10.273   1.054  24.137  0.00  0.00    +0.049 A 
ATOM     20  C   UNL     1      10.261   2.037  23.140  0.00  0.00    +0.043 A 
ATOM     21  C   UNL     1       9.794   1.760  21.859  0.00  0.00    +0.021 A 
ATOM     22 CL   UNL     1      10.858   3.615  23.491  0.00  0.00    -0.083 Cl
ATOM     23  C   UNL     1       9.290   0.495  21.551  0.00  0.00    +0.018 A 
ATOM     24  N   UNL     1       9.862  -1.363  24.671  0.00  0.00    -0.242 NA
ENDBRANCH  14  15
ENDBRANCH   4  14
TORSDOF 5
ENDMDL
MODEL 2
REMARK VINA RESULT:      -6.7      2.170      2.668
REMARK  Name = 
REMARK  5 active torsions:
REMARK  status: ('A' for Active; 'I' for Inactive)
REMARK    1  A    between atoms: O_1  and  C_2
REMARK    2  A    between atoms: C_2  and  C_4
REMARK    3  A    between atoms: C_4  and  N_5
REMARK    4  A    between atoms: N_10  and  C_11
REMARK    5  A    between atoms: C_11  and  C_12
REMARK                            x       y       z     vdW  Elec       q    Type
REMARK                         _______ _______ _______ _____ _____    ______ ____
ROOT
ATOM      1  N   UNL     1       6.579  -4.915  26.110  0.00  0.00    -0.290 N 
ATOM      2  C   UNL     1       6.606  -4.532  24.770  0.00  0.00    +0.333 A 
ATOM      3  O   UNL     1       5.584  -4.509  24.088  0.00  0.00    -0.246 OA
ATOM      4  N   UNL     1       7.844  -4.144  24.291  0.00  0.00    -0.254 N 
ATOM      5  C   UNL     1       9.037  -4.342  24.959  0.00  0.00    +0.257 A 
ATOM      6  O   UNL     1      10.150  -4.165  24.476  0.00  0.00    -0.268 OA
ATOM      7  C   UNL     1       8.928  -4.811  26.350  0.00  0.00    +0.088 A 
ATOM      8  C   UNL     1       7.719  -5.055  26.865  0.00  0.00    +0.096 A 
ENDROOT
BRANCH   1   9
ATOM      9  C   UNL     1       5.271  -5.193  26.722  0.00  0.00    +0.246 C 
BRANCH   9  10
ATOM     10  C   UNL     1       4.913  -6.674  26.707  0.00  0.00    +0.325 C 
ATOM     11  O   UNL     1       4.405  -7.223  25.738  0.00  0.00    -0.249 OA
BRANCH  10  12
ATOM     12  O   UNL     1       5.227  -7.361  27.831  0.00  0.00    -0.479 OA
ATOM     13  H   UNL     1       4.789  -8.232  27.887  0.00  0.00    +0.295 HD
ENDBRANCH  10  12
ENDBRANCH   9  10
ENDBRANCH   1   9
BRANCH   4  14
ATOM     14  C   UNL     1       7.902  -3.539  22.970  0.00  0.00    +0.192 C 
BRANCH  14  15
ATOM     15  C   UNL     1       8.158  -2.051  23.068  0.00  0.00    +0.099 A 
ATOM     16  S   UNL     1       9.463  -1.413  22.142  0.00  0.00    -0.070 S 
ATOM     17  C   UNL     1       9.306   0.088  22.959  0.00  0.00    +0.039 A 
ATOM     18  C   UNL     1       8.176   0.050  23.779  0.00  0.00    +0.080 A 
ATOM     19  C   UNL     1       7.844   1.208  24.516  0.00  0.00    +0.049 A 
ATOM     20  C   UNL     1       8.686   2.326  24.454  0.00  0.00    +0.043 A 
ATOM     21  C   UNL     1       9.830   2.325  23.662  0.00  0.00    +0.021 A 
ATOM     22 CL   UNL     1       8.317   3.723  25.392  0.00  0.00    -0.083 Cl
ATOM     23  C   UNL     1      10.144   1.212  22.880  0.00  0.00    +0.018 A 
ATOM     24  N   UNL     1       7.507  -1.174  23.806  0.00  0.00    -0.242 NA
ENDBRANCH  14  15
ENDBRANCH   4  14
TORSDOF 5
ENDMDL
MODEL 3
REMARK VINA RESULT:      -6.7      1.654      2.113
REMARK  Name = 
REMARK  5 active torsions:
REMARK  status: ('A' for Active; 'I' for Inactive)
REMARK    1  A    between atoms: O_1  and  C_2
REMARK    2  A    between atoms: C_2  and  C_4
REMARK    3  A    between atoms: C_4  and  N_5
REMARK    4  A    between atoms: N_10  and  C_11
REMARK    5  A    between atoms: C_11  and  C_12
REMARK                            x       y       z     vdW  Elec       q    Type
REMARK                         _______ _______ _______ _____ _____    ______ ____
ROOT
ATOM      1  N   UNL     1       5.240  -5.270  24.499  0.00  0.00    -0.290 N 
ATOM      2  C   UNL     1       6.607  -5.261  24.225  0.00  0.00    +0.333 A 
ATOM      3  O   UNL     1       7.030  -5.225  23.072  0.00  0.00    -0.246 OA
ATOM      4  N   UNL     1       7.433  -5.252  25.334  0.00  0.00    -0.254 N 
ATOM      5  C   UNL     1       7.007  -5.490  26.626  0.00  0.00    +0.257 A 
ATOM      6  O   UNL     1       7.747  -5.658  27.590  0.00  0.00    -0.268 OA
ATOM      7  C   UNL     1       5.549  -5.552  26.826  0.00  0.00    +0.088 A 
ATOM      8  C   UNL     1       4.740  -5.421  25.771  0.00  0.00    +0.096 A 
ENDROOT
BRANCH   1   9
ATOM      9  C   UNL     1       4.309  -5.127  23.371  0.00  0.00    +0.246 C 
BRANCH   9  10
ATOM     10  C   UNL     1       3.351  -6.305  23.241  0.00  0.00    +0.325 C 
ATOM     11  O   UNL     1       2.222  -6.193  22.780  0.00  0.00    -0.249 OA
BRANCH  10  12
ATOM     12  O   UNL     1       3.841  -7.502  23.639  0.00  0.00    -0.479 OA
ATOM     13  H   UNL     1       4.562  -7.427  24.294  0.00  0.00    +0.295 HD
ENDBRANCH  10  12
ENDBRANCH   9  10
ENDBRANCH   1   9
BRANCH   4  14
ATOM     14  C   UNL     1       8.854  -5.035  25.122  0.00  0.00    +0.192 C 
BRANCH  14  15
ATOM     15  C   UNL     1       9.151  -3.565  24.914  0.00  0.00    +0.099 A 
ATOM     16  S   UNL     1       8.605  -2.471  26.128  0.00  0.00    -0.070 S 
ATOM     17  C   UNL     1       9.000  -1.147  25.110  0.00  0.00    +0.039 A 
ATOM     18  C   UNL     1       9.656  -1.622  23.972  0.00  0.00    +0.080 A 
ATOM     19  C   UNL     1      10.103  -0.683  23.016  0.00  0.00    +0.049 A 
ATOM     20  C   UNL     1       9.819   0.676  23.204  0.00  0.00    +0.043 A 
ATOM     21  C   UNL     1       9.126   1.120  24.326  0.00  0.00    +0.021 A 
ATOM     22 CL   UNL     1      10.313   1.822  22.016  0.00  0.00    -0.083 Cl
ATOM     23  C   UNL     1       8.727   0.215  25.311  0.00  0.00    +0.018 A 
ATOM     24  N   UNL     1       9.766  -3.010  23.888  0.00  0.00    -0.242 NA
ENDBRANCH  14  15
ENDBRANCH   4  14
TORSDOF 5
ENDMDL
MODEL 4
REMARK VINA RESULT:      -6.7      2.167      3.443
REMARK  Name = 
REMARK  5 active torsions:
REMARK  status: ('A' for Active; 'I' for Inactive)
REMARK    1  A    between atoms: O_1  and  C_2
REMARK    2  A    between atoms: C_2  and  C_4
REMARK    3  A    between atoms: C_4  and  N_5
REMARK    4  A    between atoms: N_10  and  C_11
REMARK    5  A    between atoms: C_11  and  C_12
REMARK                            x       y       z     vdW  Elec       q    Type
REMARK                         _______ _______ _______ _____ _____    ______ ____
ROOT
ATOM      1  N   UNL     1       5.954  -5.103  25.908  0.00  0.00    -0.290 N 
ATOM      2  C   UNL     1       7.049  -4.263  25.713  0.00  0.00    +0.333 A 
ATOM      3  O   UNL     1       7.480  -3.550  26.616  0.00  0.00    -0.246 OA
ATOM      4  N   UNL     1       7.627  -4.327  24.458  0.00  0.00    -0.254 N 
ATOM      5  C   UNL     1       7.059  -4.958  23.368  0.00  0.00    +0.257 A 
ATOM      6  O   UNL     1       7.470  -4.875  22.216  0.00  0.00    -0.268 OA
ATOM      7  C   UNL     1       5.865  -5.774  23.644  0.00  0.00    +0.088 A 
ATOM      8  C   UNL     1       5.383  -5.827  24.889  0.00  0.00    +0.096 A 
ENDROOT
BRANCH   1   9
ATOM      9  C   UNL     1       5.388  -5.196  27.262  0.00  0.00    +0.246 C 
BRANCH   9  10
ATOM     10  C   UNL     1       5.961  -6.359  28.064  0.00  0.00    +0.325 C 
ATOM     11  O   UNL     1       7.071  -6.325  28.581  0.00  0.00    -0.249 OA
BRANCH  10  12
ATOM     12  O   UNL     1       5.145  -7.430  28.202  0.00  0.00    -0.479 OA
ATOM     13  H   UNL     1       5.586  -8.204  28.602  0.00  0.00    +0.295 HD
ENDBRANCH  10  12
ENDBRANCH   9  10
ENDBRANCH   1   9
BRANCH   4  14
ATOM     14  C   UNL     1       8.889  -3.636  24.256  0.00  0.00    +0.192 C 
BRANCH  14  15
ATOM     15  C   UNL     1       8.679  -2.326  23.528  0.00  0.00    +0.099 A 
ATOM     16  S   UNL     1      10.010  -1.699  22.632  0.00  0.00    -0.070 S 
ATOM     17  C   UNL     1       9.163  -0.223  22.409  0.00  0.00    +0.039 A 
ATOM     18  C   UNL     1       7.865  -0.358  22.907  0.00  0.00    +0.080 A 
ATOM     19  C   UNL     1       6.984   0.739  22.786  0.00  0.00    +0.049 A 
ATOM     20  C   UNL     1       7.453   1.939  22.237  0.00  0.00    +0.043 A 
ATOM     21  C   UNL     1       8.764   2.063  21.787  0.00  0.00    +0.021 A 
ATOM     22 CL   UNL     1       6.401   3.299  22.136  0.00  0.00    -0.083 Cl
ATOM     23  C   UNL     1       9.634   0.973  21.843  0.00  0.00    +0.018 A 
ATOM     24  N   UNL     1       7.590  -1.583  23.516  0.00  0.00    -0.242 NA
ENDBRANCH  14  15
ENDBRANCH   4  14
TORSDOF 5
ENDMDL
MODEL 5
REMARK VINA RESULT:      -6.4      3.979      7.211
REMARK  Name = 
REMARK  5 active torsions:
REMARK  status: ('A' for Active; 'I' for Inactive)
REMARK    1  A    between atoms: O_1  and  C_2
REMARK    2  A    between atoms: C_2  and  C_4
REMARK    3  A    between atoms: C_4  and  N_5
REMARK    4  A    between atoms: N_10  and  C_11
REMARK    5  A    between atoms: C_11  and  C_12
REMARK                            x       y       z     vdW  Elec       q    Type
REMARK                         _______ _______ _______ _____ _____    ______ ____
ROOT
ATOM      1  N   UNL     1       9.070  -0.131  23.636  0.00  0.00    -0.290 N 
ATOM      2  C   UNL     1       8.756  -0.628  24.900  0.00  0.00    +0.333 A 
ATOM      3  O   UNL     1       8.286   0.096  25.776  0.00  0.00    -0.246 OA
ATOM      4  N   UNL     1       8.970  -1.983  25.073  0.00  0.00    -0.254 N 
ATOM      5  C   UNL     1       9.673  -2.780  24.192  0.00  0.00    +0.257 A 
ATOM      6  O   UNL     1      10.020  -3.936  24.413  0.00  0.00    -0.268 OA
ATOM      7  C   UNL     1      10.027  -2.163  22.903  0.00  0.00    +0.088 A 
ATOM      8  C   UNL     1       9.696  -0.889  22.676  0.00  0.00    +0.096 A 
ENDROOT
BRANCH   1   9
ATOM      9  C   UNL     1       8.724   1.267  23.339  0.00  0.00    +0.246 C 
BRANCH   9  10
ATOM     10  C   UNL     1       9.926   2.093  22.897  0.00  0.00    +0.325 C 
ATOM     11  O   UNL     1      10.781   2.491  23.679  0.00  0.00    -0.249 OA
BRANCH  10  12
ATOM     12  O   UNL     1      10.011   2.334  21.568  0.00  0.00    -0.479 OA
ATOM     13  H   UNL     1       9.387   3.017  21.257  0.00  0.00    +0.295 HD
ENDBRANCH  10  12
ENDBRANCH   9  10
ENDBRANCH   1   9
BRANCH   4  14
ATOM     14  C   UNL     1       8.472  -2.600  26.291  0.00  0.00    +0.192 C 
BRANCH  14  15
ATOM     15  C   UNL     1       7.227  -3.414  26.016  0.00  0.00    +0.099 A 
ATOM     16  S   UNL     1       7.074  -4.923  26.832  0.00  0.00    -0.070 S 
ATOM     17  C   UNL     1       5.724  -5.316  25.849  0.00  0.00    +0.039 A 
ATOM     18  C   UNL     1       5.389  -4.211  25.064  0.00  0.00    +0.080 A 
ATOM     19  C   UNL     1       4.273  -4.314  24.204  0.00  0.00    +0.049 A 
ATOM     20  C   UNL     1       3.583  -5.530  24.117  0.00  0.00    +0.043 A 
ATOM     21  C   UNL     1       3.962  -6.631  24.879  0.00  0.00    +0.021 A 
ATOM     22 CL   UNL     1       2.254  -5.680  23.031  0.00  0.00    -0.083 Cl
ATOM     23  C   UNL     1       5.025  -6.533  25.778  0.00  0.00    +0.018 A 
ATOM     24  N   UNL     1       6.240  -3.113  25.194  0.00  0.00    -0.242 NA
ENDBRANCH  14  15
ENDBRANCH   4  14
TORSDOF 5
ENDMDL
MODEL 6
REMARK VINA RESULT:      -6.3      3.925      6.942
REMARK  Name = 
REMARK  5 active torsions:
REMARK  status: ('A' for Active; 'I' for Inactive)
REMARK    1  A    between atoms: O_1  and  C_2
REMARK    2  A    between atoms: C_2  and  C_4
REMARK    3  A    between atoms: C_4  and  N_5
REMARK    4  A    between atoms: N_10  and  C_11
REMARK    5  A    between atoms: C_11  and  C_12
REMARK                            x       y       z     vdW  Elec       q    Type
REMARK                         _______ _______ _______ _____ _____    ______ ____
ROOT
ATOM      1  N   UNL     1       9.469  -0.837  24.257  0.00  0.00    -0.290 N 
ATOM      2  C   UNL     1       9.492  -2.219  24.438  0.00  0.00    +0.333 A 
ATOM      3  O   UNL     1      10.208  -2.944  23.750  0.00  0.00    -0.246 OA
ATOM      4  N   UNL     1       8.694  -2.695  25.462  0.00  0.00    -0.254 N 
ATOM      5  C   UNL     1       7.737  -1.947  26.118  0.00  0.00    +0.257 A 
ATOM      6  O   UNL     1       6.907  -2.397  26.901  0.00  0.00    -0.268 OA
ATOM      7  C   UNL     1       7.732  -0.503  25.825  0.00  0.00    +0.088 A 
ATOM      8  C   UNL     1       8.600  -0.015  24.935  0.00  0.00    +0.096 A 
ENDROOT
BRANCH   1   9
ATOM      9  C   UNL     1      10.407  -0.252  23.288  0.00  0.00    +0.246 C 
BRANCH   9  10
ATOM     10  C   UNL     1       9.800  -0.091  21.900  0.00  0.00    +0.325 C 
ATOM     11  O   UNL     1       9.381   0.980  21.479  0.00  0.00    -0.249 OA
BRANCH  10  12
ATOM     12  O   UNL     1       9.783  -1.210  21.138  0.00  0.00    -0.479 OA
ATOM     13  H   UNL     1       8.891  -1.448  20.820  0.00  0.00    +0.295 HD
ENDBRANCH  10  12
ENDBRANCH   9  10
ENDBRANCH   1   9
BRANCH   4  14
ATOM     14  C   UNL     1       8.830  -4.093  25.836  0.00  0.00    +0.192 C 
BRANCH  14  15
ATOM     15  C   UNL     1       7.618  -4.890  25.404  0.00  0.00    +0.099 A 
ATOM     16  S   UNL     1       7.158  -4.790  23.747  0.00  0.00    -0.070 S 
ATOM     17  C   UNL     1       5.695  -5.611  24.105  0.00  0.00    +0.039 A 
ATOM     18  C   UNL     1       5.720  -6.036  25.435  0.00  0.00    +0.080 A 
ATOM     19  C   UNL     1       4.617  -6.771  25.924  0.00  0.00    +0.049 A 
ATOM     20  C   UNL     1       3.515  -6.992  25.089  0.00  0.00    +0.043 A 
ATOM     21  C   UNL     1       3.496  -6.522  23.780  0.00  0.00    +0.021 A 
ATOM     22 CL   UNL     1       2.143  -7.841  25.695  0.00  0.00    -0.083 Cl
ATOM     23  C   UNL     1       4.599  -5.844  23.258  0.00  0.00    +0.018 A 
ATOM     24  N   UNL     1       6.845  -5.644  26.160  0.00  0.00    -0.242 NA
ENDBRANCH  14  15
ENDBRANCH   4  14
TORSDOF 5
ENDMDL
MODEL 7
REMARK VINA RESULT:      -6.3      3.228      5.072
REMARK  Name = 
REMARK  5 active torsions:
REMARK  status: ('A' for Active; 'I' for Inactive)
REMARK    1  A    between atoms: O_1  and  C_2
REMARK    2  A    between atoms: C_2  and  C_4
REMARK    3  A    between atoms: C_4  and  N_5
REMARK    4  A    between atoms: N_10  and  C_11
REMARK    5  A    between atoms: C_11  and  C_12
REMARK                            x       y       z     vdW  Elec       q    Type
REMARK                         _______ _______ _______ _____ _____    ______ ____
ROOT
ATOM      1  N   UNL     1       9.034  -2.121  24.076  0.00  0.00    -0.290 N 
ATOM      2  C   UNL     1       7.873  -1.386  23.842  0.00  0.00    +0.333 A 
ATOM      3  O   UNL     1       6.849  -1.579  24.494  0.00  0.00    -0.246 OA
ATOM      4  N   UNL     1       7.977  -0.410  22.868  0.00  0.00    -0.254 N 
ATOM      5  C   UNL     1       9.035  -0.296  21.987  0.00  0.00    +0.257 A 
ATOM      6  O   UNL     1       9.060   0.448  21.013  0.00  0.00    -0.268 OA
ATOM      7  C   UNL     1      10.200  -1.154  22.261  0.00  0.00    +0.088 A 
ATOM      8  C   UNL     1      10.157  -2.003  23.292  0.00  0.00    +0.096 A 
ENDROOT
BRANCH   1   9
ATOM      9  C   UNL     1       9.037  -3.068  25.200  0.00  0.00    +0.246 C 
BRANCH   9  10
ATOM     10  C   UNL     1       9.112  -4.522  24.749  0.00  0.00    +0.325 C 
ATOM     11  O   UNL     1       8.216  -5.068  24.118  0.00  0.00    -0.249 OA
BRANCH  10  12
ATOM     12  O   UNL     1      10.258  -5.171  25.062  0.00  0.00    -0.479 OA
ATOM     13  H   UNL     1      10.145  -6.137  25.151  0.00  0.00    +0.295 HD
ENDBRANCH  10  12
ENDBRANCH   9  10
ENDBRANCH   1   9
BRANCH   4  14
ATOM     14  C   UNL     1       6.873   0.524  22.721  0.00  0.00    +0.192 C 
BRANCH  14  15
ATOM     15  C   UNL     1       7.307   1.933  23.066  0.00  0.00    +0.099 A 
ATOM     16  S   UNL     1       6.506   3.225  22.256  0.00  0.00    -0.070 S 
ATOM     17  C   UNL     1       7.659   4.331  22.885  0.00  0.00    +0.039 A 
ATOM     18  C   UNL     1       8.490   3.665  23.787  0.00  0.00    +0.080 A 
ATOM     19  C   UNL     1       9.491   4.409  24.450  0.00  0.00    +0.049 A 
ATOM     20  C   UNL     1       9.660   5.763  24.137  0.00  0.00    +0.043 A 
ATOM     21  C   UNL     1       8.846   6.395  23.202  0.00  0.00    +0.021 A 
ATOM     22 CL   UNL     1      10.914   6.665  24.901  0.00  0.00    -0.083 Cl
ATOM     23  C   UNL     1       7.813   5.693  22.579  0.00  0.00    +0.018 A 
ATOM     24  N   UNL     1       8.256   2.294  23.907  0.00  0.00    -0.242 NA
ENDBRANCH  14  15
ENDBRANCH   4  14
TORSDOF 5
ENDMDL
MODEL 8
REMARK VINA RESULT:      -6.3      4.140      7.540
REMARK  Name = 
REMARK  5 active torsions:
REMARK  status: ('A' for Active; 'I' for Inactive)
REMARK    1  A    between atoms: O_1  and  C_2
REMARK    2  A    between atoms: C_2  and  C_4
REMARK    3  A    between atoms: C_4  and  N_5
REMARK    4  A    between atoms: N_10  and  C_11
REMARK    5  A    between atoms: C_11  and  C_12
REMARK                            x       y       z     vdW  Elec       q    Type
REMARK                         _______ _______ _______ _____ _____    ______ ____
ROOT
ATOM      1  N   UNL     1       9.456   1.350  23.557  0.00  0.00    -0.290 N 
ATOM      2  C   UNL     1       9.991   0.159  24.047  0.00  0.00    +0.333 A 
ATOM      3  O   UNL     1      10.519   0.101  25.155  0.00  0.00    -0.246 OA
ATOM      4  N   UNL     1       9.845  -0.940  23.220  0.00  0.00    -0.254 N 
ATOM      5  C   UNL     1       9.441  -0.876  21.901  0.00  0.00    +0.257 A 
ATOM      6  O   UNL     1       9.474  -1.812  21.110  0.00  0.00    -0.268 OA
ATOM      7  C   UNL     1       8.950   0.433  21.438  0.00  0.00    +0.088 A 
ATOM      8  C   UNL     1       8.959   1.470  22.281  0.00  0.00    +0.096 A 
ENDROOT
BRANCH   1   9
ATOM      9  C   UNL     1       9.443   2.518  24.448  0.00  0.00    +0.246 C 
BRANCH   9  10
ATOM     10  C   UNL     1       9.822   3.811  23.735  0.00  0.00    +0.325 C 
ATOM     11  O   UNL     1       9.042   4.745  23.597  0.00  0.00    -0.249 OA
BRANCH  10  12
ATOM     12  O   UNL     1      11.098   3.878  23.288  0.00  0.00    -0.479 OA
ATOM     13  H   UNL     1      11.642   4.535  23.763  0.00  0.00    +0.295 HD
ENDBRANCH  10  12
ENDBRANCH   9  10
ENDBRANCH   1   9
BRANCH   4  14
ATOM     14  C   UNL     1      10.193  -2.245  23.756  0.00  0.00    +0.192 C 
BRANCH  14  15
ATOM     15  C   UNL     1       8.965  -2.964  24.269  0.00  0.00    +0.099 A 
ATOM     16  S   UNL     1       8.660  -2.895  25.963  0.00  0.00    -0.070 S 
ATOM     17  C   UNL     1       7.430  -4.079  25.789  0.00  0.00    +0.039 A 
ATOM     18  C   UNL     1       7.234  -4.342  24.431  0.00  0.00    +0.080 A 
ATOM     19  C   UNL     1       6.231  -5.268  24.067  0.00  0.00    +0.049 A 
ATOM     20  C   UNL     1       5.517  -5.936  25.069  0.00  0.00    +0.043 A 
ATOM     21  C   UNL     1       5.760  -5.688  26.416  0.00  0.00    +0.021 A 
ATOM     22 CL   UNL     1       4.329  -7.106  24.633  0.00  0.00    -0.083 Cl
ATOM     23  C   UNL     1       6.705  -4.735  26.798  0.00  0.00    +0.018 A 
ATOM     24  N   UNL     1       8.099  -3.670  23.568  0.00  0.00    -0.242 NA
ENDBRANCH  14  15
ENDBRANCH   4  14
TORSDOF 5
ENDMDL
MODEL 9
REMARK VINA RESULT:      -6.3      4.248      7.334
REMARK  Name = 
REMARK  5 active torsions:
REMARK  status: ('A' for Active; 'I' for Inactive)
REMARK    1  A    between atoms: O_1  and  C_2
REMARK    2  A    between atoms: C_2  and  C_4
REMARK    3  A    between atoms: C_4  and  N_5
REMARK    4  A    between atoms: N_10  and  C_11
REMARK    5  A    between atoms: C_11  and  C_12
REMARK                            x       y       z     vdW  Elec       q    Type
REMARK                         _______ _______ _______ _____ _____    ______ ____
ROOT
ATOM      1  N   UNL     1       8.352   1.427  23.036  0.00  0.00    -0.290 N 
ATOM      2  C   UNL     1       8.668   0.585  24.100  0.00  0.00    +0.333 A 
ATOM      3  O   UNL     1       8.353   0.864  25.255  0.00  0.00    -0.246 OA
ATOM      4  N   UNL     1       9.312  -0.589  23.755  0.00  0.00    -0.254 N 
ATOM      5  C   UNL     1       9.853  -0.845  22.511  0.00  0.00    +0.257 A 
ATOM      6  O   UNL     1      10.575  -1.800  22.242  0.00  0.00    -0.268 OA
ATOM      7  C   UNL     1       9.529   0.126  21.452  0.00  0.00    +0.088 A 
ATOM      8  C   UNL     1       8.785   1.194  21.752  0.00  0.00    +0.096 A 
ENDROOT
BRANCH   1   9
ATOM      9  C   UNL     1       7.534   2.616  23.315  0.00  0.00    +0.246 C 
BRANCH   9  10
ATOM     10  C   UNL     1       8.298   3.920  23.119  0.00  0.00    +0.325 C 
ATOM     11  O   UNL     1       9.258   4.236  23.811  0.00  0.00    -0.249 OA
BRANCH  10  12
ATOM     12  O   UNL     1       7.868   4.701  22.101  0.00  0.00    -0.479 OA
ATOM     13  H   UNL     1       7.460   4.196  21.371  0.00  0.00    +0.295 HD
ENDBRANCH  10  12
ENDBRANCH   9  10
ENDBRANCH   1   9
BRANCH   4  14
ATOM     14  C   UNL     1       9.483  -1.599  24.786  0.00  0.00    +0.192 C 
BRANCH  14  15
ATOM     15  C   UNL     1       8.279  -2.514  24.852  0.00  0.00    +0.099 A 
ATOM     16  S   UNL     1       8.157  -3.561  26.215  0.00  0.00    -0.070 S 
ATOM     17  C   UNL     1       6.857  -4.388  25.461  0.00  0.00    +0.039 A 
ATOM     18  C   UNL     1       6.506  -3.721  24.286  0.00  0.00    +0.080 A 
ATOM     19  C   UNL     1       5.425  -4.222  23.528  0.00  0.00    +0.049 A 
ATOM     20  C   UNL     1       4.785  -5.398  23.939  0.00  0.00    +0.043 A 
ATOM     21  C   UNL     1       5.181  -6.069  25.092  0.00  0.00    +0.021 A 
ATOM     22 CL   UNL     1       3.500  -6.046  22.992  0.00  0.00    -0.083 Cl
ATOM     23  C   UNL     1       6.209  -5.559  25.887  0.00  0.00    +0.018 A 
ATOM     24  N   UNL     1       7.310  -2.626  23.965  0.00  0.00    -0.242 NA
ENDBRANCH  14  15
ENDBRANCH   4  14
TORSDOF 5
ENDMDL
