MODEL 1
REMARK VINA RESULT:      -6.5      0.000      0.000
REMARK  Name = 
REMARK  12 active torsions:
REMARK  status: ('A' for Active; 'I' for Inactive)
REMARK    1  A    between atoms: C_1  and  C_2
REMARK    2  A    between atoms: C_2  and  C_4
REMARK    3  A    between atoms: C_2  and  C_24
REMARK    4  A    between atoms: C_5  and  C_6
REMARK    5  A    between atoms: C_7  and  C_8
REMARK    6  A    between atoms: C_7  and  C_9
REMARK    7  A    between atoms: CA_13  and  C_21
REMARK    8  A    between atoms: C_15  and  C_17
REMARK    9  A    between atoms: C_17  and  C_18
REMARK   10  A    between atoms: C_18  and  O_19
REMARK   11  A    between atoms: C_21  and  O_22
REMARK   12  A    between atoms: C_24  and  O_25
REMARK                            x       y       z     vdW  Elec       q    Type
REMARK                         _______ _______ _______ _____ _____    ______ ____
ROOT
ATOM      1  C   UNL     1       5.873  -3.500  23.954  0.00  0.00    +0.034 C 
ATOM      2  C   UNL     1       6.442  -4.907  24.292  0.00  0.00    +0.036 C 
ATOM      3  CA  UNL     1       5.554  -5.871  23.475  0.00  0.00    +0.168 C 
ATOM      4  N   UNL     1       4.598  -5.043  22.689  0.00  0.00    -0.303 NA
ATOM      5  H   UNL     1       4.506  -5.435  21.745  0.00  0.00    +0.123 HD
ATOM      6  C   UNL     1       5.227  -3.716  22.583  0.00  0.00    +0.089 C 
ENDROOT
BRANCH   1   8
ATOM      7  C   UNL     1       7.350  -1.586  23.139  0.00  0.00    -0.001 C 
ATOM      8  C   UNL     1       6.807  -2.307  24.147  0.00  0.00    -0.068 C 
ATOM      9  C   UNL     1       6.990  -1.896  25.599  0.00  0.00    +0.039 C 
BRANCH   7  11
ATOM     10  C   UNL     1       9.557  -0.473  22.905  0.00  0.00    -0.013 C 
ATOM     11  C   UNL     1       8.295  -0.512  23.355  0.00  0.00    -0.003 C 
BRANCH  10  13
ATOM     12  C   UNL     1      10.856   0.793  24.642  0.00  0.00    +0.023 C 
ATOM     13  C   UNL     1      10.459   0.717  23.169  0.00  0.00    +0.117 C 
BRANCH  13  14
ATOM     14  C   UNL     1       9.789   2.008  22.700  0.00  0.00    +0.311 C 
ATOM     15  O   UNL     1       9.377   2.893  23.436  0.00  0.00    -0.250 OA
BRANCH  14  16
ATOM     16  O   UNL     1       9.723   2.119  21.351  0.00  0.00    -0.480 OA
ATOM     17  H   UNL     1       8.989   1.610  20.956  0.00  0.00    +0.295 HD
ENDBRANCH  14  16
ENDBRANCH  13  14
ENDBRANCH  10  13
ENDBRANCH   7  11
ENDBRANCH   1   8
BRANCH   3  18
ATOM     18  C   UNL     1       4.781  -6.768  24.440  0.00  0.00    +0.322 C 
ATOM     19  OXT UNL     1       4.918  -6.718  25.655  0.00  0.00    -0.249 OA
BRANCH  18  20
ATOM     20  O   UNL     1       3.886  -7.562  23.810  0.00  0.00    -0.480 OA
ATOM     21  H   UNL     1       3.670  -7.117  22.954  0.00  0.00    +0.295 HD
ENDBRANCH  18  20
ENDBRANCH   3  18
BRANCH   2  22
ATOM     22  C   UNL     1       7.922  -5.125  23.957  0.00  0.00    +0.126 C 
BRANCH  22  23
ATOM     23  C   UNL     1       8.889  -5.337  25.103  0.00  0.00    +0.305 C 
ATOM     24  O   UNL     1      10.061  -4.994  25.007  0.00  0.00    -0.251 OA
BRANCH  23  25
ATOM     25  O   UNL     1       8.407  -5.832  26.253  0.00  0.00    -0.481 OA
ATOM     26  H   UNL     1       8.496  -6.782  26.477  0.00  0.00    +0.295 HD
ENDBRANCH  23  25
ENDBRANCH  22  23
ENDBRANCH   2  22
TORSDOF 10
ENDMDL
MODEL 2
REMARK VINA RESULT:      -6.2      2.085      2.903
REMARK  Name = 
REMARK  12 active torsions:
REMARK  status: ('A' for Active; 'I' for Inactive)
REMARK    1  A    between atoms: C_1  and  C_2
REMARK    2  A    between atoms: C_2  and  C_4
REMARK    3  A    between atoms: C_2  and  C_24
REMARK    4  A    between atoms: C_5  and  C_6
REMARK    5  A    between atoms: C_7  and  C_8
REMARK    6  A    between atoms: C_7  and  C_9
REMARK    7  A    between atoms: CA_13  and  C_21
REMARK    8  A    between atoms: C_15  and  C_17
REMARK    9  A    between atoms: C_17  and  C_18
REMARK   10  A    between atoms: C_18  and  O_19
REMARK   11  A    between atoms: C_21  and  O_22
REMARK   12  A    between atoms: C_24  and  O_25
REMARK                            x       y       z     vdW  Elec       q    Type
REMARK                         _______ _______ _______ _____ _____    ______ ____
ROOT
ATOM      1  C   UNL     1       7.038  -4.335  25.893  0.00  0.00    +0.034 C 
ATOM      2  C   UNL     1       6.142  -5.080  24.864  0.00  0.00    +0.036 C 
ATOM      3  CA  UNL     1       4.837  -5.355  25.640  0.00  0.00    +0.168 C 
ATOM      4  N   UNL     1       4.981  -4.746  26.991  0.00  0.00    -0.303 NA
ATOM      5  H   UNL     1       4.099  -4.291  27.255  0.00  0.00    +0.123 HD
ATOM      6  C   UNL     1       6.013  -3.706  26.842  0.00  0.00    +0.089 C 
ENDROOT
BRANCH   1   8
ATOM      7  C   UNL     1       8.164  -2.106  25.372  0.00  0.00    -0.001 C 
ATOM      8  C   UNL     1       8.158  -3.457  25.335  0.00  0.00    -0.068 C 
ATOM      9  C   UNL     1       9.360  -4.240  24.834  0.00  0.00    +0.039 C 
BRANCH   7  11
ATOM     10  C   UNL     1       9.029  -0.407  23.780  0.00  0.00    -0.013 C 
ATOM     11  C   UNL     1       9.203  -1.303  24.762  0.00  0.00    -0.003 C 
BRANCH  10  13
ATOM     12  C   UNL     1      10.630   1.478  24.218  0.00  0.00    +0.023 C 
ATOM     13  C   UNL     1      10.187   0.401  23.228  0.00  0.00    +0.117 C 
BRANCH  13  14
ATOM     14  C   UNL     1       9.821   1.001  21.872  0.00  0.00    +0.311 C 
ATOM     15  O   UNL     1       9.120   0.458  21.030  0.00  0.00    -0.250 OA
BRANCH  14  16
ATOM     16  O   UNL     1      10.315   2.249  21.686  0.00  0.00    -0.480 OA
ATOM     17  H   UNL     1      10.914   2.539  22.401  0.00  0.00    +0.295 HD
ENDBRANCH  14  16
ENDBRANCH  13  14
ENDBRANCH  10  13
ENDBRANCH   7  11
ENDBRANCH   1   8
BRANCH   3  18
ATOM     18  C   UNL     1       4.652  -6.866  25.778  0.00  0.00    +0.322 C 
ATOM     19  OXT UNL     1       4.304  -7.583  24.850  0.00  0.00    -0.249 OA
BRANCH  18  20
ATOM     20  O   UNL     1       4.985  -7.322  27.005  0.00  0.00    -0.480 OA
ATOM     21  H   UNL     1       4.150  -7.653  27.418  0.00  0.00    +0.295 HD
ENDBRANCH  18  20
ENDBRANCH   3  18
BRANCH   2  22
ATOM     22  C   UNL     1       5.846  -4.319  23.566  0.00  0.00    +0.126 C 
BRANCH  22  23
ATOM     23  C   UNL     1       5.707  -5.118  22.286  0.00  0.00    +0.305 C 
ATOM     24  O   UNL     1       5.756  -4.566  21.194  0.00  0.00    -0.251 OA
BRANCH  23  25
ATOM     25  O   UNL     1       5.615  -6.453  22.382  0.00  0.00    -0.481 OA
ATOM     26  H   UNL     1       4.826  -6.935  22.055  0.00  0.00    +0.295 HD
ENDBRANCH  23  25
ENDBRANCH  22  23
ENDBRANCH   2  22
TORSDOF 10
ENDMDL
MODEL 3
REMARK VINA RESULT:      -6.2      2.441      3.439
REMARK  Name = 
REMARK  12 active torsions:
REMARK  status: ('A' for Active; 'I' for Inactive)
REMARK    1  A    between atoms: C_1  and  C_2
REMARK    2  A    between atoms: C_2  and  C_4
REMARK    3  A    between atoms: C_2  and  C_24
REMARK    4  A    between atoms: C_5  and  C_6
REMARK    5  A    between atoms: C_7  and  C_8
REMARK    6  A    between atoms: C_7  and  C_9
REMARK    7  A    between atoms: CA_13  and  C_21
REMARK    8  A    between atoms: C_15  and  C_17
REMARK    9  A    between atoms: C_17  and  C_18
REMARK   10  A    between atoms: C_18  and  O_19
REMARK   11  A    between atoms: C_21  and  O_22
REMARK   12  A    between atoms: C_24  and  O_25
REMARK                            x       y       z     vdW  Elec       q    Type
REMARK                         _______ _______ _______ _____ _____    ______ ____
ROOT
ATOM      1  C   UNL     1       7.884  -4.653  25.012  0.00  0.00    +0.034 C 
ATOM      2  C   UNL     1       6.434  -4.459  25.542  0.00  0.00    +0.036 C 
ATOM      3  CA  UNL     1       6.367  -5.377  26.781  0.00  0.00    +0.168 C 
ATOM      4  N   UNL     1       7.713  -5.989  26.959  0.00  0.00    -0.303 NA
ATOM      5  H   UNL     1       7.952  -6.000  27.957  0.00  0.00    +0.123 HD
ATOM      6  C   UNL     1       8.648  -5.086  26.266  0.00  0.00    +0.089 C 
ENDROOT
BRANCH   1   8
ATOM      7  C   UNL     1       9.532  -2.777  24.488  0.00  0.00    -0.001 C 
ATOM      8  C   UNL     1       8.464  -3.534  24.148  0.00  0.00    -0.068 C 
ATOM      9  C   UNL     1       7.813  -3.413  22.779  0.00  0.00    +0.039 C 
BRANCH   7  11
ATOM     10  C   UNL     1       9.806  -0.372  23.935  0.00  0.00    -0.013 C 
ATOM     11  C   UNL     1      10.007  -1.672  23.682  0.00  0.00    -0.003 C 
BRANCH  10  13
ATOM     12  C   UNL     1      10.393   2.062  23.744  0.00  0.00    +0.023 C 
ATOM     13  C   UNL     1      10.370   0.710  23.035  0.00  0.00    +0.117 C 
BRANCH  13  14
ATOM     14  C   UNL     1       9.588   0.775  21.724  0.00  0.00    +0.311 C 
ATOM     15  O   UNL     1       9.260  -0.193  21.053  0.00  0.00    -0.250 OA
BRANCH  14  16
ATOM     16  O   UNL     1       9.235   2.035  21.372  0.00  0.00    -0.480 OA
ATOM     17  H   UNL     1       8.382   2.320  21.754  0.00  0.00    +0.295 HD
ENDBRANCH  14  16
ENDBRANCH  13  14
ENDBRANCH  10  13
ENDBRANCH   7  11
ENDBRANCH   1   8
BRANCH   3  18
ATOM     18  C   UNL     1       5.335  -6.475  26.528  0.00  0.00    +0.322 C 
ATOM     19  OXT UNL     1       4.778  -6.632  25.450  0.00  0.00    -0.249 OA
BRANCH  18  20
ATOM     20  O   UNL     1       5.167  -7.288  27.594  0.00  0.00    -0.480 OA
ATOM     21  H   UNL     1       4.247  -7.133  27.922  0.00  0.00    +0.295 HD
ENDBRANCH  18  20
ENDBRANCH   3  18
BRANCH   2  22
ATOM     22  C   UNL     1       6.048  -3.023  25.915  0.00  0.00    +0.126 C 
BRANCH  22  23
ATOM     23  C   UNL     1       4.995  -2.327  25.078  0.00  0.00    +0.305 C 
ATOM     24  O   UNL     1       3.824  -2.683  25.119  0.00  0.00    -0.251 OA
BRANCH  23  25
ATOM     25  O   UNL     1       5.366  -1.258  24.358  0.00  0.00    -0.481 OA
ATOM     26  H   UNL     1       5.355  -0.355  24.740  0.00  0.00    +0.295 HD
ENDBRANCH  23  25
ENDBRANCH  22  23
ENDBRANCH   2  22
TORSDOF 10
ENDMDL
MODEL 4
REMARK VINA RESULT:      -6.1      0.980      1.606
REMARK  Name = 
REMARK  12 active torsions:
REMARK  status: ('A' for Active; 'I' for Inactive)
REMARK    1  A    between atoms: C_1  and  C_2
REMARK    2  A    between atoms: C_2  and  C_4
REMARK    3  A    between atoms: C_2  and  C_24
REMARK    4  A    between atoms: C_5  and  C_6
REMARK    5  A    between atoms: C_7  and  C_8
REMARK    6  A    between atoms: C_7  and  C_9
REMARK    7  A    between atoms: CA_13  and  C_21
REMARK    8  A    between atoms: C_15  and  C_17
REMARK    9  A    between atoms: C_17  and  C_18
REMARK   10  A    between atoms: C_18  and  O_19
REMARK   11  A    between atoms: C_21  and  O_22
REMARK   12  A    between atoms: C_24  and  O_25
REMARK                            x       y       z     vdW  Elec       q    Type
REMARK                         _______ _______ _______ _____ _____    ______ ____
ROOT
ATOM      1  C   UNL     1       5.626  -3.293  23.854  0.00  0.00    +0.034 C 
ATOM      2  C   UNL     1       6.360  -4.571  24.352  0.00  0.00    +0.036 C 
ATOM      3  CA  UNL     1       5.713  -5.711  23.537  0.00  0.00    +0.168 C 
ATOM      4  N   UNL     1       4.729  -5.094  22.605  0.00  0.00    -0.303 NA
ATOM      5  H   UNL     1       4.792  -5.556  21.690  0.00  0.00    +0.123 HD
ATOM      6  C   UNL     1       5.161  -3.695  22.451  0.00  0.00    +0.089 C 
ENDROOT
BRANCH   1   8
ATOM      7  C   UNL     1       6.811  -1.194  23.022  0.00  0.00    -0.001 C 
ATOM      8  C   UNL     1       6.349  -1.960  24.036  0.00  0.00    -0.068 C 
ATOM      9  C   UNL     1       6.401  -1.479  25.477  0.00  0.00    +0.039 C 
BRANCH   7  11
ATOM     10  C   UNL     1       7.223   1.244  22.789  0.00  0.00    -0.013 C 
ATOM     11  C   UNL     1       7.563   0.026  23.232  0.00  0.00    -0.003 C 
BRANCH  10  13
ATOM     12  C   UNL     1       7.563   3.690  22.334  0.00  0.00    +0.023 C 
ATOM     13  C   UNL     1       8.074   2.463  23.087  0.00  0.00    +0.117 C 
BRANCH  13  14
ATOM     14  C   UNL     1       9.541   2.180  22.771  0.00  0.00    +0.311 C 
ATOM     15  O   UNL     1      10.416   1.988  23.604  0.00  0.00    -0.250 OA
BRANCH  14  16
ATOM     16  O   UNL     1       9.800   2.111  21.442  0.00  0.00    -0.480 OA
ATOM     17  H   UNL     1       9.824   2.986  21.007  0.00  0.00    +0.295 HD
ENDBRANCH  14  16
ENDBRANCH  13  14
ENDBRANCH  10  13
ENDBRANCH   7  11
ENDBRANCH   1   8
BRANCH   3  18
ATOM     18  C   UNL     1       4.987  -6.654  24.495  0.00  0.00    +0.322 C 
ATOM     19  OXT UNL     1       5.074  -6.566  25.713  0.00  0.00    -0.249 OA
BRANCH  18  20
ATOM     20  O   UNL     1       4.190  -7.538  23.855  0.00  0.00    -0.480 OA
ATOM     21  H   UNL     1       3.634  -7.012  23.229  0.00  0.00    +0.295 HD
ENDBRANCH  18  20
ENDBRANCH   3  18
BRANCH   2  22
ATOM     22  C   UNL     1       7.882  -4.577  24.170  0.00  0.00    +0.126 C 
BRANCH  22  23
ATOM     23  C   UNL     1       8.724  -5.262  25.227  0.00  0.00    +0.305 C 
ATOM     24  O   UNL     1       8.209  -5.730  26.234  0.00  0.00    -0.251 OA
BRANCH  23  25
ATOM     25  O   UNL     1      10.035  -5.415  24.988  0.00  0.00    -0.481 OA
ATOM     26  H   UNL     1      10.690  -5.423  25.717  0.00  0.00    +0.295 HD
ENDBRANCH  23  25
ENDBRANCH  22  23
ENDBRANCH   2  22
TORSDOF 10
ENDMDL
MODEL 5
REMARK VINA RESULT:      -5.9      2.915      7.473
REMARK  Name = 
REMARK  12 active torsions:
REMARK  status: ('A' for Active; 'I' for Inactive)
REMARK    1  A    between atoms: C_1  and  C_2
REMARK    2  A    between atoms: C_2  and  C_4
REMARK    3  A    between atoms: C_2  and  C_24
REMARK    4  A    between atoms: C_5  and  C_6
REMARK    5  A    between atoms: C_7  and  C_8
REMARK    6  A    between atoms: C_7  and  C_9
REMARK    7  A    between atoms: CA_13  and  C_21
REMARK    8  A    between atoms: C_15  and  C_17
REMARK    9  A    between atoms: C_17  and  C_18
REMARK   10  A    between atoms: C_18  and  O_19
REMARK   11  A    between atoms: C_21  and  O_22
REMARK   12  A    between atoms: C_24  and  O_25
REMARK                            x       y       z     vdW  Elec       q    Type
REMARK                         _______ _______ _______ _____ _____    ______ ____
ROOT
ATOM      1  C   UNL     1       8.048   0.796  23.977  0.00  0.00    +0.034 C 
ATOM      2  C   UNL     1       9.551   0.731  23.585  0.00  0.00    +0.036 C 
ATOM      3  CA  UNL     1      10.154   2.004  24.216  0.00  0.00    +0.168 C 
ATOM      4  N   UNL     1       9.065   2.694  24.962  0.00  0.00    -0.303 NA
ATOM      5  H   UNL     1       9.433   3.044  25.854  0.00  0.00    +0.123 HD
ATOM      6  C   UNL     1       8.066   1.650  25.248  0.00  0.00    +0.089 C 
ENDROOT
BRANCH   1   8
ATOM      7  C   UNL     1       6.888  -1.194  22.880  0.00  0.00    -0.001 C 
ATOM      8  C   UNL     1       7.274  -0.522  23.988  0.00  0.00    -0.068 C 
ATOM      9  C   UNL     1       7.073  -1.105  25.377  0.00  0.00    +0.039 C 
BRANCH   7  11
ATOM     10  C   UNL     1       6.222  -3.464  22.123  0.00  0.00    -0.013 C 
ATOM     11  C   UNL     1       6.086  -2.399  22.926  0.00  0.00    -0.003 C 
BRANCH  10  13
ATOM     12  C   UNL     1       5.028  -4.967  23.743  0.00  0.00    +0.023 C 
ATOM     13  C   UNL     1       5.341  -4.689  22.273  0.00  0.00    +0.117 C 
BRANCH  13  14
ATOM     14  C   UNL     1       5.988  -5.896  21.598  0.00  0.00    +0.311 C 
ATOM     15  O   UNL     1       6.506  -6.836  22.184  0.00  0.00    -0.250 OA
BRANCH  14  16
ATOM     16  O   UNL     1       5.900  -5.865  20.245  0.00  0.00    -0.480 OA
ATOM     17  H   UNL     1       5.552  -5.021  19.899  0.00  0.00    +0.295 HD
ENDBRANCH  14  16
ENDBRANCH  13  14
ENDBRANCH  10  13
ENDBRANCH   7  11
ENDBRANCH   1   8
BRANCH   3  18
ATOM     18  C   UNL     1      10.666   2.914  23.101  0.00  0.00    +0.322 C 
ATOM     19  OXT UNL     1      11.366   3.896  23.309  0.00  0.00    -0.249 OA
BRANCH  18  20
ATOM     20  O   UNL     1      10.325   2.475  21.870  0.00  0.00    -0.480 OA
ATOM     21  H   UNL     1       9.338   2.513  21.822  0.00  0.00    +0.295 HD
ENDBRANCH  18  20
ENDBRANCH   3  18
BRANCH   2  22
ATOM     22  C   UNL     1      10.310  -0.514  24.058  0.00  0.00    +0.126 C 
BRANCH  22  23
ATOM     23  C   UNL     1      10.331  -1.726  23.148  0.00  0.00    +0.305 C 
ATOM     24  O   UNL     1      10.216  -2.856  23.606  0.00  0.00    -0.251 OA
BRANCH  23  25
ATOM     25  O   UNL     1      10.395  -1.520  21.824  0.00  0.00    -0.481 OA
ATOM     26  H   UNL     1       9.971  -0.741  21.407  0.00  0.00    +0.295 HD
ENDBRANCH  23  25
ENDBRANCH  22  23
ENDBRANCH   2  22
TORSDOF 10
ENDMDL
MODEL 6
REMARK VINA RESULT:      -5.9      2.876      4.490
REMARK  Name = 
REMARK  12 active torsions:
REMARK  status: ('A' for Active; 'I' for Inactive)
REMARK    1  A    between atoms: C_1  and  C_2
REMARK    2  A    between atoms: C_2  and  C_4
REMARK    3  A    between atoms: C_2  and  C_24
REMARK    4  A    between atoms: C_5  and  C_6
REMARK    5  A    between atoms: C_7  and  C_8
REMARK    6  A    between atoms: C_7  and  C_9
REMARK    7  A    between atoms: CA_13  and  C_21
REMARK    8  A    between atoms: C_15  and  C_17
REMARK    9  A    between atoms: C_17  and  C_18
REMARK   10  A    between atoms: C_18  and  O_19
REMARK   11  A    between atoms: C_21  and  O_22
REMARK   12  A    between atoms: C_24  and  O_25
REMARK                            x       y       z     vdW  Elec       q    Type
REMARK                         _______ _______ _______ _____ _____    ______ ____
ROOT
ATOM      1  C   UNL     1       9.015  -1.400  25.689  0.00  0.00    +0.034 C 
ATOM      2  C   UNL     1       9.046  -2.481  24.571  0.00  0.00    +0.036 C 
ATOM      3  CA  UNL     1       8.269  -3.667  25.181  0.00  0.00    +0.168 C 
ATOM      4  N   UNL     1       7.787  -3.245  26.525  0.00  0.00    -0.303 NA
ATOM      5  H   UNL     1       6.828  -3.583  26.664  0.00  0.00    +0.123 HD
ATOM      6  C   UNL     1       7.760  -1.773  26.486  0.00  0.00    +0.089 C 
ENDROOT
BRANCH   1   8
ATOM      7  C   UNL     1       8.228   0.986  25.246  0.00  0.00    -0.001 C 
ATOM      8  C   UNL     1       9.207   0.053  25.258  0.00  0.00    -0.068 C 
ATOM      9  C   UNL     1      10.651   0.419  24.955  0.00  0.00    +0.039 C 
BRANCH   7  11
ATOM     10  C   UNL     1       8.283   2.736  23.485  0.00  0.00    -0.013 C 
ATOM     11  C   UNL     1       8.426   2.333  24.755  0.00  0.00    -0.003 C 
BRANCH  10  13
ATOM     12  C   UNL     1       8.952   5.026  24.270  0.00  0.00    +0.023 C 
ATOM     13  C   UNL     1       8.492   4.183  23.082  0.00  0.00    +0.117 C 
BRANCH  13  14
ATOM     14  C   UNL     1       7.222   4.748  22.449  0.00  0.00    +0.311 C 
ATOM     15  O   UNL     1       6.082   4.414  22.740  0.00  0.00    -0.250 OA
BRANCH  14  16
ATOM     16  O   UNL     1       7.465   5.719  21.535  0.00  0.00    -0.480 OA
ATOM     17  H   UNL     1       7.678   5.371  20.647  0.00  0.00    +0.295 HD
ENDBRANCH  14  16
ENDBRANCH  13  14
ENDBRANCH  10  13
ENDBRANCH   7  11
ENDBRANCH   1   8
BRANCH   3  18
ATOM     18  C   UNL     1       9.218  -4.856  25.329  0.00  0.00    +0.322 C 
ATOM     19  OXT UNL     1      10.319  -4.902  24.797  0.00  0.00    -0.249 OA
BRANCH  18  20
ATOM     20  O   UNL     1       8.738  -5.805  26.163  0.00  0.00    -0.480 OA
ATOM     21  H   UNL     1       8.001  -6.255  25.682  0.00  0.00    +0.295 HD
ENDBRANCH  18  20
ENDBRANCH   3  18
BRANCH   2  22
ATOM     22  C   UNL     1       8.430  -2.068  23.229  0.00  0.00    +0.126 C 
BRANCH  22  23
ATOM     23  C   UNL     1       9.328  -1.406  22.205  0.00  0.00    +0.305 C 
ATOM     24  O   UNL     1       8.960  -0.408  21.600  0.00  0.00    -0.251 OA
BRANCH  23  25
ATOM     25  O   UNL     1      10.567  -1.894  22.042  0.00  0.00    -0.481 OA
ATOM     26  H   UNL     1      11.131  -2.122  22.811  0.00  0.00    +0.295 HD
ENDBRANCH  23  25
ENDBRANCH  22  23
ENDBRANCH   2  22
TORSDOF 10
ENDMDL
MODEL 7
REMARK VINA RESULT:      -5.8      1.407      1.577
REMARK  Name = 
REMARK  12 active torsions:
REMARK  status: ('A' for Active; 'I' for Inactive)
REMARK    1  A    between atoms: C_1  and  C_2
REMARK    2  A    between atoms: C_2  and  C_4
REMARK    3  A    between atoms: C_2  and  C_24
REMARK    4  A    between atoms: C_5  and  C_6
REMARK    5  A    between atoms: C_7  and  C_8
REMARK    6  A    between atoms: C_7  and  C_9
REMARK    7  A    between atoms: CA_13  and  C_21
REMARK    8  A    between atoms: C_15  and  C_17
REMARK    9  A    between atoms: C_17  and  C_18
REMARK   10  A    between atoms: C_18  and  O_19
REMARK   11  A    between atoms: C_21  and  O_22
REMARK   12  A    between atoms: C_24  and  O_25
REMARK                            x       y       z     vdW  Elec       q    Type
REMARK                         _______ _______ _______ _____ _____    ______ ____
ROOT
ATOM      1  C   UNL     1       6.255  -3.313  25.824  0.00  0.00    +0.034 C 
ATOM      2  C   UNL     1       6.783  -4.769  25.679  0.00  0.00    +0.036 C 
ATOM      3  CA  UNL     1       5.503  -5.609  25.478  0.00  0.00    +0.168 C 
ATOM      4  N   UNL     1       4.349  -4.669  25.452  0.00  0.00    -0.303 NA
ATOM      5  H   UNL     1       3.692  -4.958  24.718  0.00  0.00    +0.123 HD
ATOM      6  C   UNL     1       4.917  -3.362  25.079  0.00  0.00    +0.089 C 
ENDROOT
BRANCH   1   8
ATOM      7  C   UNL     1       7.169  -1.401  24.405  0.00  0.00    -0.001 C 
ATOM      8  C   UNL     1       7.232  -2.183  25.506  0.00  0.00    -0.068 C 
ATOM      9  C   UNL     1       8.238  -1.910  26.613  0.00  0.00    +0.039 C 
BRANCH   7  11
ATOM     10  C   UNL     1       9.251  -0.568  23.338  0.00  0.00    -0.013 C 
ATOM     11  C   UNL     1       8.159  -0.392  24.094  0.00  0.00    -0.003 C 
BRANCH  10  13
ATOM     12  C   UNL     1      10.949   0.999  24.323  0.00  0.00    +0.023 C 
ATOM     13  C   UNL     1      10.214   0.568  23.054  0.00  0.00    +0.117 C 
BRANCH  13  14
ATOM     14  C   UNL     1       9.479   1.740  22.405  0.00  0.00    +0.311 C 
ATOM     15  O   UNL     1       9.184   2.784  22.969  0.00  0.00    -0.250 OA
BRANCH  14  16
ATOM     16  O   UNL     1       9.208   1.541  21.092  0.00  0.00    -0.480 OA
ATOM     17  H   UNL     1       9.692   2.150  20.500  0.00  0.00    +0.295 HD
ENDBRANCH  14  16
ENDBRANCH  13  14
ENDBRANCH  10  13
ENDBRANCH   7  11
ENDBRANCH   1   8
BRANCH   3  18
ATOM     18  C   UNL     1       5.353  -6.570  26.656  0.00  0.00    +0.322 C 
ATOM     19  OXT UNL     1       6.131  -6.597  27.600  0.00  0.00    -0.249 OA
BRANCH  18  20
ATOM     20  O   UNL     1       4.237  -7.327  26.573  0.00  0.00    -0.480 OA
ATOM     21  H   UNL     1       4.502  -8.247  26.819  0.00  0.00    +0.295 HD
ENDBRANCH  18  20
ENDBRANCH   3  18
BRANCH   2  22
ATOM     22  C   UNL     1       7.768  -5.008  24.529  0.00  0.00    +0.126 C 
BRANCH  22  23
ATOM     23  C   UNL     1       9.244  -5.103  24.861  0.00  0.00    +0.305 C 
ATOM     24  O   UNL     1      10.012  -4.197  24.565  0.00  0.00    -0.251 OA
BRANCH  23  25
ATOM     25  O   UNL     1       9.666  -6.165  25.562  0.00  0.00    -0.481 OA
ATOM     26  H   UNL     1       9.232  -7.040  25.475  0.00  0.00    +0.295 HD
ENDBRANCH  23  25
ENDBRANCH  22  23
ENDBRANCH   2  22
TORSDOF 10
ENDMDL
MODEL 8
REMARK VINA RESULT:      -5.8      3.273      8.501
REMARK  Name = 
REMARK  12 active torsions:
REMARK  status: ('A' for Active; 'I' for Inactive)
REMARK    1  A    between atoms: C_1  and  C_2
REMARK    2  A    between atoms: C_2  and  C_4
REMARK    3  A    between atoms: C_2  and  C_24
REMARK    4  A    between atoms: C_5  and  C_6
REMARK    5  A    between atoms: C_7  and  C_8
REMARK    6  A    between atoms: C_7  and  C_9
REMARK    7  A    between atoms: CA_13  and  C_21
REMARK    8  A    between atoms: C_15  and  C_17
REMARK    9  A    between atoms: C_17  and  C_18
REMARK   10  A    between atoms: C_18  and  O_19
REMARK   11  A    between atoms: C_21  and  O_22
REMARK   12  A    between atoms: C_24  and  O_25
REMARK                            x       y       z     vdW  Elec       q    Type
REMARK                         _______ _______ _______ _____ _____    ______ ____
ROOT
ATOM      1  C   UNL     1      10.004   1.869  24.119  0.00  0.00    +0.034 C 
ATOM      2  C   UNL     1       8.686   2.663  24.348  0.00  0.00    +0.036 C 
ATOM      3  CA  UNL     1       9.033   4.096  23.890  0.00  0.00    +0.168 C 
ATOM      4  N   UNL     1      10.433   4.079  23.383  0.00  0.00    -0.303 NA
ATOM      5  H   UNL     1      10.494   4.652  22.534  0.00  0.00    +0.123 HD
ATOM      6  C   UNL     1      10.699   2.677  23.019  0.00  0.00    +0.089 C 
ENDROOT
BRANCH   1   8
ATOM      7  C   UNL     1       9.439  -0.488  24.914  0.00  0.00    -0.001 C 
ATOM      8  C   UNL     1       9.884   0.355  23.955  0.00  0.00    -0.068 C 
ATOM      9  C   UNL     1      10.191  -0.137  22.550  0.00  0.00    +0.039 C 
BRANCH   7  11
ATOM     10  C   UNL     1       8.346  -2.717  24.923  0.00  0.00    -0.013 C 
ATOM     11  C   UNL     1       9.414  -1.926  24.754  0.00  0.00    -0.003 C 
BRANCH  10  13
ATOM     12  C   UNL     1       7.059  -4.791  24.331  0.00  0.00    +0.023 C 
ATOM     13  C   UNL     1       8.424  -4.216  24.704  0.00  0.00    +0.117 C 
BRANCH  13  14
ATOM     14  C   UNL     1       9.007  -4.905  25.936  0.00  0.00    +0.311 C 
ATOM     15  O   UNL     1       8.521  -4.868  27.058  0.00  0.00    -0.250 OA
BRANCH  14  16
ATOM     16  O   UNL     1      10.124  -5.624  25.671  0.00  0.00    -0.480 OA
ATOM     17  H   UNL     1       9.938  -6.549  25.416  0.00  0.00    +0.295 HD
ENDBRANCH  14  16
ENDBRANCH  13  14
ENDBRANCH  10  13
ENDBRANCH   7  11
ENDBRANCH   1   8
BRANCH   3  18
ATOM     18  C   UNL     1       8.936   5.036  25.091  0.00  0.00    +0.322 C 
ATOM     19  OXT UNL     1       8.284   4.774  26.093  0.00  0.00    -0.249 OA
BRANCH  18  20
ATOM     20  O   UNL     1       9.701   6.141  24.952  0.00  0.00    -0.480 OA
ATOM     21  H   UNL     1      10.608   5.894  25.259  0.00  0.00    +0.295 HD
ENDBRANCH  18  20
ENDBRANCH   3  18
BRANCH   2  22
ATOM     22  C   UNL     1       7.456   2.143  23.596  0.00  0.00    +0.126 C 
BRANCH  22  23
ATOM     23  C   UNL     1       7.269   2.565  22.153  0.00  0.00    +0.305 C 
ATOM     24  O   UNL     1       7.834   1.967  21.247  0.00  0.00    -0.251 OA
BRANCH  23  25
ATOM     25  O   UNL     1       6.402   3.554  21.893  0.00  0.00    -0.481 OA
ATOM     26  H   UNL     1       6.236   4.272  22.540  0.00  0.00    +0.295 HD
ENDBRANCH  23  25
ENDBRANCH  22  23
ENDBRANCH   2  22
TORSDOF 10
ENDMDL
MODEL 9
REMARK VINA RESULT:      -5.7      3.089      7.971
REMARK  Name = 
REMARK  12 active torsions:
REMARK  status: ('A' for Active; 'I' for Inactive)
REMARK    1  A    between atoms: C_1  and  C_2
REMARK    2  A    between atoms: C_2  and  C_4
REMARK    3  A    between atoms: C_2  and  C_24
REMARK    4  A    between atoms: C_5  and  C_6
REMARK    5  A    between atoms: C_7  and  C_8
REMARK    6  A    between atoms: C_7  and  C_9
REMARK    7  A    between atoms: CA_13  and  C_21
REMARK    8  A    between atoms: C_15  and  C_17
REMARK    9  A    between atoms: C_17  and  C_18
REMARK   10  A    between atoms: C_18  and  O_19
REMARK   11  A    between atoms: C_21  and  O_22
REMARK   12  A    between atoms: C_24  and  O_25
REMARK                            x       y       z     vdW  Elec       q    Type
REMARK                         _______ _______ _______ _____ _____    ______ ____
ROOT
ATOM      1  C   UNL     1       9.132   0.221  23.024  0.00  0.00    +0.034 C 
ATOM      2  C   UNL     1       8.170   1.355  23.478  0.00  0.00    +0.036 C 
ATOM      3  CA  UNL     1       8.528   2.537  22.553  0.00  0.00    +0.168 C 
ATOM      4  N   UNL     1       9.577   2.065  21.608  0.00  0.00    -0.303 NA
ATOM      5  H   UNL     1       9.380   2.432  20.669  0.00  0.00    +0.123 HD
ATOM      6  C   UNL     1       9.441   0.600  21.573  0.00  0.00    +0.089 C 
ENDROOT
BRANCH   1   8
ATOM      7  C   UNL     1       8.219  -2.084  22.426  0.00  0.00    -0.001 C 
ATOM      8  C   UNL     1       8.712  -1.214  23.336  0.00  0.00    -0.068 C 
ATOM      9  C   UNL     1       9.016  -1.649  24.760  0.00  0.00    +0.039 C 
BRANCH   7  11
ATOM     10  C   UNL     1       6.560  -3.932  22.460  0.00  0.00    -0.013 C 
ATOM     11  C   UNL     1       7.755  -3.412  22.771  0.00  0.00    -0.003 C 
BRANCH  10  13
ATOM     12  C   UNL     1       6.782  -6.366  21.882  0.00  0.00    +0.023 C 
ATOM     13  C   UNL     1       6.184  -5.348  22.851  0.00  0.00    +0.117 C 
BRANCH  13  14
ATOM     14  C   UNL     1       4.666  -5.489  22.949  0.00  0.00    +0.311 C 
ATOM     15  O   UNL     1       3.866  -4.573  22.828  0.00  0.00    -0.250 OA
BRANCH  14  16
ATOM     16  O   UNL     1       4.257  -6.767  23.144  0.00  0.00    -0.480 OA
ATOM     17  H   UNL     1       4.962  -7.426  22.992  0.00  0.00    +0.295 HD
ENDBRANCH  14  16
ENDBRANCH  13  14
ENDBRANCH  10  13
ENDBRANCH   7  11
ENDBRANCH   1   8
BRANCH   3  18
ATOM     18  C   UNL     1       9.082   3.680  23.402  0.00  0.00    +0.322 C 
ATOM     19  OXT UNL     1       8.387   4.352  24.153  0.00  0.00    -0.249 OA
BRANCH  18  20
ATOM     20  O   UNL     1      10.422   3.814  23.287  0.00  0.00    -0.480 OA
ATOM     21  H   UNL     1      10.580   4.385  22.495  0.00  0.00    +0.295 HD
ENDBRANCH  18  20
ENDBRANCH   3  18
BRANCH   2  22
ATOM     22  C   UNL     1       6.673   1.035  23.386  0.00  0.00    +0.126 C 
BRANCH  22  23
ATOM     23  C   UNL     1       5.746   1.655  24.412  0.00  0.00    +0.305 C 
ATOM     24  O   UNL     1       6.156   1.959  25.525  0.00  0.00    -0.251 OA
BRANCH  23  25
ATOM     25  O   UNL     1       4.490   1.938  24.037  0.00  0.00    -0.481 OA
ATOM     26  H   UNL     1       3.969   2.638  24.483  0.00  0.00    +0.295 HD
ENDBRANCH  23  25
ENDBRANCH  22  23
ENDBRANCH   2  22
TORSDOF 10
ENDMDL
