MODEL 1
REMARK VINA RESULT:      -6.5      0.000      0.000
REMARK  Name = 
REMARK  4 active torsions:
REMARK  status: ('A' for Active; 'I' for Inactive)
REMARK    1  A    between atoms: O_1  and  C_2
REMARK    2  A    between atoms: C_2  and  C_4
REMARK    3  A    between atoms: C_16  and  C_17
REMARK    4  A    between atoms: C_17  and  O_18
REMARK                            x       y       z     vdW  Elec       q    Type
REMARK                         _______ _______ _______ _____ _____    ______ ____
ROOT
ATOM      1  C   UNL     1       8.596  -4.323  24.575  0.00  0.00    +0.102 A 
ATOM      2  C   UNL     1       8.812  -3.108  23.922  0.00  0.00    +0.150 A 
ATOM      3  O   UNL     1       9.549  -2.061  24.391  0.00  0.00    -0.453 OA
ATOM      4  C   UNL     1       9.516  -1.071  23.451  0.00  0.00    +0.150 A 
ATOM      5  C   UNL     1      10.144   0.177  23.531  0.00  0.00    +0.102 A 
ATOM      6  C   UNL     1       9.983   1.036  22.428  0.00  0.00    +0.019 A 
ATOM      7  C   UNL     1       9.201   0.663  21.331  0.00  0.00    +0.002 A 
ATOM      8  C   UNL     1       8.573  -0.588  21.288  0.00  0.00    +0.012 A 
ATOM      9  C   UNL     1       8.739  -1.475  22.368  0.00  0.00    +0.029 A 
ATOM     10  C   UNL     1       8.286  -2.793  22.672  0.00  0.00    +0.029 A 
ATOM     11  C   UNL     1       7.484  -3.746  22.016  0.00  0.00    +0.012 A 
ATOM     12  C   UNL     1       7.241  -4.974  22.643  0.00  0.00    +0.002 A 
ATOM     13  C   UNL     1       7.787  -5.255  23.898  0.00  0.00    +0.019 A 
ENDROOT
BRANCH   1  14
ATOM     14  C   UNL     1       9.149  -4.664  25.903  0.00  0.00    +0.340 C 
ATOM     15  O   UNL     1       8.642  -4.246  26.933  0.00  0.00    -0.245 OA
BRANCH  14  16
ATOM     16  O   UNL     1      10.241  -5.454  25.904  0.00  0.00    -0.477 OA
ATOM     17  H   UNL     1      10.638  -5.658  25.029  0.00  0.00    +0.295 HD
ENDBRANCH  14  16
ENDBRANCH   1  14
BRANCH   5  18
ATOM     18  C   UNL     1      10.982   0.505  24.702  0.00  0.00    +0.340 C 
ATOM     19  O   UNL     1      12.133   0.893  24.606  0.00  0.00    -0.245 OA
BRANCH  18  20
ATOM     20  O   UNL     1      10.364   0.327  25.889  0.00  0.00    -0.477 OA
ATOM     21  H   UNL     1      10.942   0.134  26.650  0.00  0.00    +0.295 HD
ENDBRANCH  18  20
ENDBRANCH   5  18
TORSDOF 4
ENDMDL
MODEL 2
REMARK VINA RESULT:      -6.5      0.887      5.027
REMARK  Name = 
REMARK  4 active torsions:
REMARK  status: ('A' for Active; 'I' for Inactive)
REMARK    1  A    between atoms: O_1  and  C_2
REMARK    2  A    between atoms: C_2  and  C_4
REMARK    3  A    between atoms: C_16  and  C_17
REMARK    4  A    between atoms: C_17  and  O_18
REMARK                            x       y       z     vdW  Elec       q    Type
REMARK                         _______ _______ _______ _____ _____    ______ ____
ROOT
ATOM      1  C   UNL     1       9.900  -0.353  23.793  0.00  0.00    +0.102 A 
ATOM      2  C   UNL     1       9.188  -1.554  23.782  0.00  0.00    +0.150 A 
ATOM      3  O   UNL     1       8.957  -2.363  24.855  0.00  0.00    -0.453 OA
ATOM      4  C   UNL     1       8.219  -3.428  24.425  0.00  0.00    +0.150 A 
ATOM      5  C   UNL     1       7.762  -4.496  25.205  0.00  0.00    +0.102 A 
ATOM      6  C   UNL     1       7.001  -5.480  24.545  0.00  0.00    +0.019 A 
ATOM      7  C   UNL     1       6.753  -5.398  23.172  0.00  0.00    +0.002 A 
ATOM      8  C   UNL     1       7.238  -4.324  22.415  0.00  0.00    +0.012 A 
ATOM      9  C   UNL     1       7.981  -3.315  23.057  0.00  0.00    +0.029 A 
ATOM     10  C   UNL     1       8.606  -2.102  22.642  0.00  0.00    +0.029 A 
ATOM     11  C   UNL     1       8.736  -1.417  21.420  0.00  0.00    +0.012 A 
ATOM     12  C   UNL     1       9.449  -0.213  21.391  0.00  0.00    +0.002 A 
ATOM     13  C   UNL     1      10.019   0.308  22.556  0.00  0.00    +0.019 A 
ENDROOT
BRANCH   1  14
ATOM     14  C   UNL     1      10.523   0.234  24.998  0.00  0.00    +0.340 C 
ATOM     15  O   UNL     1      11.618   0.775  24.952  0.00  0.00    -0.245 OA
BRANCH  14  16
ATOM     16  O   UNL     1       9.816   0.133  26.140  0.00  0.00    -0.477 OA
ATOM     17  H   UNL     1       8.908  -0.238  26.064  0.00  0.00    +0.295 HD
ENDBRANCH  14  16
ENDBRANCH   1  14
BRANCH   5  18
ATOM     18  C   UNL     1       8.029  -4.514  26.657  0.00  0.00    +0.340 C 
ATOM     19  O   UNL     1       7.152  -4.399  27.494  0.00  0.00    -0.245 OA
BRANCH  18  20
ATOM     20  O   UNL     1       9.333  -4.657  26.976  0.00  0.00    -0.477 OA
ATOM     21  H   UNL     1       9.881  -5.146  26.335  0.00  0.00    +0.295 HD
ENDBRANCH  18  20
ENDBRANCH   5  18
TORSDOF 4
ENDMDL
MODEL 3
REMARK VINA RESULT:      -6.4      2.743      3.789
REMARK  Name = 
REMARK  4 active torsions:
REMARK  status: ('A' for Active; 'I' for Inactive)
REMARK    1  A    between atoms: O_1  and  C_2
REMARK    2  A    between atoms: C_2  and  C_4
REMARK    3  A    between atoms: C_16  and  C_17
REMARK    4  A    between atoms: C_17  and  O_18
REMARK                            x       y       z     vdW  Elec       q    Type
REMARK                         _______ _______ _______ _____ _____    ______ ____
ROOT
ATOM      1  C   UNL     1       7.172  -3.916  22.753  0.00  0.00    +0.102 A 
ATOM      2  C   UNL     1       7.798  -2.731  23.144  0.00  0.00    +0.150 A 
ATOM      3  O   UNL     1       7.521  -1.481  22.674  0.00  0.00    -0.453 OA
ATOM      4  C   UNL     1       8.345  -0.601  23.314  0.00  0.00    +0.150 A 
ATOM      5  C   UNL     1       8.390   0.786  23.130  0.00  0.00    +0.102 A 
ATOM      6  C   UNL     1       9.316   1.498  23.915  0.00  0.00    +0.019 A 
ATOM      7  C   UNL     1      10.168   0.835  24.803  0.00  0.00    +0.002 A 
ATOM      8  C   UNL     1      10.110  -0.556  24.953  0.00  0.00    +0.012 A 
ATOM      9  C   UNL     1       9.174  -1.288  24.197  0.00  0.00    +0.029 A 
ATOM     10  C   UNL     1       8.819  -2.665  24.088  0.00  0.00    +0.029 A 
ATOM     11  C   UNL     1       9.259  -3.858  24.692  0.00  0.00    +0.012 A 
ATOM     12  C   UNL     1       8.659  -5.066  24.321  0.00  0.00    +0.002 A 
ATOM     13  C   UNL     1       7.636  -5.093  23.370  0.00  0.00    +0.019 A 
ENDROOT
BRANCH   1  14
ATOM     14  C   UNL     1       6.090  -3.995  21.750  0.00  0.00    +0.340 C 
ATOM     15  O   UNL     1       5.968  -4.963  21.015  0.00  0.00    -0.245 OA
BRANCH  14  16
ATOM     16  O   UNL     1       5.255  -2.938  21.695  0.00  0.00    -0.477 OA
ATOM     17  H   UNL     1       5.545  -2.123  22.163  0.00  0.00    +0.295 HD
ENDBRANCH  14  16
ENDBRANCH   1  14
BRANCH   5  18
ATOM     18  C   UNL     1       7.444   1.435  22.200  0.00  0.00    +0.340 C 
ATOM     19  O   UNL     1       7.803   2.135  21.270  0.00  0.00    -0.245 OA
BRANCH  18  20
ATOM     20  O   UNL     1       6.145   1.195  22.479  0.00  0.00    -0.477 OA
ATOM     21  H   UNL     1       5.911   0.268  22.671  0.00  0.00    +0.295 HD
ENDBRANCH  18  20
ENDBRANCH   5  18
TORSDOF 4
ENDMDL
MODEL 4
REMARK VINA RESULT:      -6.3      2.673      5.971
REMARK  Name = 
REMARK  4 active torsions:
REMARK  status: ('A' for Active; 'I' for Inactive)
REMARK    1  A    between atoms: O_1  and  C_2
REMARK    2  A    between atoms: C_2  and  C_4
REMARK    3  A    between atoms: C_16  and  C_17
REMARK    4  A    between atoms: C_17  and  O_18
REMARK                            x       y       z     vdW  Elec       q    Type
REMARK                         _______ _______ _______ _____ _____    ______ ____
ROOT
ATOM      1  C   UNL     1       9.348  -0.849  23.524  0.00  0.00    +0.102 A 
ATOM      2  C   UNL     1       8.498  -1.911  23.839  0.00  0.00    +0.150 A 
ATOM      3  O   UNL     1       7.934  -2.781  22.953  0.00  0.00    -0.453 OA
ATOM      4  C   UNL     1       7.180  -3.671  23.662  0.00  0.00    +0.150 A 
ATOM      5  C   UNL     1       6.432  -4.733  23.141  0.00  0.00    +0.102 A 
ATOM      6  C   UNL     1       5.740  -5.533  24.070  0.00  0.00    +0.019 A 
ATOM      7  C   UNL     1       5.779  -5.248  25.437  0.00  0.00    +0.002 A 
ATOM      8  C   UNL     1       6.524  -4.168  25.927  0.00  0.00    +0.012 A 
ATOM      9  C   UNL     1       7.245  -3.367  25.020  0.00  0.00    +0.029 A 
ATOM     10  C   UNL     1       8.099  -2.230  25.134  0.00  0.00    +0.029 A 
ATOM     11  C   UNL     1       8.570  -1.442  26.201  0.00  0.00    +0.012 A 
ATOM     12  C   UNL     1       9.420  -0.365  25.923  0.00  0.00    +0.002 A 
ATOM     13  C   UNL     1       9.800  -0.076  24.610  0.00  0.00    +0.019 A 
ENDROOT
BRANCH   1  14
ATOM     14  C   UNL     1       9.775  -0.503  22.152  0.00  0.00    +0.340 C 
ATOM     15  O   UNL     1       9.832   0.658  21.775  0.00  0.00    -0.245 OA
BRANCH  14  16
ATOM     16  O   UNL     1      10.090  -1.539  21.351  0.00  0.00    -0.477 OA
ATOM     17  H   UNL     1       9.611  -1.594  20.494  0.00  0.00    +0.295 HD
ENDBRANCH  14  16
ENDBRANCH   1  14
BRANCH   5  18
ATOM     18  C   UNL     1       6.453  -5.006  21.690  0.00  0.00    +0.340 C 
ATOM     19  O   UNL     1       7.026  -5.964  21.203  0.00  0.00    -0.245 OA
BRANCH  18  20
ATOM     20  O   UNL     1       5.790  -4.093  20.949  0.00  0.00    -0.477 OA
ATOM     21  H   UNL     1       6.070  -3.166  21.056  0.00  0.00    +0.295 HD
ENDBRANCH  18  20
ENDBRANCH   5  18
TORSDOF 4
ENDMDL
MODEL 5
REMARK VINA RESULT:      -6.3      2.691      6.072
REMARK  Name = 
REMARK  4 active torsions:
REMARK  status: ('A' for Active; 'I' for Inactive)
REMARK    1  A    between atoms: O_1  and  C_2
REMARK    2  A    between atoms: C_2  and  C_4
REMARK    3  A    between atoms: C_16  and  C_17
REMARK    4  A    between atoms: C_17  and  O_18
REMARK                            x       y       z     vdW  Elec       q    Type
REMARK                         _______ _______ _______ _____ _____    ______ ____
ROOT
ATOM      1  C   UNL     1       8.594   0.736  22.959  0.00  0.00    +0.102 A 
ATOM      2  C   UNL     1       8.484  -0.632  23.218  0.00  0.00    +0.150 A 
ATOM      3  O   UNL     1       7.616  -1.498  22.621  0.00  0.00    -0.453 OA
ATOM      4  C   UNL     1       7.834  -2.738  23.147  0.00  0.00    +0.150 A 
ATOM      5  C   UNL     1       7.159  -3.917  22.811  0.00  0.00    +0.102 A 
ATOM      6  C   UNL     1       7.565  -5.089  23.476  0.00  0.00    +0.019 A 
ATOM      7  C   UNL     1       8.569  -5.055  24.448  0.00  0.00    +0.002 A 
ATOM      8  C   UNL     1       9.215  -3.856  24.774  0.00  0.00    +0.012 A 
ATOM      9  C   UNL     1       8.843  -2.674  24.104  0.00  0.00    +0.029 A 
ATOM     10  C   UNL     1       9.265  -1.312  24.148  0.00  0.00    +0.029 A 
ATOM     11  C   UNL     1      10.226  -0.591  24.882  0.00  0.00    +0.012 A 
ATOM     12  C   UNL     1      10.360   0.783  24.654  0.00  0.00    +0.002 A 
ATOM     13  C   UNL     1       9.559   1.432  23.711  0.00  0.00    +0.019 A 
ENDROOT
BRANCH   1  14
ATOM     14  C   UNL     1       7.767   1.466  21.976  0.00  0.00    +0.340 C 
ATOM     15  O   UNL     1       6.639   1.849  22.247  0.00  0.00    -0.245 OA
BRANCH  14  16
ATOM     16  O   UNL     1       8.331   1.677  20.769  0.00  0.00    -0.477 OA
ATOM     17  H   UNL     1       8.503   2.612  20.522  0.00  0.00    +0.295 HD
ENDBRANCH  14  16
ENDBRANCH   1  14
BRANCH   5  18
ATOM     18  C   UNL     1       6.128  -3.899  21.754  0.00  0.00    +0.340 C 
ATOM     19  O   UNL     1       6.024  -4.774  20.912  0.00  0.00    -0.245 OA
BRANCH  18  20
ATOM     20  O   UNL     1       5.315  -2.822  21.796  0.00  0.00    -0.477 OA
ATOM     21  H   UNL     1       4.361  -2.999  21.705  0.00  0.00    +0.295 HD
ENDBRANCH  18  20
ENDBRANCH   5  18
TORSDOF 4
ENDMDL
MODEL 6
REMARK VINA RESULT:      -6.3      2.691      3.813
REMARK  Name = 
REMARK  4 active torsions:
REMARK  status: ('A' for Active; 'I' for Inactive)
REMARK    1  A    between atoms: O_1  and  C_2
REMARK    2  A    between atoms: C_2  and  C_4
REMARK    3  A    between atoms: C_16  and  C_17
REMARK    4  A    between atoms: C_17  and  O_18
REMARK                            x       y       z     vdW  Elec       q    Type
REMARK                         _______ _______ _______ _____ _____    ______ ____
ROOT
ATOM      1  C   UNL     1       6.483  -4.743  23.148  0.00  0.00    +0.102 A 
ATOM      2  C   UNL     1       7.217  -3.671  23.659  0.00  0.00    +0.150 A 
ATOM      3  O   UNL     1       7.953  -2.781  22.934  0.00  0.00    -0.453 OA
ATOM      4  C   UNL     1       8.506  -1.887  23.805  0.00  0.00    +0.150 A 
ATOM      5  C   UNL     1       9.332  -0.806  23.480  0.00  0.00    +0.102 A 
ATOM      6  C   UNL     1       9.776  -0.005  24.549  0.00  0.00    +0.019 A 
ATOM      7  C   UNL     1       9.430  -0.309  25.869  0.00  0.00    +0.002 A 
ATOM      8  C   UNL     1       8.613  -1.408  26.164  0.00  0.00    +0.012 A 
ATOM      9  C   UNL     1       8.136  -2.209  25.109  0.00  0.00    +0.029 A 
ATOM     10  C   UNL     1       7.301  -3.362  25.014  0.00  0.00    +0.029 A 
ATOM     11  C   UNL     1       6.613  -4.171  25.937  0.00  0.00    +0.012 A 
ATOM     12  C   UNL     1       5.871  -5.259  25.462  0.00  0.00    +0.002 A 
ATOM     13  C   UNL     1       5.809  -5.538  24.094  0.00  0.00    +0.019 A 
ENDROOT
BRANCH   1  14
ATOM     14  C   UNL     1       6.390  -5.080  21.712  0.00  0.00    +0.340 C 
ATOM     15  O   UNL     1       6.838  -6.128  21.271  0.00  0.00    -0.245 OA
BRANCH  14  16
ATOM     16  O   UNL     1       5.790  -4.164  20.927  0.00  0.00    -0.477 OA
ATOM     17  H   UNL     1       5.187  -4.508  20.231  0.00  0.00    +0.295 HD
ENDBRANCH  14  16
ENDBRANCH   1  14
BRANCH   5  18
ATOM     18  C   UNL     1       9.640  -0.515  22.065  0.00  0.00    +0.340 C 
ATOM     19  O   UNL     1       9.422   0.565  21.547  0.00  0.00    -0.245 OA
BRANCH  18  20
ATOM     20  O   UNL     1      10.175  -1.556  21.393  0.00  0.00    -0.477 OA
ATOM     21  H   UNL     1      10.318  -1.424  20.437  0.00  0.00    +0.295 HD
ENDBRANCH  18  20
ENDBRANCH   5  18
TORSDOF 4
ENDMDL
MODEL 7
REMARK VINA RESULT:      -6.1      3.746      5.771
REMARK  Name = 
REMARK  4 active torsions:
REMARK  status: ('A' for Active; 'I' for Inactive)
REMARK    1  A    between atoms: O_1  and  C_2
REMARK    2  A    between atoms: C_2  and  C_4
REMARK    3  A    between atoms: C_16  and  C_17
REMARK    4  A    between atoms: C_17  and  O_18
REMARK                            x       y       z     vdW  Elec       q    Type
REMARK                         _______ _______ _______ _____ _____    ______ ____
ROOT
ATOM      1  C   UNL     1       5.162  -6.505  28.036  0.00  0.00    +0.102 A 
ATOM      2  C   UNL     1       5.544  -6.134  26.745  0.00  0.00    +0.150 A 
ATOM      3  O   UNL     1       6.799  -5.778  26.348  0.00  0.00    -0.453 OA
ATOM      4  C   UNL     1       6.752  -5.497  25.013  0.00  0.00    +0.150 A 
ATOM      5  C   UNL     1       7.822  -5.093  24.206  0.00  0.00    +0.102 A 
ATOM      6  C   UNL     1       7.538  -4.872  22.845  0.00  0.00    +0.019 A 
ATOM      7  C   UNL     1       6.241  -5.017  22.346  0.00  0.00    +0.002 A 
ATOM      8  C   UNL     1       5.188  -5.408  23.183  0.00  0.00    +0.012 A 
ATOM      9  C   UNL     1       5.451  -5.659  24.543  0.00  0.00    +0.029 A 
ATOM     10  C   UNL     1       4.670  -6.072  25.663  0.00  0.00    +0.029 A 
ATOM     11  C   UNL     1       3.317  -6.399  25.867  0.00  0.00    +0.012 A 
ATOM     12  C   UNL     1       2.896  -6.769  27.149  0.00  0.00    +0.002 A 
ATOM     13  C   UNL     1       3.802  -6.820  28.212  0.00  0.00    +0.019 A 
ENDROOT
BRANCH   1  14
ATOM     14  C   UNL     1       6.082  -6.570  29.190  0.00  0.00    +0.340 C 
ATOM     15  O   UNL     1       6.788  -7.547  29.391  0.00  0.00    -0.245 OA
BRANCH  14  16
ATOM     16  O   UNL     1       6.090  -5.495  30.003  0.00  0.00    -0.477 OA
ATOM     17  H   UNL     1       6.675  -5.544  30.792  0.00  0.00    +0.295 HD
ENDBRANCH  14  16
ENDBRANCH   1  14
BRANCH   5  18
ATOM     18  C   UNL     1       9.177  -4.986  24.782  0.00  0.00    +0.340 C 
ATOM     19  O   UNL     1       9.926  -4.054  24.549  0.00  0.00    -0.245 OA
BRANCH  18  20
ATOM     20  O   UNL     1       9.519  -6.018  25.582  0.00  0.00    -0.477 OA
ATOM     21  H   UNL     1      10.278  -6.556  25.290  0.00  0.00    +0.295 HD
ENDBRANCH  18  20
ENDBRANCH   5  18
TORSDOF 4
ENDMDL
MODEL 8
REMARK VINA RESULT:      -6.0      4.771      8.324
REMARK  Name = 
REMARK  4 active torsions:
REMARK  status: ('A' for Active; 'I' for Inactive)
REMARK    1  A    between atoms: O_1  and  C_2
REMARK    2  A    between atoms: C_2  and  C_4
REMARK    3  A    between atoms: C_16  and  C_17
REMARK    4  A    between atoms: C_17  and  O_18
REMARK                            x       y       z     vdW  Elec       q    Type
REMARK                         _______ _______ _______ _____ _____    ______ ____
ROOT
ATOM      1  C   UNL     1      12.007   5.662  23.753  0.00  0.00    +0.102 A 
ATOM      2  C   UNL     1      10.839   4.904  23.847  0.00  0.00    +0.150 A 
ATOM      3  O   UNL     1      10.539   3.793  23.115  0.00  0.00    -0.453 OA
ATOM      4  C   UNL     1       9.312   3.347  23.515  0.00  0.00    +0.150 A 
ATOM      5  C   UNL     1       8.628   2.231  23.020  0.00  0.00    +0.102 A 
ATOM      6  C   UNL     1       7.374   1.953  23.596  0.00  0.00    +0.019 A 
ATOM      7  C   UNL     1       6.836   2.780  24.586  0.00  0.00    +0.002 A 
ATOM      8  C   UNL     1       7.538   3.899  25.049  0.00  0.00    +0.012 A 
ATOM      9  C   UNL     1       8.806   4.185  24.506  0.00  0.00    +0.029 A 
ATOM     10  C   UNL     1       9.794   5.190  24.722  0.00  0.00    +0.029 A 
ATOM     11  C   UNL     1       9.907   6.309  25.567  0.00  0.00    +0.012 A 
ATOM     12  C   UNL     1      11.062   7.097  25.497  0.00  0.00    +0.002 A 
ATOM     13  C   UNL     1      12.091   6.778  24.606  0.00  0.00    +0.019 A 
ENDROOT
BRANCH   1  14
ATOM     14  C   UNL     1      13.120   5.367  22.826  0.00  0.00    +0.340 C 
ATOM     15  O   UNL     1      12.988   5.473  21.616  0.00  0.00    -0.245 OA
BRANCH  14  16
ATOM     16  O   UNL     1      14.276   4.972  23.395  0.00  0.00    -0.477 OA
ATOM     17  H   UNL     1      15.098   5.142  22.884  0.00  0.00    +0.295 HD
ENDBRANCH  14  16
ENDBRANCH   1  14
BRANCH   5  18
ATOM     18  C   UNL     1       9.259   1.376  21.995  0.00  0.00    +0.340 C 
ATOM     19  O   UNL     1      10.225   0.670  22.223  0.00  0.00    -0.245 OA
BRANCH  18  20
ATOM     20  O   UNL     1       8.677   1.453  20.780  0.00  0.00    -0.477 OA
ATOM     21  H   UNL     1       8.778   2.300  20.307  0.00  0.00    +0.295 HD
ENDBRANCH  18  20
ENDBRANCH   5  18
TORSDOF 4
ENDMDL
MODEL 9
REMARK VINA RESULT:      -6.0      3.994      5.958
REMARK  Name = 
REMARK  4 active torsions:
REMARK  status: ('A' for Active; 'I' for Inactive)
REMARK    1  A    between atoms: O_1  and  C_2
REMARK    2  A    between atoms: C_2  and  C_4
REMARK    3  A    between atoms: C_16  and  C_17
REMARK    4  A    between atoms: C_17  and  O_18
REMARK                            x       y       z     vdW  Elec       q    Type
REMARK                         _______ _______ _______ _____ _____    ______ ____
ROOT
ATOM      1  C   UNL     1       4.643  -6.717  26.143  0.00  0.00    +0.102 A 
ATOM      2  C   UNL     1       5.562  -5.881  25.506  0.00  0.00    +0.150 A 
ATOM      3  O   UNL     1       5.597  -5.591  24.174  0.00  0.00    -0.453 OA
ATOM      4  C   UNL     1       6.639  -4.734  23.961  0.00  0.00    +0.150 A 
ATOM      5  C   UNL     1       7.029  -4.184  22.735  0.00  0.00    +0.102 A 
ATOM      6  C   UNL     1       8.130  -3.308  22.757  0.00  0.00    +0.019 A 
ATOM      7  C   UNL     1       8.812  -3.038  23.947  0.00  0.00    +0.002 A 
ATOM      8  C   UNL     1       8.406  -3.616  25.156  0.00  0.00    +0.012 A 
ATOM      9  C   UNL     1       7.292  -4.477  25.164  0.00  0.00    +0.029 A 
ATOM     10  C   UNL     1       6.594  -5.218  26.163  0.00  0.00    +0.029 A 
ATOM     11  C   UNL     1       6.735  -5.392  27.553  0.00  0.00    +0.012 A 
ATOM     12  C   UNL     1       5.835  -6.227  28.224  0.00  0.00    +0.002 A 
ATOM     13  C   UNL     1       4.810  -6.877  27.532  0.00  0.00    +0.019 A 
ENDROOT
BRANCH   1  14
ATOM     14  C   UNL     1       3.545  -7.427  25.454  0.00  0.00    +0.340 C 
ATOM     15  O   UNL     1       2.457  -7.591  25.984  0.00  0.00    -0.245 OA
BRANCH  14  16
ATOM     16  O   UNL     1       3.820  -7.882  24.215  0.00  0.00    -0.477 OA
ATOM     17  H   UNL     1       3.056  -8.192  23.680  0.00  0.00    +0.295 HD
ENDBRANCH  14  16
ENDBRANCH   1  14
BRANCH   5  18
ATOM     18  C   UNL     1       6.252  -4.481  21.514  0.00  0.00    +0.340 C 
ATOM     19  O   UNL     1       5.599  -3.641  20.923  0.00  0.00    -0.245 OA
BRANCH  18  20
ATOM     20  O   UNL     1       6.321  -5.770  21.118  0.00  0.00    -0.477 OA
ATOM     21  H   UNL     1       6.310  -6.439  21.826  0.00  0.00    +0.295 HD
ENDBRANCH  18  20
ENDBRANCH   5  18
TORSDOF 4
ENDMDL
