MODEL 1
REMARK VINA RESULT:      -5.8      0.000      0.000
REMARK  Name = 
REMARK  18 active torsions:
REMARK  status: ('A' for Active; 'I' for Inactive)
REMARK    1  A    between atoms: N_1  and  C_2
REMARK    2  A    between atoms: C_2  and  C_4
REMARK    3  A    between atoms: C_2  and  C_32
REMARK    4  A    between atoms: C_4  and  C_5
REMARK    5  A    between atoms: C_5  and  C_6
REMARK    6  A    between atoms: N_8  and  C_9
REMARK    7  A    between atoms: C_9  and  C_11
REMARK    8  A    between atoms: C_9  and  C_25
REMARK    9  A    between atoms: C_11  and  S_12
REMARK   10  A    between atoms: S_12  and  C_13
REMARK   11  A    between atoms: C_13  and  O_15
REMARK   12  A    between atoms: C_13  and  N_16
REMARK   13  A    between atoms: N_16  and  O_17
REMARK   14  A    between atoms: N_16  and  C_18
REMARK   15  A    between atoms: N_27  and  CA_28
REMARK   16  A    between atoms: CA_28  and  C_29
REMARK   17  A    between atoms: C_29  and  O_30
REMARK   18  A    between atoms: C_32  and  O_33
REMARK                            x       y       z     vdW  Elec       q    Type
REMARK                         _______ _______ _______ _____ _____    ______ ____
ROOT
ATOM      1  C   UNK A   1       8.939  -2.083  25.375  0.00  0.00    +0.169 C 
ENDROOT
BRANCH   1   3
ATOM      2  C   UNK A   1       8.524  -4.403  24.433  0.00  0.00    +0.214 C 
ATOM      3  N   UNK A   1       8.111  -3.134  24.751  0.00  0.00    -0.303 N 
ATOM      4  H   UNK A   1       7.193  -2.839  24.444  0.00  0.00    +0.149 HD
ATOM      5  O   UNK A   1       9.665  -4.793  24.648  0.00  0.00    -0.276 OA
BRANCH   2   6
ATOM      6  C   UNK A   1       7.447  -5.287  23.843  0.00  0.00    +0.098 C 
BRANCH   6   7
ATOM      7  C   UNK A   1       7.210  -5.103  22.328  0.00  0.00    +0.039 C 
BRANCH   7   8
ATOM      8  C   UNK A   1       6.247  -3.985  21.904  0.00  0.00    +0.161 C 
BRANCH   8   9
ATOM      9  N   UNK A   1       6.863  -2.620  21.974  0.00  0.00    -0.318 NA
ATOM     10  H   UNK A   1       6.208  -1.902  21.663  0.00  0.00    +0.119 HD
ATOM     11  H   UNK A   1       7.008  -2.398  22.966  0.00  0.00    +0.119 HD
ENDBRANCH   8   9
BRANCH   8  12
ATOM     12  C   UNK A   1       5.005  -3.969  22.797  0.00  0.00    +0.322 C 
ATOM     13  O   UNK A   1       4.070  -4.746  22.802  0.00  0.00    -0.249 OA
BRANCH  12  14
ATOM     14  O   UNK A   1       5.098  -2.926  23.666  0.00  0.00    -0.480 OA
ATOM     15  H   UNK A   1       4.897  -2.124  23.107  0.00  0.00    +0.295 HD
ENDBRANCH  12  14
ENDBRANCH   8  12
ENDBRANCH   7   8
ENDBRANCH   6   7
ENDBRANCH   2   6
ENDBRANCH   1   3
BRANCH   1  16
ATOM     16  C   UNK A   1       9.637  -1.166  24.337  0.00  0.00    +0.235 C 
ATOM     17  N   GLY A   2       9.206  -1.210  23.023  0.00  0.00    -0.303 N 
ATOM     18  H   GLY A   2       8.679  -2.032  22.737  0.00  0.00    +0.149 HD
ATOM     19  O   UNK A   1      10.481  -0.348  24.705  0.00  0.00    -0.274 OA
BRANCH  17  20
ATOM     20  CA  GLY A   2       9.950  -0.445  22.018  0.00  0.00    +0.224 C 
BRANCH  20  21
ATOM     21  C   GLY A   2       9.663   1.028  21.695  0.00  0.00    +0.322 C 
ATOM     22  OXT GLY A   2      10.275   1.947  22.228  0.00  0.00    -0.249 OA
BRANCH  21  23
ATOM     23  O   GLY A   2       8.643   1.280  20.854  0.00  0.00    -0.480 OA
ATOM     24  H   GLY A   2       7.785   0.916  21.162  0.00  0.00    +0.295 HD
ENDBRANCH  21  23
ENDBRANCH  20  21
ENDBRANCH  17  20
ENDBRANCH   1  16
BRANCH   1  25
ATOM     25  C   UNK A   1       8.291  -1.191  26.449  0.00  0.00    +0.105 C 
BRANCH  25  26
ATOM     26  S   UNK A   1       6.475  -1.395  26.624  0.00  0.00    -0.104 S 
BRANCH  26  27
ATOM     27  C   UNK A   1       6.004   0.210  25.886  0.00  0.00    +0.299 C 
BRANCH  27  28
ATOM     28  O   UNK A   1       4.624   0.205  25.590  0.00  0.00    -0.362 OA
ATOM     29  H   UNK A   1       4.251   0.305  26.487  0.00  0.00    +0.213 HD
ENDBRANCH  27  28
BRANCH  27  30
ATOM     30  N   UNK A   1       6.727   0.438  24.622  0.00  0.00    -0.217 N 
BRANCH  30  31
ATOM     31  C   UNK A   1       7.184   1.754  24.355  0.00  0.00    +0.068 A 
ATOM     32  C   UNK A   1       6.623   2.498  23.299  0.00  0.00    +0.029 A 
ATOM     33  C   UNK A   1       7.006   3.822  23.039  0.00  0.00    +0.016 A 
ATOM     34  C   UNK A   1       7.980   4.423  23.826  0.00  0.00    +0.014 A 
ATOM     35  I   UNK A   1       8.499   6.408  23.518  0.00  0.00    -0.044 I 
ATOM     36  C   UNK A   1       8.602   3.693  24.832  0.00  0.00    +0.016 A 
ATOM     37  C   UNK A   1       8.218   2.368  25.079  0.00  0.00    +0.029 A 
ENDBRANCH  30  31
BRANCH  30  38
ATOM     38  O   UNK A   1       6.133  -0.267  23.552  0.00  0.00    -0.284 OA
ATOM     39  H   UNK A   1       5.275  -0.543  23.930  0.00  0.00    +0.245 HD
ENDBRANCH  30  38
ENDBRANCH  27  30
ENDBRANCH  26  27
ENDBRANCH  25  26
ENDBRANCH   1  25
TORSDOF 18
ENDMDL
MODEL 2
REMARK VINA RESULT:      -5.7      3.054      4.745
REMARK  Name = 
REMARK  18 active torsions:
REMARK  status: ('A' for Active; 'I' for Inactive)
REMARK    1  A    between atoms: N_1  and  C_2
REMARK    2  A    between atoms: C_2  and  C_4
REMARK    3  A    between atoms: C_2  and  C_32
REMARK    4  A    between atoms: C_4  and  C_5
REMARK    5  A    between atoms: C_5  and  C_6
REMARK    6  A    between atoms: N_8  and  C_9
REMARK    7  A    between atoms: C_9  and  C_11
REMARK    8  A    between atoms: C_9  and  C_25
REMARK    9  A    between atoms: C_11  and  S_12
REMARK   10  A    between atoms: S_12  and  C_13
REMARK   11  A    between atoms: C_13  and  O_15
REMARK   12  A    between atoms: C_13  and  N_16
REMARK   13  A    between atoms: N_16  and  O_17
REMARK   14  A    between atoms: N_16  and  C_18
REMARK   15  A    between atoms: N_27  and  CA_28
REMARK   16  A    between atoms: CA_28  and  C_29
REMARK   17  A    between atoms: C_29  and  O_30
REMARK   18  A    between atoms: C_32  and  O_33
REMARK                            x       y       z     vdW  Elec       q    Type
REMARK                         _______ _______ _______ _____ _____    ______ ____
ROOT
ATOM      1  C   UNK A   1       7.815  -3.834  25.747  0.00  0.00    +0.169 C 
ENDROOT
BRANCH   1   3
ATOM      2  C   UNK A   1       6.634  -5.218  27.517  0.00  0.00    +0.214 C 
ATOM      3  N   UNK A   1       6.650  -4.235  26.561  0.00  0.00    -0.303 N 
ATOM      4  H   UNK A   1       5.771  -3.804  26.303  0.00  0.00    +0.149 HD
ATOM      5  O   UNK A   1       7.627  -5.881  27.792  0.00  0.00    -0.276 OA
BRANCH   2   6
ATOM      6  C   UNK A   1       5.309  -5.384  28.230  0.00  0.00    +0.098 C 
BRANCH   6   7
ATOM      7  C   UNK A   1       4.570  -6.707  27.934  0.00  0.00    +0.039 C 
BRANCH   7   8
ATOM      8  C   UNK A   1       3.487  -6.673  26.846  0.00  0.00    +0.161 C 
BRANCH   8   9
ATOM      9  N   UNK A   1       2.340  -7.596  27.130  0.00  0.00    -0.318 NA
ATOM     10  H   UNK A   1       1.451  -7.092  27.124  0.00  0.00    +0.119 HD
ATOM     11  H   UNK A   1       2.256  -8.239  26.335  0.00  0.00    +0.119 HD
ENDBRANCH   8   9
BRANCH   8  12
ATOM     12  C   UNK A   1       4.067  -7.075  25.489  0.00  0.00    +0.322 C 
ATOM     13  O   UNK A   1       4.962  -6.540  24.864  0.00  0.00    -0.249 OA
BRANCH  12  14
ATOM     14  O   UNK A   1       3.438  -8.200  25.054  0.00  0.00    -0.480 OA
ATOM     15  H   UNK A   1       2.472  -8.024  25.233  0.00  0.00    +0.295 HD
ENDBRANCH  12  14
ENDBRANCH   8  12
ENDBRANCH   7   8
ENDBRANCH   6   7
ENDBRANCH   2   6
ENDBRANCH   1   3
BRANCH   1  16
ATOM     16  C   UNK A   1       7.989  -4.700  24.473  0.00  0.00    +0.235 C 
ATOM     17  N   GLY A   2       7.066  -4.563  23.451  0.00  0.00    -0.303 N 
ATOM     18  H   GLY A   2       6.170  -4.145  23.691  0.00  0.00    +0.149 HD
ATOM     19  O   UNK A   1       8.986  -5.411  24.340  0.00  0.00    -0.274 OA
BRANCH  17  20
ATOM     20  CA  GLY A   2       7.152  -5.473  22.305  0.00  0.00    +0.224 C 
BRANCH  20  21
ATOM     21  C   GLY A   2       5.965  -5.783  21.381  0.00  0.00    +0.322 C 
ATOM     22  OXT GLY A   2       6.021  -5.623  20.168  0.00  0.00    -0.249 OA
BRANCH  21  23
ATOM     23  O   GLY A   2       4.818  -6.163  21.972  0.00  0.00    -0.480 OA
ATOM     24  H   GLY A   2       4.159  -5.439  22.047  0.00  0.00    +0.295 HD
ENDBRANCH  21  23
ENDBRANCH  20  21
ENDBRANCH  17  20
ENDBRANCH   1  16
BRANCH   1  25
ATOM     25  C   UNK A   1       7.947  -2.354  25.348  0.00  0.00    +0.105 C 
BRANCH  25  26
ATOM     26  S   UNK A   1       9.413  -1.963  24.314  0.00  0.00    -0.104 S 
BRANCH  26  27
ATOM     27  C   UNK A   1       8.505  -1.157  22.948  0.00  0.00    +0.299 C 
BRANCH  27  28
ATOM     28  O   UNK A   1       8.123  -2.129  21.997  0.00  0.00    -0.362 OA
ATOM     29  H   UNK A   1       8.995  -2.365  21.628  0.00  0.00    +0.213 HD
ENDBRANCH  27  28
BRANCH  27  30
ATOM     30  N   UNK A   1       9.361  -0.175  22.257  0.00  0.00    -0.217 N 
BRANCH  30  31
ATOM     31  C   UNK A   1       9.140   1.199  22.535  0.00  0.00    +0.068 A 
ATOM     32  C   UNK A   1       8.055   1.876  21.945  0.00  0.00    +0.029 A 
ATOM     33  C   UNK A   1       7.769   3.217  22.239  0.00  0.00    +0.016 A 
ATOM     34  C   UNK A   1       8.584   3.916  23.121  0.00  0.00    +0.014 A 
ATOM     35  I   UNK A   1       8.130   5.873  23.641  0.00  0.00    -0.044 I 
ATOM     36  C   UNK A   1       9.702   3.297  23.666  0.00  0.00    +0.016 A 
ATOM     37  C   UNK A   1       9.984   1.958  23.360  0.00  0.00    +0.029 A 
ENDBRANCH  30  31
BRANCH  30  38
ATOM     38  O   UNK A   1       9.573  -0.532  20.907  0.00  0.00    -0.284 OA
ATOM     39  H   UNK A   1      10.018  -1.399  20.985  0.00  0.00    +0.245 HD
ENDBRANCH  30  38
ENDBRANCH  27  30
ENDBRANCH  26  27
ENDBRANCH  25  26
ENDBRANCH   1  25
TORSDOF 18
ENDMDL
MODEL 3
REMARK VINA RESULT:      -5.6      2.707      5.566
REMARK  Name = 
REMARK  18 active torsions:
REMARK  status: ('A' for Active; 'I' for Inactive)
REMARK    1  A    between atoms: N_1  and  C_2
REMARK    2  A    between atoms: C_2  and  C_4
REMARK    3  A    between atoms: C_2  and  C_32
REMARK    4  A    between atoms: C_4  and  C_5
REMARK    5  A    between atoms: C_5  and  C_6
REMARK    6  A    between atoms: N_8  and  C_9
REMARK    7  A    between atoms: C_9  and  C_11
REMARK    8  A    between atoms: C_9  and  C_25
REMARK    9  A    between atoms: C_11  and  S_12
REMARK   10  A    between atoms: S_12  and  C_13
REMARK   11  A    between atoms: C_13  and  O_15
REMARK   12  A    between atoms: C_13  and  N_16
REMARK   13  A    between atoms: N_16  and  O_17
REMARK   14  A    between atoms: N_16  and  C_18
REMARK   15  A    between atoms: N_27  and  CA_28
REMARK   16  A    between atoms: CA_28  and  C_29
REMARK   17  A    between atoms: C_29  and  O_30
REMARK   18  A    between atoms: C_32  and  O_33
REMARK                            x       y       z     vdW  Elec       q    Type
REMARK                         _______ _______ _______ _____ _____    ______ ____
ROOT
ATOM      1  C   UNK A   1       6.843  -4.344  22.906  0.00  0.00    +0.169 C 
ENDROOT
BRANCH   1   3
ATOM      2  C   UNK A   1       8.388  -4.188  24.914  0.00  0.00    +0.214 C 
ATOM      3  N   UNK A   1       7.143  -4.315  24.352  0.00  0.00    -0.303 N 
ATOM      4  H   UNK A   1       6.361  -4.513  24.962  0.00  0.00    +0.149 HD
ATOM      5  O   UNK A   1       9.405  -4.082  24.238  0.00  0.00    -0.276 OA
BRANCH   2   6
ATOM      6  C   UNK A   1       8.395  -4.142  26.427  0.00  0.00    +0.098 C 
BRANCH   6   7
ATOM      7  C   UNK A   1       7.675  -5.321  27.118  0.00  0.00    +0.039 C 
BRANCH   7   8
ATOM      8  C   UNK A   1       6.300  -5.032  27.738  0.00  0.00    +0.161 C 
BRANCH   8   9
ATOM      9  N   UNK A   1       6.202  -5.458  29.172  0.00  0.00    -0.318 NA
ATOM     10  H   UNK A   1       6.098  -4.651  29.790  0.00  0.00    +0.119 HD
ATOM     11  H   UNK A   1       5.314  -5.961  29.284  0.00  0.00    +0.119 HD
ENDBRANCH   8   9
BRANCH   8  12
ATOM     12  C   UNK A   1       5.194  -5.759  26.971  0.00  0.00    +0.322 C 
ATOM     13  O   UNK A   1       3.995  -5.731  27.170  0.00  0.00    -0.249 OA
BRANCH  12  14
ATOM     14  O   UNK A   1       5.752  -6.461  25.948  0.00  0.00    -0.480 OA
ATOM     15  H   UNK A   1       6.226  -7.214  26.399  0.00  0.00    +0.295 HD
ENDBRANCH  12  14
ENDBRANCH   8  12
ENDBRANCH   7   8
ENDBRANCH   6   7
ENDBRANCH   2   6
ENDBRANCH   1   3
BRANCH   1  16
ATOM     16  C   UNK A   1       5.527  -5.094  22.576  0.00  0.00    +0.235 C 
ATOM     17  N   GLY A   2       4.447  -4.937  23.426  0.00  0.00    -0.303 N 
ATOM     18  H   GLY A   2       4.643  -4.596  24.365  0.00  0.00    +0.149 HD
ATOM     19  O   UNK A   1       5.424  -5.728  21.525  0.00  0.00    -0.274 OA
BRANCH  17  20
ATOM     20  CA  GLY A   2       3.248  -5.746  23.190  0.00  0.00    +0.224 C 
BRANCH  20  21
ATOM     21  C   GLY A   2       2.876  -6.973  24.036  0.00  0.00    +0.322 C 
ATOM     22  OXT GLY A   2       1.791  -7.078  24.595  0.00  0.00    -0.249 OA
BRANCH  21  23
ATOM     23  O   GLY A   2       3.832  -7.903  24.211  0.00  0.00    -0.480 OA
ATOM     24  H   GLY A   2       4.635  -7.744  23.669  0.00  0.00    +0.295 HD
ENDBRANCH  21  23
ENDBRANCH  20  21
ENDBRANCH  17  20
ENDBRANCH   1  16
BRANCH   1  25
ATOM     25  C   UNK A   1       6.845  -3.010  22.139  0.00  0.00    +0.105 C 
BRANCH  25  26
ATOM     26  S   UNK A   1       6.725  -1.514  23.197  0.00  0.00    -0.104 S 
BRANCH  26  27
ATOM     27  C   UNK A   1       8.360  -0.816  22.770  0.00  0.00    +0.299 C 
BRANCH  27  28
ATOM     28  O   UNK A   1       9.182  -1.833  22.239  0.00  0.00    -0.362 OA
ATOM     29  H   UNK A   1       9.944  -1.778  22.847  0.00  0.00    +0.213 HD
ENDBRANCH  27  28
BRANCH  27  30
ATOM     30  N   UNK A   1       9.032  -0.284  23.970  0.00  0.00    -0.217 N 
BRANCH  30  31
ATOM     31  C   UNK A   1       9.239   1.117  24.040  0.00  0.00    +0.068 A 
ATOM     32  C   UNK A   1      10.360   1.701  23.417  0.00  0.00    +0.029 A 
ATOM     33  C   UNK A   1      10.569   3.087  23.414  0.00  0.00    +0.016 A 
ATOM     34  C   UNK A   1       9.662   3.920  24.056  0.00  0.00    +0.014 A 
ATOM     35  I   UNK A   1       9.901   5.981  23.989  0.00  0.00    -0.044 I 
ATOM     36  C   UNK A   1       8.582   3.371  24.738  0.00  0.00    +0.016 A 
ATOM     37  C   UNK A   1       8.386   1.983  24.742  0.00  0.00    +0.029 A 
ENDBRANCH  30  31
BRANCH  30  38
ATOM     38  O   UNK A   1      10.102  -1.113  24.374  0.00  0.00    -0.284 OA
ATOM     39  H   UNK A   1      10.208  -1.711  23.607  0.00  0.00    +0.245 HD
ENDBRANCH  30  38
ENDBRANCH  27  30
ENDBRANCH  26  27
ENDBRANCH  25  26
ENDBRANCH   1  25
TORSDOF 18
ENDMDL
MODEL 4
REMARK VINA RESULT:      -5.4      2.393      4.367
REMARK  Name = 
REMARK  18 active torsions:
REMARK  status: ('A' for Active; 'I' for Inactive)
REMARK    1  A    between atoms: N_1  and  C_2
REMARK    2  A    between atoms: C_2  and  C_4
REMARK    3  A    between atoms: C_2  and  C_32
REMARK    4  A    between atoms: C_4  and  C_5
REMARK    5  A    between atoms: C_5  and  C_6
REMARK    6  A    between atoms: N_8  and  C_9
REMARK    7  A    between atoms: C_9  and  C_11
REMARK    8  A    between atoms: C_9  and  C_25
REMARK    9  A    between atoms: C_11  and  S_12
REMARK   10  A    between atoms: S_12  and  C_13
REMARK   11  A    between atoms: C_13  and  O_15
REMARK   12  A    between atoms: C_13  and  N_16
REMARK   13  A    between atoms: N_16  and  O_17
REMARK   14  A    between atoms: N_16  and  C_18
REMARK   15  A    between atoms: N_27  and  CA_28
REMARK   16  A    between atoms: CA_28  and  C_29
REMARK   17  A    between atoms: C_29  and  O_30
REMARK   18  A    between atoms: C_32  and  O_33
REMARK                            x       y       z     vdW  Elec       q    Type
REMARK                         _______ _______ _______ _____ _____    ______ ____
ROOT
ATOM      1  C   UNK A   1       5.851  -2.091  23.631  0.00  0.00    +0.169 C 
ENDROOT
BRANCH   1   3
ATOM      2  C   UNK A   1       5.225  -4.536  23.907  0.00  0.00    +0.214 C 
ATOM      3  N   UNK A   1       5.807  -3.377  24.356  0.00  0.00    -0.303 N 
ATOM      4  H   UNK A   1       6.151  -3.352  25.307  0.00  0.00    +0.149 HD
ATOM      5  O   UNK A   1       4.665  -4.609  22.820  0.00  0.00    -0.276 OA
BRANCH   2   6
ATOM      6  C   UNK A   1       5.372  -5.718  24.840  0.00  0.00    +0.098 C 
BRANCH   6   7
ATOM      7  C   UNK A   1       5.767  -5.359  26.289  0.00  0.00    +0.039 C 
BRANCH   7   8
ATOM      8  C   UNK A   1       7.204  -5.687  26.721  0.00  0.00    +0.161 C 
BRANCH   8   9
ATOM      9  N   UNK A   1       7.285  -6.265  28.102  0.00  0.00    -0.318 NA
ATOM     10  H   UNK A   1       6.762  -7.140  28.167  0.00  0.00    +0.119 HD
ATOM     11  H   UNK A   1       8.257  -6.555  28.259  0.00  0.00    +0.119 HD
ENDBRANCH   8   9
BRANCH   8  12
ATOM     12  C   UNK A   1       8.078  -4.431  26.703  0.00  0.00    +0.322 C 
ATOM     13  O   UNK A   1       7.739  -3.280  26.506  0.00  0.00    -0.249 OA
BRANCH  12  14
ATOM     14  O   UNK A   1       9.361  -4.781  26.988  0.00  0.00    -0.480 OA
ATOM     15  H   UNK A   1       9.893  -3.971  26.748  0.00  0.00    +0.295 HD
ENDBRANCH  12  14
ENDBRANCH   8  12
ENDBRANCH   7   8
ENDBRANCH   6   7
ENDBRANCH   2   6
ENDBRANCH   1   3
BRANCH   1  16
ATOM     16  C   UNK A   1       5.644  -0.866  24.560  0.00  0.00    +0.235 C 
ATOM     17  N   GLY A   2       6.225   0.338  24.203  0.00  0.00    -0.303 N 
ATOM     18  H   GLY A   2       6.992   0.301  23.534  0.00  0.00    +0.149 HD
ATOM     19  O   UNK A   1       4.893  -0.948  25.532  0.00  0.00    -0.274 OA
BRANCH  17  20
ATOM     20  CA  GLY A   2       6.143   1.459  25.143  0.00  0.00    +0.224 C 
BRANCH  20  21
ATOM     21  C   GLY A   2       7.254   1.807  26.143  0.00  0.00    +0.322 C 
ATOM     22  OXT GLY A   2       7.425   2.945  26.563  0.00  0.00    -0.249 OA
BRANCH  21  23
ATOM     23  O   GLY A   2       8.098   0.816  26.484  0.00  0.00    -0.480 OA
ATOM     24  H   GLY A   2       7.659   0.072  26.950  0.00  0.00    +0.295 HD
ENDBRANCH  21  23
ENDBRANCH  20  21
ENDBRANCH  17  20
ENDBRANCH   1  16
BRANCH   1  25
ATOM     25  C   UNK A   1       7.061  -1.811  22.724  0.00  0.00    +0.105 C 
BRANCH  25  26
ATOM     26  S   UNK A   1       8.398  -3.066  22.814  0.00  0.00    -0.104 S 
BRANCH  26  27
ATOM     27  C   UNK A   1       9.613  -2.026  23.698  0.00  0.00    +0.299 C 
BRANCH  27  28
ATOM     28  O   UNK A   1       8.952  -1.268  24.689  0.00  0.00    -0.362 OA
ATOM     29  H   UNK A   1       9.615  -1.300  25.405  0.00  0.00    +0.213 HD
ENDBRANCH  27  28
BRANCH  27  30
ATOM     30  N   UNK A   1      10.263  -1.078  22.775  0.00  0.00    -0.217 N 
BRANCH  30  31
ATOM     31  C   UNK A   1       9.993   0.303  22.955  0.00  0.00    +0.068 A 
ATOM     32  C   UNK A   1       9.086   0.965  22.104  0.00  0.00    +0.029 A 
ATOM     33  C   UNK A   1       8.749   2.314  22.285  0.00  0.00    +0.016 A 
ATOM     34  C   UNK A   1       9.334   3.036  23.318  0.00  0.00    +0.014 A 
ATOM     35  I   UNK A   1       8.784   5.007  23.660  0.00  0.00    -0.044 I 
ATOM     36  C   UNK A   1      10.284   2.431  24.132  0.00  0.00    +0.016 A 
ATOM     37  C   UNK A   1      10.619   1.084  23.938  0.00  0.00    +0.029 A 
ENDBRANCH  30  31
BRANCH  30  38
ATOM     38  O   UNK A   1      10.266  -1.566  21.450  0.00  0.00    -0.284 OA
ATOM     39  H   UNK A   1      11.210  -1.769  21.300  0.00  0.00    +0.245 HD
ENDBRANCH  30  38
ENDBRANCH  27  30
ENDBRANCH  26  27
ENDBRANCH  25  26
ENDBRANCH   1  25
TORSDOF 18
ENDMDL
MODEL 5
REMARK VINA RESULT:      -5.4      2.864      4.344
REMARK  Name = 
REMARK  18 active torsions:
REMARK  status: ('A' for Active; 'I' for Inactive)
REMARK    1  A    between atoms: N_1  and  C_2
REMARK    2  A    between atoms: C_2  and  C_4
REMARK    3  A    between atoms: C_2  and  C_32
REMARK    4  A    between atoms: C_4  and  C_5
REMARK    5  A    between atoms: C_5  and  C_6
REMARK    6  A    between atoms: N_8  and  C_9
REMARK    7  A    between atoms: C_9  and  C_11
REMARK    8  A    between atoms: C_9  and  C_25
REMARK    9  A    between atoms: C_11  and  S_12
REMARK   10  A    between atoms: S_12  and  C_13
REMARK   11  A    between atoms: C_13  and  O_15
REMARK   12  A    between atoms: C_13  and  N_16
REMARK   13  A    between atoms: N_16  and  O_17
REMARK   14  A    between atoms: N_16  and  C_18
REMARK   15  A    between atoms: N_27  and  CA_28
REMARK   16  A    between atoms: CA_28  and  C_29
REMARK   17  A    between atoms: C_29  and  O_30
REMARK   18  A    between atoms: C_32  and  O_33
REMARK                            x       y       z     vdW  Elec       q    Type
REMARK                         _______ _______ _______ _____ _____    ______ ____
ROOT
ATOM      1  C   UNK A   1       7.719  -4.452  26.023  0.00  0.00    +0.169 C 
ENDROOT
BRANCH   1   3
ATOM      2  C   UNK A   1       6.240  -5.656  27.698  0.00  0.00    +0.214 C 
ATOM      3  N   UNK A   1       6.423  -4.809  26.634  0.00  0.00    -0.303 N 
ATOM      4  H   UNK A   1       5.604  -4.472  26.144  0.00  0.00    +0.149 HD
ATOM      5  O   UNK A   1       7.175  -6.214  28.259  0.00  0.00    -0.276 OA
BRANCH   2   6
ATOM      6  C   UNK A   1       4.802  -5.804  28.145  0.00  0.00    +0.098 C 
BRANCH   6   7
ATOM      7  C   UNK A   1       3.760  -5.131  27.225  0.00  0.00    +0.039 C 
BRANCH   7   8
ATOM      8  C   UNK A   1       3.060  -6.026  26.191  0.00  0.00    +0.161 C 
BRANCH   8   9
ATOM      9  N   UNK A   1       3.649  -7.402  26.111  0.00  0.00    -0.318 NA
ATOM     10  H   UNK A   1       3.534  -7.905  26.993  0.00  0.00    +0.119 HD
ATOM     11  H   UNK A   1       3.080  -7.944  25.450  0.00  0.00    +0.119 HD
ENDBRANCH   8   9
BRANCH   8  12
ATOM     12  C   UNK A   1       3.148  -5.412  24.792  0.00  0.00    +0.322 C 
ATOM     13  O   UNK A   1       2.482  -5.677  23.810  0.00  0.00    -0.249 OA
BRANCH  12  14
ATOM     14  O   UNK A   1       4.104  -4.444  24.793  0.00  0.00    -0.480 OA
ATOM     15  H   UNK A   1       4.613  -4.605  25.636  0.00  0.00    +0.295 HD
ENDBRANCH  12  14
ENDBRANCH   8  12
ENDBRANCH   7   8
ENDBRANCH   6   7
ENDBRANCH   2   6
ENDBRANCH   1   3
BRANCH   1  16
ATOM     16  C   UNK A   1       7.856  -4.946  24.559  0.00  0.00    +0.235 C 
ATOM     17  N   GLY A   2       6.710  -5.061  23.792  0.00  0.00    -0.303 N 
ATOM     18  H   GLY A   2       5.824  -5.111  24.290  0.00  0.00    +0.149 HD
ATOM     19  O   UNK A   1       8.971  -5.128  24.071  0.00  0.00    -0.274 OA
BRANCH  17  20
ATOM     20  CA  GLY A   2       6.821  -5.652  22.455  0.00  0.00    +0.224 C 
BRANCH  20  21
ATOM     21  C   GLY A   2       6.133  -5.066  21.213  0.00  0.00    +0.322 C 
ATOM     22  OXT GLY A   2       6.017  -5.699  20.170  0.00  0.00    -0.249 OA
BRANCH  21  23
ATOM     23  O   GLY A   2       5.731  -3.784  21.288  0.00  0.00    -0.480 OA
ATOM     24  H   GLY A   2       6.473  -3.148  21.379  0.00  0.00    +0.295 HD
ENDBRANCH  21  23
ENDBRANCH  20  21
ENDBRANCH  17  20
ENDBRANCH   1  16
BRANCH   1  25
ATOM     25  C   UNK A   1       8.166  -2.980  26.080  0.00  0.00    +0.105 C 
BRANCH  25  26
ATOM     26  S   UNK A   1       6.797  -1.765  26.227  0.00  0.00    -0.104 S 
BRANCH  26  27
ATOM     27  C   UNK A   1       6.676  -1.357  24.450  0.00  0.00    +0.299 C 
BRANCH  27  28
ATOM     28  O   UNK A   1       5.808  -2.271  23.815  0.00  0.00    -0.362 OA
ATOM     29  H   UNK A   1       6.341  -3.087  23.870  0.00  0.00    +0.213 HD
ENDBRANCH  27  28
BRANCH  27  30
ATOM     30  N   UNK A   1       7.992  -1.469  23.795  0.00  0.00    -0.217 N 
BRANCH  30  31
ATOM     31  C   UNK A   1       8.770  -0.289  23.678  0.00  0.00    +0.068 A 
ATOM     32  C   UNK A   1       8.518   0.625  22.636  0.00  0.00    +0.029 A 
ATOM     33  C   UNK A   1       9.226   1.830  22.519  0.00  0.00    +0.016 A 
ATOM     34  C   UNK A   1      10.219   2.136  23.440  0.00  0.00    +0.014 A 
ATOM     35  I   UNK A   1      11.218   3.953  23.341  0.00  0.00    -0.044 I 
ATOM     36  C   UNK A   1      10.539   1.224  24.439  0.00  0.00    +0.016 A 
ATOM     37  C   UNK A   1       9.831   0.019  24.543  0.00  0.00    +0.029 A 
ENDBRANCH  30  31
BRANCH  30  38
ATOM     38  O   UNK A   1       7.939  -2.320  22.669  0.00  0.00    -0.284 OA
ATOM     39  H   UNK A   1       8.814  -2.178  22.255  0.00  0.00    +0.245 HD
ENDBRANCH  30  38
ENDBRANCH  27  30
ENDBRANCH  26  27
ENDBRANCH  25  26
ENDBRANCH   1  25
TORSDOF 18
ENDMDL
MODEL 6
REMARK VINA RESULT:      -5.4      2.465      3.791
REMARK  Name = 
REMARK  18 active torsions:
REMARK  status: ('A' for Active; 'I' for Inactive)
REMARK    1  A    between atoms: N_1  and  C_2
REMARK    2  A    between atoms: C_2  and  C_4
REMARK    3  A    between atoms: C_2  and  C_32
REMARK    4  A    between atoms: C_4  and  C_5
REMARK    5  A    between atoms: C_5  and  C_6
REMARK    6  A    between atoms: N_8  and  C_9
REMARK    7  A    between atoms: C_9  and  C_11
REMARK    8  A    between atoms: C_9  and  C_25
REMARK    9  A    between atoms: C_11  and  S_12
REMARK   10  A    between atoms: S_12  and  C_13
REMARK   11  A    between atoms: C_13  and  O_15
REMARK   12  A    between atoms: C_13  and  N_16
REMARK   13  A    between atoms: N_16  and  O_17
REMARK   14  A    between atoms: N_16  and  C_18
REMARK   15  A    between atoms: N_27  and  CA_28
REMARK   16  A    between atoms: CA_28  and  C_29
REMARK   17  A    between atoms: C_29  and  O_30
REMARK   18  A    between atoms: C_32  and  O_33
REMARK                            x       y       z     vdW  Elec       q    Type
REMARK                         _______ _______ _______ _____ _____    ______ ____
ROOT
ATOM      1  C   UNK A   1       8.111  -3.555  26.123  0.00  0.00    +0.169 C 
ENDROOT
BRANCH   1   3
ATOM      2  C   UNK A   1       6.638  -5.017  27.585  0.00  0.00    +0.214 C 
ATOM      3  N   UNK A   1       6.852  -3.904  26.812  0.00  0.00    -0.303 N 
ATOM      4  H   UNK A   1       6.060  -3.312  26.596  0.00  0.00    +0.149 HD
ATOM      5  O   UNK A   1       7.509  -5.856  27.781  0.00  0.00    -0.276 OA
BRANCH   2   6
ATOM      6  C   UNK A   1       5.261  -5.097  28.207  0.00  0.00    +0.098 C 
BRANCH   6   7
ATOM      7  C   UNK A   1       4.095  -4.739  27.259  0.00  0.00    +0.039 C 
BRANCH   7   8
ATOM      8  C   UNK A   1       3.619  -5.836  26.295  0.00  0.00    +0.161 C 
BRANCH   8   9
ATOM      9  N   UNK A   1       4.094  -7.204  26.682  0.00  0.00    -0.318 NA
ATOM     10  H   UNK A   1       4.574  -7.188  27.583  0.00  0.00    +0.119 HD
ATOM     11  H   UNK A   1       3.264  -7.780  26.863  0.00  0.00    +0.119 HD
ENDBRANCH   8   9
BRANCH   8  12
ATOM     12  C   UNK A   1       4.118  -5.566  24.875  0.00  0.00    +0.322 C 
ATOM     13  O   UNK A   1       4.113  -6.317  23.918  0.00  0.00    -0.249 OA
BRANCH  12  14
ATOM     14  O   UNK A   1       4.567  -4.284  24.800  0.00  0.00    -0.480 OA
ATOM     15  H   UNK A   1       5.423  -4.295  25.312  0.00  0.00    +0.295 HD
ENDBRANCH  12  14
ENDBRANCH   8  12
ENDBRANCH   7   8
ENDBRANCH   6   7
ENDBRANCH   2   6
ENDBRANCH   1   3
BRANCH   1  16
ATOM     16  C   UNK A   1       8.218  -4.172  24.705  0.00  0.00    +0.235 C 
ATOM     17  N   GLY A   2       7.300  -3.783  23.745  0.00  0.00    -0.303 N 
ATOM     18  H   GLY A   2       6.437  -3.357  24.076  0.00  0.00    +0.149 HD
ATOM     19  O   UNK A   1       9.161  -4.911  24.422  0.00  0.00    -0.274 OA
BRANCH  17  20
ATOM     20  CA  GLY A   2       7.316  -4.461  22.446  0.00  0.00    +0.224 C 
BRANCH  20  21
ATOM     21  C   GLY A   2       6.059  -4.686  21.595  0.00  0.00    +0.322 C 
ATOM     22  OXT GLY A   2       6.058  -5.412  20.608  0.00  0.00    -0.249 OA
BRANCH  21  23
ATOM     23  O   GLY A   2       4.963  -3.980  21.929  0.00  0.00    -0.480 OA
ATOM     24  H   GLY A   2       5.160  -3.195  22.484  0.00  0.00    +0.295 HD
ENDBRANCH  21  23
ENDBRANCH  20  21
ENDBRANCH  17  20
ENDBRANCH   1  16
BRANCH   1  25
ATOM     25  C   UNK A   1       8.500  -2.069  26.034  0.00  0.00    +0.105 C 
BRANCH  25  26
ATOM     26  S   UNK A   1       7.281  -0.908  26.767  0.00  0.00    -0.104 S 
BRANCH  26  27
ATOM     27  C   UNK A   1       6.389  -0.524  25.218  0.00  0.00    +0.299 C 
BRANCH  27  28
ATOM     28  O   UNK A   1       5.607  -1.636  24.837  0.00  0.00    -0.362 OA
ATOM     29  H   UNK A   1       5.213  -1.877  25.697  0.00  0.00    +0.213 HD
ENDBRANCH  27  28
BRANCH  27  30
ATOM     30  N   UNK A   1       7.335  -0.251  24.121  0.00  0.00    -0.217 N 
BRANCH  30  31
ATOM     31  C   UNK A   1       7.884   1.054  24.036  0.00  0.00    +0.068 A 
ATOM     32  C   UNK A   1       7.046   2.160  23.794  0.00  0.00    +0.029 A 
ATOM     33  C   UNK A   1       7.541   3.472  23.760  0.00  0.00    +0.016 A 
ATOM     34  C   UNK A   1       8.898   3.699  23.952  0.00  0.00    +0.014 A 
ATOM     35  I   UNK A   1       9.640   5.637  23.996  0.00  0.00    -0.044 I 
ATOM     36  C   UNK A   1       9.761   2.624  24.124  0.00  0.00    +0.016 A 
ATOM     37  C   UNK A   1       9.258   1.316  24.149  0.00  0.00    +0.029 A 
ENDBRANCH  30  31
BRANCH  30  38
ATOM     38  O   UNK A   1       6.915  -0.853  22.914  0.00  0.00    -0.284 OA
ATOM     39  H   UNK A   1       6.868  -0.091  22.303  0.00  0.00    +0.245 HD
ENDBRANCH  30  38
ENDBRANCH  27  30
ENDBRANCH  26  27
ENDBRANCH  25  26
ENDBRANCH   1  25
TORSDOF 18
ENDMDL
MODEL 7
REMARK VINA RESULT:      -5.3      3.822      6.412
REMARK  Name = 
REMARK  18 active torsions:
REMARK  status: ('A' for Active; 'I' for Inactive)
REMARK    1  A    between atoms: N_1  and  C_2
REMARK    2  A    between atoms: C_2  and  C_4
REMARK    3  A    between atoms: C_2  and  C_32
REMARK    4  A    between atoms: C_4  and  C_5
REMARK    5  A    between atoms: C_5  and  C_6
REMARK    6  A    between atoms: N_8  and  C_9
REMARK    7  A    between atoms: C_9  and  C_11
REMARK    8  A    between atoms: C_9  and  C_25
REMARK    9  A    between atoms: C_11  and  S_12
REMARK   10  A    between atoms: S_12  and  C_13
REMARK   11  A    between atoms: C_13  and  O_15
REMARK   12  A    between atoms: C_13  and  N_16
REMARK   13  A    between atoms: N_16  and  O_17
REMARK   14  A    between atoms: N_16  and  C_18
REMARK   15  A    between atoms: N_27  and  CA_28
REMARK   16  A    between atoms: CA_28  and  C_29
REMARK   17  A    between atoms: C_29  and  O_30
REMARK   18  A    between atoms: C_32  and  O_33
REMARK                            x       y       z     vdW  Elec       q    Type
REMARK                         _______ _______ _______ _____ _____    ______ ____
ROOT
ATOM      1  C   UNK A   1       9.197   2.805  24.090  0.00  0.00    +0.169 C 
ENDROOT
BRANCH   1   3
ATOM      2  C   UNK A   1       7.143   2.352  25.511  0.00  0.00    +0.214 C 
ATOM      3  N   UNK A   1       8.468   2.677  25.368  0.00  0.00    -0.303 N 
ATOM      4  H   UNK A   1       8.983   2.959  26.192  0.00  0.00    +0.149 HD
ATOM      5  O   UNK A   1       6.415   2.131  24.550  0.00  0.00    -0.276 OA
BRANCH   2   6
ATOM      6  C   UNK A   1       6.670   2.247  26.944  0.00  0.00    +0.098 C 
BRANCH   6   7
ATOM      7  C   UNK A   1       5.924   0.939  27.290  0.00  0.00    +0.039 C 
BRANCH   7   8
ATOM      8  C   UNK A   1       6.774  -0.332  27.436  0.00  0.00    +0.161 C 
BRANCH   8   9
ATOM      9  N   UNK A   1       8.239  -0.085  27.236  0.00  0.00    -0.318 NA
ATOM     10  H   UNK A   1       8.730  -0.948  27.001  0.00  0.00    +0.119 HD
ATOM     11  H   UNK A   1       8.343   0.488  26.389  0.00  0.00    +0.119 HD
ENDBRANCH   8   9
BRANCH   8  12
ATOM     12  C   UNK A   1       6.348  -1.391  26.417  0.00  0.00    +0.322 C 
ATOM     13  O   UNK A   1       6.489  -2.597  26.479  0.00  0.00    -0.249 OA
BRANCH  12  14
ATOM     14  O   UNK A   1       5.719  -0.777  25.378  0.00  0.00    -0.480 OA
ATOM     15  H   UNK A   1       6.204   0.089  25.277  0.00  0.00    +0.295 HD
ENDBRANCH  12  14
ENDBRANCH   8  12
ENDBRANCH   7   8
ENDBRANCH   6   7
ENDBRANCH   2   6
ENDBRANCH   1   3
BRANCH   1  16
ATOM     16  C   UNK A   1      10.020   4.115  23.991  0.00  0.00    +0.235 C 
ATOM     17  N   GLY A   2      11.194   4.103  23.259  0.00  0.00    -0.303 N 
ATOM     18  H   GLY A   2      11.617   3.195  23.078  0.00  0.00    +0.149 HD
ATOM     19  O   UNK A   1       9.577   5.161  24.468  0.00  0.00    -0.274 OA
BRANCH  17  20
ATOM     20  CA  GLY A   2      12.039   5.301  23.273  0.00  0.00    +0.224 C 
BRANCH  20  21
ATOM     21  C   GLY A   2      13.401   5.382  22.570  0.00  0.00    +0.322 C 
ATOM     22  OXT GLY A   2      13.513   5.710  21.395  0.00  0.00    -0.249 OA
BRANCH  21  23
ATOM     23  O   GLY A   2      14.476   4.994  23.281  0.00  0.00    -0.480 OA
ATOM     24  H   GLY A   2      14.951   5.740  23.708  0.00  0.00    +0.295 HD
ENDBRANCH  21  23
ENDBRANCH  20  21
ENDBRANCH  17  20
ENDBRANCH   1  16
BRANCH   1  25
ATOM     25  C   UNK A   1      10.095   1.636  23.648  0.00  0.00    +0.105 C 
BRANCH  25  26
ATOM     26  S   UNK A   1       9.631   0.873  22.044  0.00  0.00    -0.104 S 
BRANCH  26  27
ATOM     27  C   UNK A   1       8.331  -0.234  22.698  0.00  0.00    +0.299 C 
BRANCH  27  28
ATOM     28  O   UNK A   1       8.496  -0.381  24.092  0.00  0.00    -0.362 OA
ATOM     29  H   UNK A   1       8.533  -1.353  24.163  0.00  0.00    +0.213 HD
ENDBRANCH  27  28
BRANCH  27  30
ATOM     30  N   UNK A   1       8.434  -1.576  22.097  0.00  0.00    -0.217 N 
BRANCH  30  31
ATOM     31  C   UNK A   1       7.598  -2.596  22.620  0.00  0.00    +0.068 A 
ATOM     32  C   UNK A   1       6.198  -2.497  22.499  0.00  0.00    +0.029 A 
ATOM     33  C   UNK A   1       5.341  -3.511  22.952  0.00  0.00    +0.016 A 
ATOM     34  C   UNK A   1       5.874  -4.642  23.555  0.00  0.00    +0.014 A 
ATOM     35  I   UNK A   1       4.633  -6.195  24.152  0.00  0.00    -0.044 I 
ATOM     36  C   UNK A   1       7.246  -4.739  23.752  0.00  0.00    +0.016 A 
ATOM     37  C   UNK A   1       8.094  -3.717  23.303  0.00  0.00    +0.029 A 
ENDBRANCH  30  31
BRANCH  30  38
ATOM     38  O   UNK A   1       9.776  -1.920  21.825  0.00  0.00    -0.284 OA
ATOM     39  H   UNK A   1      10.185  -1.897  22.712  0.00  0.00    +0.245 HD
ENDBRANCH  30  38
ENDBRANCH  27  30
ENDBRANCH  26  27
ENDBRANCH  25  26
ENDBRANCH   1  25
TORSDOF 18
ENDMDL
MODEL 8
REMARK VINA RESULT:      -5.2      3.670      7.490
REMARK  Name = 
REMARK  18 active torsions:
REMARK  status: ('A' for Active; 'I' for Inactive)
REMARK    1  A    between atoms: N_1  and  C_2
REMARK    2  A    between atoms: C_2  and  C_4
REMARK    3  A    between atoms: C_2  and  C_32
REMARK    4  A    between atoms: C_4  and  C_5
REMARK    5  A    between atoms: C_5  and  C_6
REMARK    6  A    between atoms: N_8  and  C_9
REMARK    7  A    between atoms: C_9  and  C_11
REMARK    8  A    between atoms: C_9  and  C_25
REMARK    9  A    between atoms: C_11  and  S_12
REMARK   10  A    between atoms: S_12  and  C_13
REMARK   11  A    between atoms: C_13  and  O_15
REMARK   12  A    between atoms: C_13  and  N_16
REMARK   13  A    between atoms: N_16  and  O_17
REMARK   14  A    between atoms: N_16  and  C_18
REMARK   15  A    between atoms: N_27  and  CA_28
REMARK   16  A    between atoms: CA_28  and  C_29
REMARK   17  A    between atoms: C_29  and  O_30
REMARK   18  A    between atoms: C_32  and  O_33
REMARK                            x       y       z     vdW  Elec       q    Type
REMARK                         _______ _______ _______ _____ _____    ______ ____
ROOT
ATOM      1  C   UNK A   1       7.489   3.007  23.632  0.00  0.00    +0.169 C 
ENDROOT
BRANCH   1   3
ATOM      2  C   UNK A   1       8.031   5.355  24.431  0.00  0.00    +0.214 C 
ATOM      3  N   UNK A   1       8.360   4.038  24.232  0.00  0.00    -0.303 N 
ATOM      4  H   UNK A   1       9.315   3.752  24.409  0.00  0.00    +0.149 HD
ATOM      5  O   UNK A   1       6.940   5.813  24.114  0.00  0.00    -0.276 OA
BRANCH   2   6
ATOM      6  C   UNK A   1       9.104   6.178  25.110  0.00  0.00    +0.098 C 
BRANCH   6   7
ATOM      7  C   UNK A   1      10.314   6.535  24.218  0.00  0.00    +0.039 C 
BRANCH   7   8
ATOM      8  C   UNK A   1      11.630   5.794  24.498  0.00  0.00    +0.161 C 
BRANCH   8   9
ATOM      9  N   UNK A   1      12.744   6.709  24.908  0.00  0.00    -0.318 NA
ATOM     10  H   UNK A   1      12.483   7.268  25.722  0.00  0.00    +0.119 HD
ATOM     11  H   UNK A   1      13.513   6.124  25.256  0.00  0.00    +0.119 HD
ENDBRANCH   8   9
BRANCH   8  12
ATOM     12  C   UNK A   1      12.100   5.033  23.257  0.00  0.00    +0.322 C 
ATOM     13  O   UNK A   1      13.097   5.224  22.588  0.00  0.00    -0.249 OA
BRANCH  12  14
ATOM     14  O   UNK A   1      11.224   4.026  22.997  0.00  0.00    -0.480 OA
ATOM     15  H   UNK A   1      10.845   3.795  23.891  0.00  0.00    +0.295 HD
ENDBRANCH  12  14
ENDBRANCH   8  12
ENDBRANCH   7   8
ENDBRANCH   6   7
ENDBRANCH   2   6
ENDBRANCH   1   3
BRANCH   1  16
ATOM     16  C   UNK A   1       8.248   2.060  22.668  0.00  0.00    +0.235 C 
ATOM     17  N   GLY A   2       9.447   1.511  23.089  0.00  0.00    -0.303 N 
ATOM     18  H   GLY A   2       9.920   1.973  23.862  0.00  0.00    +0.149 HD
ATOM     19  O   UNK A   1       7.737   1.729  21.597  0.00  0.00    -0.274 OA
BRANCH  17  20
ATOM     20  CA  GLY A   2      10.229   0.723  22.132  0.00  0.00    +0.224 C 
BRANCH  20  21
ATOM     21  C   GLY A   2       9.990  -0.771  21.872  0.00  0.00    +0.322 C 
ATOM     22  OXT GLY A   2      10.642  -1.645  22.430  0.00  0.00    -0.249 OA
BRANCH  21  23
ATOM     23  O   GLY A   2       9.081  -1.086  20.932  0.00  0.00    -0.480 OA
ATOM     24  H   GLY A   2       8.921  -2.051  20.852  0.00  0.00    +0.295 HD
ENDBRANCH  21  23
ENDBRANCH  20  21
ENDBRANCH  17  20
ENDBRANCH   1  16
BRANCH   1  25
ATOM     25  C   UNK A   1       6.628   2.149  24.575  0.00  0.00    +0.105 C 
BRANCH  25  26
ATOM     26  S   UNK A   1       7.145   2.184  26.336  0.00  0.00    -0.104 S 
BRANCH  26  27
ATOM     27  C   UNK A   1       7.428   0.387  26.515  0.00  0.00    +0.299 C 
BRANCH  27  28
ATOM     28  O   UNK A   1       8.048   0.130  27.757  0.00  0.00    -0.362 OA
ATOM     29  H   UNK A   1       8.780  -0.450  27.472  0.00  0.00    +0.213 HD
ENDBRANCH  27  28
BRANCH  27  30
ATOM     30  N   UNK A   1       8.329  -0.110  25.460  0.00  0.00    -0.217 N 
BRANCH  30  31
ATOM     31  C   UNK A   1       7.984  -1.329  24.823  0.00  0.00    +0.068 A 
ATOM     32  C   UNK A   1       6.959  -1.359  23.857  0.00  0.00    +0.029 A 
ATOM     33  C   UNK A   1       6.627  -2.532  23.163  0.00  0.00    +0.016 A 
ATOM     34  C   UNK A   1       7.310  -3.710  23.439  0.00  0.00    +0.014 A 
ATOM     35  I   UNK A   1       6.899  -5.436  22.363  0.00  0.00    -0.044 I 
ATOM     36  C   UNK A   1       8.280  -3.729  24.435  0.00  0.00    +0.016 A 
ATOM     37  C   UNK A   1       8.598  -2.554  25.128  0.00  0.00    +0.029 A 
ENDBRANCH  30  31
BRANCH  30  38
ATOM     38  O   UNK A   1       9.685   0.073  25.808  0.00  0.00    -0.284 OA
ATOM     39  H   UNK A   1       9.959  -0.826  26.077  0.00  0.00    +0.245 HD
ENDBRANCH  30  38
ENDBRANCH  27  30
ENDBRANCH  26  27
ENDBRANCH  25  26
ENDBRANCH   1  25
TORSDOF 18
ENDMDL
MODEL 9
REMARK VINA RESULT:      -5.2      4.061      7.516
REMARK  Name = 
REMARK  18 active torsions:
REMARK  status: ('A' for Active; 'I' for Inactive)
REMARK    1  A    between atoms: N_1  and  C_2
REMARK    2  A    between atoms: C_2  and  C_4
REMARK    3  A    between atoms: C_2  and  C_32
REMARK    4  A    between atoms: C_4  and  C_5
REMARK    5  A    between atoms: C_5  and  C_6
REMARK    6  A    between atoms: N_8  and  C_9
REMARK    7  A    between atoms: C_9  and  C_11
REMARK    8  A    between atoms: C_9  and  C_25
REMARK    9  A    between atoms: C_11  and  S_12
REMARK   10  A    between atoms: S_12  and  C_13
REMARK   11  A    between atoms: C_13  and  O_15
REMARK   12  A    between atoms: C_13  and  N_16
REMARK   13  A    between atoms: N_16  and  O_17
REMARK   14  A    between atoms: N_16  and  C_18
REMARK   15  A    between atoms: N_27  and  CA_28
REMARK   16  A    between atoms: CA_28  and  C_29
REMARK   17  A    between atoms: C_29  and  O_30
REMARK   18  A    between atoms: C_32  and  O_33
REMARK                            x       y       z     vdW  Elec       q    Type
REMARK                         _______ _______ _______ _____ _____    ______ ____
ROOT
ATOM      1  C   UNK A   1       8.600  -3.460  23.223  0.00  0.00    +0.169 C 
ENDROOT
BRANCH   1   3
ATOM      2  C   UNK A   1       9.685  -1.410  22.192  0.00  0.00    +0.214 C 
ATOM      3  N   UNK A   1       8.585  -2.119  22.604  0.00  0.00    -0.303 N 
ATOM      4  H   UNK A   1       7.685  -1.658  22.586  0.00  0.00    +0.149 HD
ATOM      5  O   UNK A   1      10.825  -1.844  22.306  0.00  0.00    -0.276 OA
BRANCH   2   6
ATOM      6  C   UNK A   1       9.371  -0.077  21.547  0.00  0.00    +0.098 C 
BRANCH   6   7
ATOM      7  C   UNK A   1       9.935   1.155  22.289  0.00  0.00    +0.039 C 
BRANCH   7   8
ATOM      8  C   UNK A   1       9.170   1.632  23.532  0.00  0.00    +0.161 C 
BRANCH   8   9
ATOM      9  N   UNK A   1       9.715   1.069  24.810  0.00  0.00    -0.318 NA
ATOM     10  H   UNK A   1      10.726   0.939  24.754  0.00  0.00    +0.119 HD
ATOM     11  H   UNK A   1       9.606   1.788  25.535  0.00  0.00    +0.119 HD
ENDBRANCH   8   9
BRANCH   8  12
ATOM     12  C   UNK A   1       7.696   1.230  23.450  0.00  0.00    +0.322 C 
ATOM     13  O   UNK A   1       6.828   1.687  22.732  0.00  0.00    -0.249 OA
BRANCH  12  14
ATOM     14  O   UNK A   1       7.468   0.204  24.315  0.00  0.00    -0.480 OA
ATOM     15  H   UNK A   1       6.987   0.631  25.078  0.00  0.00    +0.295 HD
ENDBRANCH  12  14
ENDBRANCH   8  12
ENDBRANCH   7   8
ENDBRANCH   6   7
ENDBRANCH   2   6
ENDBRANCH   1   3
BRANCH   1  16
ATOM     16  C   UNK A   1       8.503  -3.414  24.769  0.00  0.00    +0.235 C 
ATOM     17  N   GLY A   2       8.403  -4.609  25.460  0.00  0.00    -0.303 N 
ATOM     18  H   GLY A   2       8.098  -5.424  24.932  0.00  0.00    +0.149 HD
ATOM     19  O   UNK A   1       8.618  -2.341  25.364  0.00  0.00    -0.274 OA
BRANCH  17  20
ATOM     20  CA  GLY A   2       8.179  -4.563  26.908  0.00  0.00    +0.224 C 
BRANCH  20  21
ATOM     21  C   GLY A   2       7.020  -5.287  27.607  0.00  0.00    +0.322 C 
ATOM     22  OXT GLY A   2       5.894  -4.810  27.672  0.00  0.00    -0.249 OA
BRANCH  21  23
ATOM     23  O   GLY A   2       7.312  -6.446  28.226  0.00  0.00    -0.480 OA
ATOM     24  H   GLY A   2       6.762  -7.200  27.923  0.00  0.00    +0.295 HD
ENDBRANCH  21  23
ENDBRANCH  20  21
ENDBRANCH  17  20
ENDBRANCH   1  16
BRANCH   1  25
ATOM     25  C   UNK A   1       7.597  -4.507  22.707  0.00  0.00    +0.105 C 
BRANCH  25  26
ATOM     26  S   UNK A   1       6.307  -3.847  21.579  0.00  0.00    -0.104 S 
BRANCH  26  27
ATOM     27  C   UNK A   1       5.203  -3.185  22.877  0.00  0.00    +0.299 C 
BRANCH  27  28
ATOM     28  O   UNK A   1       5.657  -1.909  23.275  0.00  0.00    -0.362 OA
ATOM     29  H   UNK A   1       6.621  -2.034  23.195  0.00  0.00    +0.213 HD
ENDBRANCH  27  28
BRANCH  27  30
ATOM     30  N   UNK A   1       5.215  -4.052  24.069  0.00  0.00    -0.217 N 
BRANCH  30  31
ATOM     31  C   UNK A   1       4.289  -5.125  24.111  0.00  0.00    +0.068 A 
ATOM     32  C   UNK A   1       4.633  -6.333  24.749  0.00  0.00    +0.029 A 
ATOM     33  C   UNK A   1       3.726  -7.397  24.862  0.00  0.00    +0.016 A 
ATOM     34  C   UNK A   1       2.453  -7.275  24.318  0.00  0.00    +0.014 A 
ATOM     35  I   UNK A   1       1.064  -8.799  24.552  0.00  0.00    -0.044 I 
ATOM     36  C   UNK A   1       2.106  -6.123  23.623  0.00  0.00    +0.016 A 
ATOM     37  C   UNK A   1       3.023  -5.069  23.509  0.00  0.00    +0.029 A 
ENDBRANCH  30  31
BRANCH  30  38
ATOM     38  O   UNK A   1       5.384  -3.300  25.253  0.00  0.00    -0.284 OA
ATOM     39  H   UNK A   1       5.672  -3.979  25.896  0.00  0.00    +0.245 HD
ENDBRANCH  30  38
ENDBRANCH  27  30
ENDBRANCH  26  27
ENDBRANCH  25  26
ENDBRANCH   1  25
TORSDOF 18
ENDMDL
