MODEL 1
REMARK VINA RESULT:      -5.3      0.000      0.000
REMARK  Name = 
REMARK  26 active torsions:
REMARK  status: ('A' for Active; 'I' for Inactive)
REMARK    1  A    between atoms: C_2  and  O_15
REMARK    2  A    between atoms: C_4  and  C_5
REMARK    3  A    between atoms: C_4  and  O_6
REMARK    4  A    between atoms: O_6  and  C_7
REMARK    5  A    between atoms: C_8  and  O_10
REMARK    6  A    between atoms: C_11  and  C_13
REMARK    7  A    between atoms: O_15  and  C_16
REMARK    8  A    between atoms: C_18  and  C_20
REMARK    9  A    between atoms: C_21  and  O_23
REMARK   10  A    between atoms: O_23  and  C_24
REMARK   11  A    between atoms: C_27  and  C_29
REMARK   12  A    between atoms: C_31  and  N_36
REMARK   13  A    between atoms: C_33  and  O_35
REMARK   14  A    between atoms: N_36  and  C_37
REMARK   15  A    between atoms: N_36  and  C_38
REMARK   16  A    between atoms: C_39  and  C_40
REMARK   17  A    between atoms: C_39  and  O_66
REMARK   18  A    between atoms: C_42  and  C_44
REMARK   19  A    between atoms: C_47  and  C_49
REMARK   20  A    between atoms: C_50  and  O_52
REMARK   21  A    between atoms: C_53  and  C_54
REMARK   22  A    between atoms: C_53  and  O_55
REMARK   23  A    between atoms: C_56  and  C_58
REMARK   24  A    between atoms: C_58  and  C_59
REMARK   25  A    between atoms: C_63  and  C_65
REMARK   26  A    between atoms: O_66  and  C_67
REMARK                            x       y       z     vdW  Elec       q    Type
REMARK                         _______ _______ _______ _____ _____    ______ ____
ROOT
ATOM      1  C   UNL     1       6.749  -4.947  25.696  0.00  0.00    +0.140 C 
ATOM      2  C   UNL     1       5.704  -6.103  25.075  0.00  0.00    +0.124 C 
ATOM      3  C   UNL     1       4.527  -6.597  25.916  0.00  0.00    +0.022 C 
ATOM      4  C   UNL     1       5.332  -6.434  23.613  0.00  0.00    +0.313 C 
ATOM      5  O   UNL     1       6.156  -6.977  22.873  0.00  0.00    -0.250 OA
ATOM      6  O   UNL     1       4.014  -6.394  23.220  0.00  0.00    -0.458 OA
ATOM      7  C   UNL     1       2.971  -5.356  23.428  0.00  0.00    +0.210 C 
ATOM      8  C   UNL     1       1.594  -5.908  24.112  0.00  0.00    +0.126 C 
ATOM      9  C   UNL     1       0.612  -6.257  22.935  0.00  0.00    +0.048 C 
ATOM     10  C   UNL     1       0.732  -4.947  25.070  0.00  0.00    +0.159 C 
ATOM     11  C   UNL     1       0.699  -5.014  26.655  0.00  0.00    +0.084 C 
ATOM     12  C   UNL     1       0.874  -6.391  27.228  0.00  0.00    +0.018 C 
ATOM     13  C   UNL     1       1.265  -3.827  27.422  0.00  0.00    +0.142 C 
ATOM     14  O   UNL     1       1.061  -2.727  26.878  0.00  0.00    -0.297 OA
ATOM     15  C   UNL     1       1.683  -3.829  28.945  0.00  0.00    +0.055 C 
ATOM     16  C   UNL     1       0.934  -2.735  29.745  0.00  0.00    +0.015 C 
ATOM     17  C   UNL     1       3.170  -3.844  29.474  0.00  0.00    +0.048 C 
ATOM     18  C   UNL     1       4.290  -4.735  28.905  0.00  0.00    +0.093 C 
ATOM     19  C   UNL     1       5.253  -5.169  30.080  0.00  0.00    +0.044 C 
ATOM     20  C   UNL     1       5.289  -3.931  27.833  0.00  0.00    +0.158 C 
ATOM     21  C   UNL     1       6.552  -4.873  27.251  0.00  0.00    +0.047 C 
ATOM     22  C   UNL     1       6.971  -6.239  27.861  0.00  0.00    +0.013 C 
ENDROOT
BRANCH   7  23
ATOM     23  C   UNL     1       3.552  -4.035  23.919  0.00  0.00    +0.044 C 
ATOM     24  C   UNL     1       4.633  -3.424  23.025  0.00  0.00    +0.007 C 
ENDBRANCH   7  23
BRANCH   8  25
ATOM     25  O   UNL     1       1.824  -7.172  24.743  0.00  0.00    -0.383 OA
ATOM     26  H   UNL     1       2.402  -7.716  24.180  0.00  0.00    +0.210 HD
ENDBRANCH   8  25
BRANCH  10  27
ATOM     27  O   UNL     1       0.632  -3.636  24.510  0.00  0.00    -0.388 OA
ATOM     28  H   UNL     1      -0.295  -3.492  24.226  0.00  0.00    +0.210 HD
ENDBRANCH  10  27
BRANCH  18  29
ATOM     29  O   UNL     1       3.636  -5.942  28.480  0.00  0.00    -0.374 OA
ATOM     30  C   UNL     1       3.606  -7.028  29.432  0.00  0.00    +0.194 C 
ENDBRANCH  18  29
BRANCH   1  31
ATOM     31  O   UNL     1       6.938  -3.563  25.235  0.00  0.00    -0.347 OA
BRANCH  31  32
ATOM     32  C   UNL     1       8.261  -2.896  25.523  0.00  0.00    +0.254 C 
ATOM     33  O   UNL     1       8.420  -2.033  26.667  0.00  0.00    -0.346 OA
ATOM     34  C   UNL     1       8.496  -0.612  26.465  0.00  0.00    +0.149 C 
ATOM     35  C   UNL     1       8.847   0.054  27.809  0.00  0.00    +0.041 C 
ATOM     36  C   UNL     1       9.569  -0.189  25.456  0.00  0.00    +0.175 C 
ATOM     37  C   UNL     1       9.296  -0.831  24.090  0.00  0.00    +0.099 C 
ATOM     38  C   UNL     1      10.542  -0.542  23.202  0.00  0.00    +0.044 C 
ATOM     39  C   UNL     1       9.025  -2.361  24.254  0.00  0.00    +0.098 C 
BRANCH  36  40
ATOM     40  O   UNL     1       9.573   1.249  25.309  0.00  0.00    -0.386 OA
ATOM     41  H   UNL     1       9.227   1.587  26.162  0.00  0.00    +0.210 HD
ENDBRANCH  36  40
BRANCH  37  42
ATOM     42  O   UNL     1       8.171  -0.081  23.574  0.00  0.00    -0.374 OA
ATOM     43  C   UNL     1       8.291   0.443  22.264  0.00  0.00    +0.194 C 
ENDBRANCH  37  42
ENDBRANCH  31  32
ENDBRANCH   1  31
BRANCH  20  44
ATOM     44  O   UNL     1       4.959  -2.865  26.858  0.00  0.00    -0.342 OA
BRANCH  44  45
ATOM     45  C   UNL     1       4.906  -1.407  26.898  0.00  0.00    +0.281 C 
ATOM     46  C   UNL     1       4.871  -0.456  25.636  0.00  0.00    +0.187 C 
ATOM     47  C   UNL     1       5.139   1.047  26.115  0.00  0.00    +0.092 C 
ATOM     48  C   UNL     1       3.954   1.480  26.975  0.00  0.00    +0.053 C 
ATOM     49  C   UNL     1       3.674   0.426  28.062  0.00  0.00    +0.120 C 
ATOM     50  C   UNL     1       2.295   0.751  28.647  0.00  0.00    +0.038 C 
ATOM     51  O   UNL     1       3.698  -0.958  27.628  0.00  0.00    -0.346 OA
BRANCH  47  52
ATOM     52  N   UNL     1       5.668   2.014  25.099  0.00  0.00    -0.303 NA
ATOM     53  C   UNL     1       6.577   3.047  25.646  0.00  0.00    +0.105 C 
ATOM     54  C   UNL     1       4.679   2.618  24.213  0.00  0.00    +0.105 C 
ENDBRANCH  47  52
BRANCH  46  55
ATOM     55  O   UNL     1       5.744  -0.772  24.578  0.00  0.00    -0.385 OA
ATOM     56  H   UNL     1       6.117   0.085  24.301  0.00  0.00    +0.210 HD
ENDBRANCH  46  55
ENDBRANCH  44  45
ENDBRANCH  20  44
TORSDOF 12
ENDMDL
MODEL 2
REMARK VINA RESULT:      -5.1      3.406      8.345
REMARK  Name = 
REMARK  26 active torsions:
REMARK  status: ('A' for Active; 'I' for Inactive)
REMARK    1  A    between atoms: C_2  and  O_15
REMARK    2  A    between atoms: C_4  and  C_5
REMARK    3  A    between atoms: C_4  and  O_6
REMARK    4  A    between atoms: O_6  and  C_7
REMARK    5  A    between atoms: C_8  and  O_10
REMARK    6  A    between atoms: C_11  and  C_13
REMARK    7  A    between atoms: O_15  and  C_16
REMARK    8  A    between atoms: C_18  and  C_20
REMARK    9  A    between atoms: C_21  and  O_23
REMARK   10  A    between atoms: O_23  and  C_24
REMARK   11  A    between atoms: C_27  and  C_29
REMARK   12  A    between atoms: C_31  and  N_36
REMARK   13  A    between atoms: C_33  and  O_35
REMARK   14  A    between atoms: N_36  and  C_37
REMARK   15  A    between atoms: N_36  and  C_38
REMARK   16  A    between atoms: C_39  and  C_40
REMARK   17  A    between atoms: C_39  and  O_66
REMARK   18  A    between atoms: C_42  and  C_44
REMARK   19  A    between atoms: C_47  and  C_49
REMARK   20  A    between atoms: C_50  and  O_52
REMARK   21  A    between atoms: C_53  and  C_54
REMARK   22  A    between atoms: C_53  and  O_55
REMARK   23  A    between atoms: C_56  and  C_58
REMARK   24  A    between atoms: C_58  and  C_59
REMARK   25  A    between atoms: C_63  and  C_65
REMARK   26  A    between atoms: O_66  and  C_67
REMARK                            x       y       z     vdW  Elec       q    Type
REMARK                         _______ _______ _______ _____ _____    ______ ____
ROOT
ATOM      1  C   UNL     1       3.824   0.892  26.861  0.00  0.00    +0.140 C 
ATOM      2  C   UNL     1       2.629   2.050  26.648  0.00  0.00    +0.124 C 
ATOM      3  C   UNL     1       2.888   3.498  27.065  0.00  0.00    +0.022 C 
ATOM      4  C   UNL     1       1.469   2.117  25.630  0.00  0.00    +0.313 C 
ATOM      5  O   UNL     1       0.513   1.344  25.731  0.00  0.00    -0.250 OA
ATOM      6  O   UNL     1       1.355   3.205  24.798  0.00  0.00    -0.458 OA
ATOM      7  C   UNL     1       2.365   3.885  23.946  0.00  0.00    +0.210 C 
ATOM      8  C   UNL     1       2.495   5.493  24.201  0.00  0.00    +0.126 C 
ATOM      9  C   UNL     1       1.554   6.196  23.156  0.00  0.00    +0.048 C 
ATOM     10  C   UNL     1       3.913   6.225  24.007  0.00  0.00    +0.159 C 
ATOM     11  C   UNL     1       4.882   6.686  25.177  0.00  0.00    +0.084 C 
ATOM     12  C   UNL     1       4.185   7.108  26.438  0.00  0.00    +0.018 C 
ATOM     13  C   UNL     1       6.233   5.993  25.286  0.00  0.00    +0.142 C 
ATOM     14  O   UNL     1       6.740   5.692  24.191  0.00  0.00    -0.297 OA
ATOM     15  C   UNL     1       7.174   6.006  26.554  0.00  0.00    +0.055 C 
ATOM     16  C   UNL     1       8.583   6.552  26.215  0.00  0.00    +0.015 C 
ATOM     17  C   UNL     1       7.380   4.789  27.539  0.00  0.00    +0.048 C 
ATOM     18  C   UNL     1       6.245   3.900  28.077  0.00  0.00    +0.093 C 
ATOM     19  C   UNL     1       6.588   3.461  29.556  0.00  0.00    +0.044 C 
ATOM     20  C   UNL     1       6.088   2.458  27.249  0.00  0.00    +0.158 C 
ATOM     21  C   UNL     1       4.893   1.451  27.864  0.00  0.00    +0.047 C 
ATOM     22  C   UNL     1       4.208   1.657  29.244  0.00  0.00    +0.013 C 
ENDROOT
BRANCH   7  23
ATOM     23  C   UNL     1       3.641   3.065  23.786  0.00  0.00    +0.044 C 
ATOM     24  C   UNL     1       4.176   2.962  22.357  0.00  0.00    +0.007 C 
ENDBRANCH   7  23
BRANCH   8  25
ATOM     25  O   UNL     1       1.917   5.845  25.462  0.00  0.00    -0.383 OA
ATOM     26  H   UNL     1       1.219   6.510  25.326  0.00  0.00    +0.210 HD
ENDBRANCH   8  25
BRANCH  10  27
ATOM     27  O   UNL     1       4.562   5.759  22.822  0.00  0.00    -0.388 OA
ATOM     28  H   UNL     1       5.530   5.851  22.944  0.00  0.00    +0.210 HD
ENDBRANCH  10  27
BRANCH  18  29
ATOM     29  O   UNL     1       5.105   4.768  28.192  0.00  0.00    -0.374 OA
ATOM     30  C   UNL     1       4.869   5.356  29.490  0.00  0.00    +0.194 C 
ENDBRANCH  18  29
BRANCH   1  31
ATOM     31  O   UNL     1       4.568   0.164  25.822  0.00  0.00    -0.347 OA
BRANCH  31  32
ATOM     32  C   UNL     1       5.100  -1.206  26.163  0.00  0.00    +0.254 C 
ATOM     33  O   UNL     1       6.474  -1.389  26.559  0.00  0.00    -0.346 OA
ATOM     34  C   UNL     1       7.397  -1.983  25.631  0.00  0.00    +0.149 C 
ATOM     35  C   UNL     1       8.732  -2.229  26.360  0.00  0.00    +0.041 C 
ATOM     36  C   UNL     1       6.928  -3.332  25.076  0.00  0.00    +0.175 C 
ATOM     37  C   UNL     1       5.588  -3.170  24.347  0.00  0.00    +0.099 C 
ATOM     38  C   UNL     1       5.078  -4.605  24.023  0.00  0.00    +0.044 C 
ATOM     39  C   UNL     1       4.582  -2.369  25.235  0.00  0.00    +0.098 C 
BRANCH  36  40
ATOM     40  O   UNL     1       7.908  -3.855  24.149  0.00  0.00    -0.386 OA
ATOM     41  H   UNL     1       7.525  -4.701  23.834  0.00  0.00    +0.210 HD
ENDBRANCH  36  40
BRANCH  37  42
ATOM     42  O   UNL     1       5.944  -2.510  23.110  0.00  0.00    -0.374 OA
ATOM     43  C   UNL     1       5.693  -3.214  21.907  0.00  0.00    +0.194 C 
ENDBRANCH  37  42
ENDBRANCH  31  32
ENDBRANCH   1  31
BRANCH  20  44
ATOM     44  O   UNL     1       6.303   2.171  25.811  0.00  0.00    -0.342 OA
BRANCH  44  45
ATOM     45  C   UNL     1       7.452   1.803  24.990  0.00  0.00    +0.281 C 
ATOM     46  C   UNL     1       7.381   1.155  23.550  0.00  0.00    +0.187 C 
ATOM     47  C   UNL     1       8.836   0.625  23.150  0.00  0.00    +0.092 C 
ATOM     48  C   UNL     1       9.750   1.838  22.998  0.00  0.00    +0.053 C 
ATOM     49  C   UNL     1       9.639   2.745  24.237  0.00  0.00    +0.120 C 
ATOM     50  C   UNL     1      10.299   4.078  23.868  0.00  0.00    +0.038 C 
ATOM     51  O   UNL     1       8.296   2.993  24.727  0.00  0.00    -0.346 OA
BRANCH  47  52
ATOM     52  N   UNL     1       8.919  -0.459  22.117  0.00  0.00    -0.303 NA
ATOM     53  C   UNL     1       9.889  -1.534  22.427  0.00  0.00    +0.105 C 
ATOM     54  C   UNL     1       9.068  -0.017  20.735  0.00  0.00    +0.105 C 
ENDBRANCH  47  52
BRANCH  46  55
ATOM     55  O   UNL     1       6.440   0.126  23.362  0.00  0.00    -0.385 OA
ATOM     56  H   UNL     1       6.888  -0.679  23.679  0.00  0.00    +0.210 HD
ENDBRANCH  46  55
ENDBRANCH  44  45
ENDBRANCH  20  44
TORSDOF 12
ENDMDL
MODEL 3
REMARK VINA RESULT:      -5.0      1.451      1.918
REMARK  Name = 
REMARK  26 active torsions:
REMARK  status: ('A' for Active; 'I' for Inactive)
REMARK    1  A    between atoms: C_2  and  O_15
REMARK    2  A    between atoms: C_4  and  C_5
REMARK    3  A    between atoms: C_4  and  O_6
REMARK    4  A    between atoms: O_6  and  C_7
REMARK    5  A    between atoms: C_8  and  O_10
REMARK    6  A    between atoms: C_11  and  C_13
REMARK    7  A    between atoms: O_15  and  C_16
REMARK    8  A    between atoms: C_18  and  C_20
REMARK    9  A    between atoms: C_21  and  O_23
REMARK   10  A    between atoms: O_23  and  C_24
REMARK   11  A    between atoms: C_27  and  C_29
REMARK   12  A    between atoms: C_31  and  N_36
REMARK   13  A    between atoms: C_33  and  O_35
REMARK   14  A    between atoms: N_36  and  C_37
REMARK   15  A    between atoms: N_36  and  C_38
REMARK   16  A    between atoms: C_39  and  C_40
REMARK   17  A    between atoms: C_39  and  O_66
REMARK   18  A    between atoms: C_42  and  C_44
REMARK   19  A    between atoms: C_47  and  C_49
REMARK   20  A    between atoms: C_50  and  O_52
REMARK   21  A    between atoms: C_53  and  C_54
REMARK   22  A    between atoms: C_53  and  O_55
REMARK   23  A    between atoms: C_56  and  C_58
REMARK   24  A    between atoms: C_58  and  C_59
REMARK   25  A    between atoms: C_63  and  C_65
REMARK   26  A    between atoms: O_66  and  C_67
REMARK                            x       y       z     vdW  Elec       q    Type
REMARK                         _______ _______ _______ _____ _____    ______ ____
ROOT
ATOM      1  C   UNL     1       6.993  -4.274  25.758  0.00  0.00    +0.140 C 
ATOM      2  C   UNL     1       6.355  -5.618  24.981  0.00  0.00    +0.124 C 
ATOM      3  C   UNL     1       5.275  -6.454  25.669  0.00  0.00    +0.022 C 
ATOM      4  C   UNL     1       6.223  -5.936  23.475  0.00  0.00    +0.313 C 
ATOM      5  O   UNL     1       7.228  -6.196  22.810  0.00  0.00    -0.250 OA
ATOM      6  O   UNL     1       4.986  -6.212  22.943  0.00  0.00    -0.458 OA
ATOM      7  C   UNL     1       3.691  -5.495  23.077  0.00  0.00    +0.210 C 
ATOM      8  C   UNL     1       2.450  -6.428  23.584  0.00  0.00    +0.126 C 
ATOM      9  C   UNL     1       1.711  -6.940  22.294  0.00  0.00    +0.048 C 
ATOM     10  C   UNL     1       1.277  -5.789  24.479  0.00  0.00    +0.159 C 
ATOM     11  C   UNL     1       1.113  -5.967  26.048  0.00  0.00    +0.084 C 
ATOM     12  C   UNL     1       1.590  -7.287  26.582  0.00  0.00    +0.018 C 
ATOM     13  C   UNL     1       1.270  -4.728  26.917  0.00  0.00    +0.142 C 
ATOM     14  O   UNL     1       0.836  -3.684  26.398  0.00  0.00    -0.297 OA
ATOM     15  C   UNL     1       1.527  -4.723  28.476  0.00  0.00    +0.055 C 
ATOM     16  C   UNL     1       0.443  -3.915  29.231  0.00  0.00    +0.015 C 
ATOM     17  C   UNL     1       2.908  -4.388  29.163  0.00  0.00    +0.048 C 
ATOM     18  C   UNL     1       4.272  -4.919  28.685  0.00  0.00    +0.093 C 
ATOM     19  C   UNL     1       5.200  -5.167  29.940  0.00  0.00    +0.044 C 
ATOM     20  C   UNL     1       5.121  -3.816  27.761  0.00  0.00    +0.158 C 
ATOM     21  C   UNL     1       6.637  -4.358  27.283  0.00  0.00    +0.047 C 
ATOM     22  C   UNL     1       7.342  -5.607  27.882  0.00  0.00    +0.013 C 
ENDROOT
BRANCH   7  23
ATOM     23  C   UNL     1       3.853  -4.104  23.679  0.00  0.00    +0.044 C 
ATOM     24  C   UNL     1       4.791  -3.167  22.917  0.00  0.00    +0.007 C 
ENDBRANCH   7  23
BRANCH   8  25
ATOM     25  O   UNL     1       2.944  -7.629  24.186  0.00  0.00    -0.383 OA
ATOM     26  H   UNL     1       3.882  -7.746  23.955  0.00  0.00    +0.210 HD
ENDBRANCH   8  25
BRANCH  10  27
ATOM     27  O   UNL     1       0.888  -4.514  23.964  0.00  0.00    -0.388 OA
ATOM     28  H   UNL     1       0.407  -4.031  24.667  0.00  0.00    +0.210 HD
ENDBRANCH  10  27
BRANCH  18  29
ATOM     29  O   UNL     1       4.004  -6.223  28.145  0.00  0.00    -0.374 OA
ATOM     30  C   UNL     1       4.095  -7.334  29.064  0.00  0.00    +0.194 C 
ENDBRANCH  18  29
BRANCH   1  31
ATOM     31  O   UNL     1       6.854  -2.861  25.374  0.00  0.00    -0.347 OA
BRANCH  31  32
ATOM     32  C   UNL     1       8.087  -1.993  25.413  0.00  0.00    +0.254 C 
ATOM     33  O   UNL     1       7.983  -0.567  25.597  0.00  0.00    -0.346 OA
ATOM     34  C   UNL     1       8.209   0.301  24.474  0.00  0.00    +0.149 C 
ATOM     35  C   UNL     1       8.219   1.758  24.978  0.00  0.00    +0.041 C 
ATOM     36  C   UNL     1       9.545   0.058  23.765  0.00  0.00    +0.175 C 
ATOM     37  C   UNL     1       9.617  -1.386  23.249  0.00  0.00    +0.099 C 
ATOM     38  C   UNL     1      11.076  -1.613  22.757  0.00  0.00    +0.044 C 
ATOM     39  C   UNL     1       9.207  -2.386  24.377  0.00  0.00    +0.098 C 
BRANCH  36  40
ATOM     40  O   UNL     1       9.688   0.965  22.649  0.00  0.00    -0.386 OA
ATOM     41  H   UNL     1      10.522   1.448  22.827  0.00  0.00    +0.210 HD
ENDBRANCH  36  40
BRANCH  37  42
ATOM     42  O   UNL     1       8.732  -1.387  22.104  0.00  0.00    -0.374 OA
ATOM     43  C   UNL     1       7.935  -2.541  21.905  0.00  0.00    +0.194 C 
ENDBRANCH  37  42
ENDBRANCH  31  32
ENDBRANCH   1  31
BRANCH  20  44
ATOM     44  O   UNL     1       4.616  -2.808  26.798  0.00  0.00    -0.342 OA
BRANCH  44  45
ATOM     45  C   UNL     1       4.412  -1.363  26.824  0.00  0.00    +0.281 C 
ATOM     46  C   UNL     1       3.075  -0.633  27.245  0.00  0.00    +0.187 C 
ATOM     47  C   UNL     1       3.176   0.908  26.828  0.00  0.00    +0.092 C 
ATOM     48  C   UNL     1       4.269   1.551  27.679  0.00  0.00    +0.053 C 
ATOM     49  C   UNL     1       5.557   0.710  27.613  0.00  0.00    +0.120 C 
ATOM     50  C   UNL     1       6.470   1.214  28.736  0.00  0.00    +0.038 C 
ATOM     51  O   UNL     1       5.388  -0.725  27.738  0.00  0.00    -0.346 OA
BRANCH  47  52
ATOM     52  N   UNL     1       1.893   1.659  26.636  0.00  0.00    -0.303 NA
ATOM     53  C   UNL     1       1.977   2.790  25.684  0.00  0.00    +0.105 C 
ATOM     54  C   UNL     1       1.200   2.065  27.854  0.00  0.00    +0.105 C 
ENDBRANCH  47  52
BRANCH  46  55
ATOM     55  O   UNL     1       1.873  -1.173  26.751  0.00  0.00    -0.385 OA
ATOM     56  H   UNL     1       2.150  -1.919  26.189  0.00  0.00    +0.210 HD
ENDBRANCH  46  55
ENDBRANCH  44  45
ENDBRANCH  20  44
TORSDOF 12
ENDMDL
MODEL 4
REMARK VINA RESULT:      -4.6      3.698      8.729
REMARK  Name = 
REMARK  26 active torsions:
REMARK  status: ('A' for Active; 'I' for Inactive)
REMARK    1  A    between atoms: C_2  and  O_15
REMARK    2  A    between atoms: C_4  and  C_5
REMARK    3  A    between atoms: C_4  and  O_6
REMARK    4  A    between atoms: O_6  and  C_7
REMARK    5  A    between atoms: C_8  and  O_10
REMARK    6  A    between atoms: C_11  and  C_13
REMARK    7  A    between atoms: O_15  and  C_16
REMARK    8  A    between atoms: C_18  and  C_20
REMARK    9  A    between atoms: C_21  and  O_23
REMARK   10  A    between atoms: O_23  and  C_24
REMARK   11  A    between atoms: C_27  and  C_29
REMARK   12  A    between atoms: C_31  and  N_36
REMARK   13  A    between atoms: C_33  and  O_35
REMARK   14  A    between atoms: N_36  and  C_37
REMARK   15  A    between atoms: N_36  and  C_38
REMARK   16  A    between atoms: C_39  and  C_40
REMARK   17  A    between atoms: C_39  and  O_66
REMARK   18  A    between atoms: C_42  and  C_44
REMARK   19  A    between atoms: C_47  and  C_49
REMARK   20  A    between atoms: C_50  and  O_52
REMARK   21  A    between atoms: C_53  and  C_54
REMARK   22  A    between atoms: C_53  and  O_55
REMARK   23  A    between atoms: C_56  and  C_58
REMARK   24  A    between atoms: C_58  and  C_59
REMARK   25  A    between atoms: C_63  and  C_65
REMARK   26  A    between atoms: O_66  and  C_67
REMARK                            x       y       z     vdW  Elec       q    Type
REMARK                         _______ _______ _______ _____ _____    ______ ____
ROOT
ATOM      1  C   UNL     1       6.903   0.602  25.509  0.00  0.00    +0.140 C 
ATOM      2  C   UNL     1       7.439   1.563  26.774  0.00  0.00    +0.124 C 
ATOM      3  C   UNL     1       7.892   2.998  26.502  0.00  0.00    +0.022 C 
ATOM      4  C   UNL     1       7.099   1.519  28.280  0.00  0.00    +0.313 C 
ATOM      5  O   UNL     1       7.519   0.596  28.982  0.00  0.00    -0.250 OA
ATOM      6  O   UNL     1       6.582   2.635  28.895  0.00  0.00    -0.458 OA
ATOM      7  C   UNL     1       5.466   3.532  28.497  0.00  0.00    +0.210 C 
ATOM      8  C   UNL     1       5.861   5.117  28.432  0.00  0.00    +0.126 C 
ATOM      9  C   UNL     1       5.487   5.735  29.827  0.00  0.00    +0.048 C 
ATOM     10  C   UNL     1       5.138   6.081  27.369  0.00  0.00    +0.159 C 
ATOM     11  C   UNL     1       5.776   6.602  26.012  0.00  0.00    +0.084 C 
ATOM     12  C   UNL     1       7.263   6.808  26.058  0.00  0.00    +0.018 C 
ATOM     13  C   UNL     1       5.144   6.131  24.710  0.00  0.00    +0.142 C 
ATOM     14  O   UNL     1       3.908   6.001  24.763  0.00  0.00    -0.297 OA
ATOM     15  C   UNL     1       5.817   6.200  23.283  0.00  0.00    +0.055 C 
ATOM     16  C   UNL     1       4.944   6.991  22.277  0.00  0.00    +0.015 C 
ATOM     17  C   UNL     1       6.405   4.960  22.501  0.00  0.00    +0.048 C 
ATOM     18  C   UNL     1       7.275   3.861  23.136  0.00  0.00    +0.093 C 
ATOM     19  C   UNL     1       8.344   3.371  22.080  0.00  0.00    +0.044 C 
ATOM     20  C   UNL     1       6.415   2.480  23.517  0.00  0.00    +0.158 C 
ATOM     21  C   UNL     1       7.363   1.248  24.155  0.00  0.00    +0.047 C 
ATOM     22  C   UNL     1       8.916   1.234  24.110  0.00  0.00    +0.013 C 
ENDROOT
BRANCH   7  23
ATOM     23  C   UNL     1       4.615   2.945  27.377  0.00  0.00    +0.044 C 
ATOM     24  C   UNL     1       3.492   2.012  27.831  0.00  0.00    +0.007 C 
ENDBRANCH   7  23
BRANCH   8  25
ATOM     25  O   UNL     1       7.282   5.272  28.366  0.00  0.00    -0.383 OA
ATOM     26  H   UNL     1       7.698   4.777  29.095  0.00  0.00    +0.210 HD
ENDBRANCH   8  25
BRANCH  10  27
ATOM     27  O   UNL     1       3.734   5.818  27.324  0.00  0.00    -0.388 OA
ATOM     28  H   UNL     1       3.598   4.854  27.424  0.00  0.00    +0.210 HD
ENDBRANCH  10  27
BRANCH  18  29
ATOM     29  O   UNL     1       8.030   4.521  24.166  0.00  0.00    -0.374 OA
ATOM     30  C   UNL     1       9.371   4.931  23.820  0.00  0.00    +0.194 C 
ENDBRANCH  18  29
BRANCH   1  31
ATOM     31  O   UNL     1       5.544   0.086  25.283  0.00  0.00    -0.347 OA
BRANCH  31  32
ATOM     32  C   UNL     1       5.378  -1.399  25.073  0.00  0.00    +0.254 C 
ATOM     33  O   UNL     1       5.683  -2.335  26.127  0.00  0.00    -0.346 OA
ATOM     34  C   UNL     1       6.881  -3.122  26.038  0.00  0.00    +0.149 C 
ATOM     35  C   UNL     1       6.872  -4.156  27.181  0.00  0.00    +0.041 C 
ATOM     36  C   UNL     1       7.012  -3.900  24.724  0.00  0.00    +0.175 C 
ATOM     37  C   UNL     1       7.011  -2.934  23.532  0.00  0.00    +0.099 C 
ATOM     38  C   UNL     1       6.913  -3.808  22.248  0.00  0.00    +0.044 C 
ATOM     39  C   UNL     1       5.826  -1.922  23.656  0.00  0.00    +0.098 C 
BRANCH  36  40
ATOM     40  O   UNL     1       8.244  -4.657  24.716  0.00  0.00    -0.386 OA
ATOM     41  H   UNL     1       8.895  -4.076  25.164  0.00  0.00    +0.210 HD
ENDBRANCH  36  40
BRANCH  37  42
ATOM     42  O   UNL     1       8.321  -2.322  23.582  0.00  0.00    -0.374 OA
ATOM     43  C   UNL     1       8.923  -1.983  22.346  0.00  0.00    +0.194 C 
ENDBRANCH  37  42
ENDBRANCH  31  32
ENDBRANCH   1  31
BRANCH  20  44
ATOM     44  O   UNL     1       5.018   2.342  23.991  0.00  0.00    -0.342 OA
BRANCH  44  45
ATOM     45  C   UNL     1       3.776   3.078  23.778  0.00  0.00    +0.281 C 
ATOM     46  C   UNL     1       3.032   3.240  22.393  0.00  0.00    +0.187 C 
ATOM     47  C   UNL     1       1.908   4.369  22.539  0.00  0.00    +0.092 C 
ATOM     48  C   UNL     1       0.847   3.849  23.505  0.00  0.00    +0.053 C 
ATOM     49  C   UNL     1       1.510   3.333  24.796  0.00  0.00    +0.120 C 
ATOM     50  C   UNL     1       0.444   2.530  25.548  0.00  0.00    +0.038 C 
ATOM     51  O   UNL     1       2.695   2.515  24.619  0.00  0.00    -0.346 OA
BRANCH  47  52
ATOM     52  N   UNL     1       1.452   5.058  21.288  0.00  0.00    -0.303 NA
ATOM     53  C   UNL     1       1.072   6.478  21.470  0.00  0.00    +0.105 C 
ATOM     54  C   UNL     1       0.445   4.355  20.500  0.00  0.00    +0.105 C 
ENDBRANCH  47  52
BRANCH  46  55
ATOM     55  O   UNL     1       3.833   3.520  21.270  0.00  0.00    -0.385 OA
ATOM     56  H   UNL     1       3.656   4.456  21.067  0.00  0.00    +0.210 HD
ENDBRANCH  46  55
ENDBRANCH  44  45
ENDBRANCH  20  44
TORSDOF 12
ENDMDL
MODEL 5
REMARK VINA RESULT:      -4.5      3.336      8.566
REMARK  Name = 
REMARK  26 active torsions:
REMARK  status: ('A' for Active; 'I' for Inactive)
REMARK    1  A    between atoms: C_2  and  O_15
REMARK    2  A    between atoms: C_4  and  C_5
REMARK    3  A    between atoms: C_4  and  O_6
REMARK    4  A    between atoms: O_6  and  C_7
REMARK    5  A    between atoms: C_8  and  O_10
REMARK    6  A    between atoms: C_11  and  C_13
REMARK    7  A    between atoms: O_15  and  C_16
REMARK    8  A    between atoms: C_18  and  C_20
REMARK    9  A    between atoms: C_21  and  O_23
REMARK   10  A    between atoms: O_23  and  C_24
REMARK   11  A    between atoms: C_27  and  C_29
REMARK   12  A    between atoms: C_31  and  N_36
REMARK   13  A    between atoms: C_33  and  O_35
REMARK   14  A    between atoms: N_36  and  C_37
REMARK   15  A    between atoms: N_36  and  C_38
REMARK   16  A    between atoms: C_39  and  C_40
REMARK   17  A    between atoms: C_39  and  O_66
REMARK   18  A    between atoms: C_42  and  C_44
REMARK   19  A    between atoms: C_47  and  C_49
REMARK   20  A    between atoms: C_50  and  O_52
REMARK   21  A    between atoms: C_53  and  C_54
REMARK   22  A    between atoms: C_53  and  O_55
REMARK   23  A    between atoms: C_56  and  C_58
REMARK   24  A    between atoms: C_58  and  C_59
REMARK   25  A    between atoms: C_63  and  C_65
REMARK   26  A    between atoms: O_66  and  C_67
REMARK                            x       y       z     vdW  Elec       q    Type
REMARK                         _______ _______ _______ _____ _____    ______ ____
ROOT
ATOM      1  C   UNL     1       6.438   2.422  23.904  0.00  0.00    +0.140 C 
ATOM      2  C   UNL     1       7.072   3.893  24.404  0.00  0.00    +0.124 C 
ATOM      3  C   UNL     1       6.134   5.054  24.735  0.00  0.00    +0.022 C 
ATOM      4  C   UNL     1       8.398   4.219  25.126  0.00  0.00    +0.313 C 
ATOM      5  O   UNL     1       9.470   4.115  24.525  0.00  0.00    -0.250 OA
ATOM      6  O   UNL     1       8.374   4.892  26.325  0.00  0.00    -0.458 OA
ATOM      7  C   UNL     1       7.568   4.658  27.552  0.00  0.00    +0.210 C 
ATOM      8  C   UNL     1       6.735   5.964  28.073  0.00  0.00    +0.126 C 
ATOM      9  C   UNL     1       7.638   6.680  29.142  0.00  0.00    +0.048 C 
ATOM     10  C   UNL     1       5.324   5.771  28.818  0.00  0.00    +0.159 C 
ATOM     11  C   UNL     1       3.896   6.013  28.167  0.00  0.00    +0.084 C 
ATOM     12  C   UNL     1       3.857   7.099  27.131  0.00  0.00    +0.018 C 
ATOM     13  C   UNL     1       2.988   4.804  27.994  0.00  0.00    +0.142 C 
ATOM     14  O   UNL     1       3.080   3.964  28.906  0.00  0.00    -0.297 OA
ATOM     15  C   UNL     1       1.723   4.732  27.051  0.00  0.00    +0.055 C 
ATOM     16  C   UNL     1       0.445   4.348  27.837  0.00  0.00    +0.015 C 
ATOM     17  C   UNL     1       1.663   3.956  25.677  0.00  0.00    +0.048 C 
ATOM     18  C   UNL     1       2.772   3.987  24.609  0.00  0.00    +0.093 C 
ATOM     19  C   UNL     1       2.111   3.921  23.175  0.00  0.00    +0.044 C 
ATOM     20  C   UNL     1       3.772   2.650  24.660  0.00  0.00    +0.158 C 
ATOM     21  C   UNL     1       4.949   2.640  23.461  0.00  0.00    +0.047 C 
ATOM     22  C   UNL     1       4.940   3.583  22.226  0.00  0.00    +0.013 C 
ENDROOT
BRANCH   7  23
ATOM     23  C   UNL     1       6.872   3.302  27.544  0.00  0.00    +0.044 C 
ATOM     24  C   UNL     1       7.158   2.414  28.756  0.00  0.00    +0.007 C 
ENDBRANCH   7  23
BRANCH   8  25
ATOM     25  O   UNL     1       6.623   6.932  27.026  0.00  0.00    -0.383 OA
ATOM     26  H   UNL     1       6.954   6.552  26.194  0.00  0.00    +0.210 HD
ENDBRANCH   8  25
BRANCH  10  27
ATOM     27  O   UNL     1       5.394   4.697  29.759  0.00  0.00    -0.388 OA
ATOM     28  H   UNL     1       5.792   5.038  30.586  0.00  0.00    +0.210 HD
ENDBRANCH  10  27
BRANCH  18  29
ATOM     29  O   UNL     1       3.352   5.299  24.702  0.00  0.00    -0.374 OA
ATOM     30  C   UNL     1       2.848   6.294  23.784  0.00  0.00    +0.194 C 
ENDBRANCH  18  29
BRANCH   1  31
ATOM     31  O   UNL     1       6.477   1.136  24.616  0.00  0.00    -0.347 OA
BRANCH  31  32
ATOM     32  C   UNL     1       6.756  -0.109  23.811  0.00  0.00    +0.254 C 
ATOM     33  O   UNL     1       6.547  -1.419  24.377  0.00  0.00    -0.346 OA
ATOM     34  C   UNL     1       7.687  -2.205  24.761  0.00  0.00    +0.149 C 
ATOM     35  C   UNL     1       7.199  -3.612  25.158  0.00  0.00    +0.041 C 
ATOM     36  C   UNL     1       8.719  -2.382  23.642  0.00  0.00    +0.175 C 
ATOM     37  C   UNL     1       9.241  -1.015  23.179  0.00  0.00    +0.099 C 
ATOM     38  C   UNL     1      10.094  -1.271  21.902  0.00  0.00    +0.044 C 
ATOM     39  C   UNL     1       8.048  -0.042  22.912  0.00  0.00    +0.098 C 
BRANCH  36  40
ATOM     40  O   UNL     1       9.831  -3.176  24.113  0.00  0.00    -0.386 OA
ATOM     41  H   UNL     1      10.098  -2.753  24.956  0.00  0.00    +0.210 HD
ENDBRANCH  36  40
BRANCH  37  42
ATOM     42  O   UNL     1      10.118  -0.599  24.252  0.00  0.00    -0.374 OA
ATOM     43  C   UNL     1      10.385   0.787  24.367  0.00  0.00    +0.194 C 
ENDBRANCH  37  42
ENDBRANCH  31  32
ENDBRANCH   1  31
BRANCH  20  44
ATOM     44  O   UNL     1       4.231   1.862  25.828  0.00  0.00    -0.342 OA
BRANCH  44  45
ATOM     45  C   UNL     1       3.688   0.754  26.606  0.00  0.00    +0.281 C 
ATOM     46  C   UNL     1       4.519  -0.183  27.571  0.00  0.00    +0.187 C 
ATOM     47  C   UNL     1       3.619  -1.445  27.966  0.00  0.00    +0.092 C 
ATOM     48  C   UNL     1       2.450  -0.939  28.808  0.00  0.00    +0.053 C 
ATOM     49  C   UNL     1       1.754   0.237  28.099  0.00  0.00    +0.120 C 
ATOM     50  C   UNL     1       0.839   0.897  29.135  0.00  0.00    +0.038 C 
ATOM     51  O   UNL     1       2.629   1.240  27.521  0.00  0.00    -0.346 OA
BRANCH  47  52
ATOM     52  N   UNL     1       4.327  -2.690  28.411  0.00  0.00    -0.303 NA
ATOM     53  C   UNL     1       4.310  -3.795  27.425  0.00  0.00    +0.105 C 
ATOM     54  C   UNL     1       3.982  -3.183  29.740  0.00  0.00    +0.105 C 
ENDBRANCH  47  52
BRANCH  46  55
ATOM     55  O   UNL     1       5.769  -0.629  27.103  0.00  0.00    -0.385 OA
ATOM     56  H   UNL     1       6.384   0.096  27.312  0.00  0.00    +0.210 HD
ENDBRANCH  46  55
ENDBRANCH  44  45
ENDBRANCH  20  44
TORSDOF 12
ENDMDL
MODEL 6
REMARK VINA RESULT:      -3.9      3.395      8.661
REMARK  Name = 
REMARK  26 active torsions:
REMARK  status: ('A' for Active; 'I' for Inactive)
REMARK    1  A    between atoms: C_2  and  O_15
REMARK    2  A    between atoms: C_4  and  C_5
REMARK    3  A    between atoms: C_4  and  O_6
REMARK    4  A    between atoms: O_6  and  C_7
REMARK    5  A    between atoms: C_8  and  O_10
REMARK    6  A    between atoms: C_11  and  C_13
REMARK    7  A    between atoms: O_15  and  C_16
REMARK    8  A    between atoms: C_18  and  C_20
REMARK    9  A    between atoms: C_21  and  O_23
REMARK   10  A    between atoms: O_23  and  C_24
REMARK   11  A    between atoms: C_27  and  C_29
REMARK   12  A    between atoms: C_31  and  N_36
REMARK   13  A    between atoms: C_33  and  O_35
REMARK   14  A    between atoms: N_36  and  C_37
REMARK   15  A    between atoms: N_36  and  C_38
REMARK   16  A    between atoms: C_39  and  C_40
REMARK   17  A    between atoms: C_39  and  O_66
REMARK   18  A    between atoms: C_42  and  C_44
REMARK   19  A    between atoms: C_47  and  C_49
REMARK   20  A    between atoms: C_50  and  O_52
REMARK   21  A    between atoms: C_53  and  C_54
REMARK   22  A    between atoms: C_53  and  O_55
REMARK   23  A    between atoms: C_56  and  C_58
REMARK   24  A    between atoms: C_58  and  C_59
REMARK   25  A    between atoms: C_63  and  C_65
REMARK   26  A    between atoms: O_66  and  C_67
REMARK                            x       y       z     vdW  Elec       q    Type
REMARK                         _______ _______ _______ _____ _____    ______ ____
ROOT
ATOM      1  C   UNL     1       5.920   3.832  23.637  0.00  0.00    +0.140 C 
ATOM      2  C   UNL     1       6.119   5.246  24.517  0.00  0.00    +0.124 C 
ATOM      3  C   UNL     1       4.931   5.851  25.266  0.00  0.00    +0.022 C 
ATOM      4  C   UNL     1       7.376   5.835  25.196  0.00  0.00    +0.313 C 
ATOM      5  O   UNL     1       8.291   6.294  24.508  0.00  0.00    -0.250 OA
ATOM      6  O   UNL     1       7.356   6.113  26.543  0.00  0.00    -0.458 OA
ATOM      7  C   UNL     1       6.914   5.287  27.696  0.00  0.00    +0.210 C 
ATOM      8  C   UNL     1       5.811   6.010  28.663  0.00  0.00    +0.126 C 
ATOM      9  C   UNL     1       6.612   6.701  29.825  0.00  0.00    +0.048 C 
ATOM     10  C   UNL     1       4.705   5.124  29.421  0.00  0.00    +0.159 C 
ATOM     11  C   UNL     1       3.183   4.986  28.994  0.00  0.00    +0.084 C 
ATOM     12  C   UNL     1       2.598   6.212  28.354  0.00  0.00    +0.018 C 
ATOM     13  C   UNL     1       2.704   3.619  28.527  0.00  0.00    +0.142 C 
ATOM     14  O   UNL     1       3.233   2.664  29.122  0.00  0.00    -0.297 OA
ATOM     15  C   UNL     1       1.380   3.336  27.713  0.00  0.00    +0.055 C 
ATOM     16  C   UNL     1       0.467   2.318  28.441  0.00  0.00    +0.015 C 
ATOM     17  C   UNL     1       1.323   2.982  26.175  0.00  0.00    +0.048 C 
ATOM     18  C   UNL     1       2.142   3.696  25.085  0.00  0.00    +0.093 C 
ATOM     19  C   UNL     1       1.285   3.770  23.759  0.00  0.00    +0.044 C 
ATOM     20  C   UNL     1       3.516   2.858  24.637  0.00  0.00    +0.158 C 
ATOM     21  C   UNL     1       4.387   3.595  23.404  0.00  0.00    +0.047 C 
ATOM     22  C   UNL     1       3.841   4.756  22.529  0.00  0.00    +0.013 C 
ENDROOT
BRANCH   7  23
ATOM     23  C   UNL     1       6.710   3.824  27.323  0.00  0.00    +0.044 C 
ATOM     24  C   UNL     1       7.292   2.811  28.310  0.00  0.00    +0.007 C 
ENDBRANCH   7  23
BRANCH   8  25
ATOM     25  O   UNL     1       5.196   7.107  27.981  0.00  0.00    -0.383 OA
ATOM     26  H   UNL     1       5.869   7.594  27.474  0.00  0.00    +0.210 HD
ENDBRANCH   8  25
BRANCH  10  27
ATOM     27  O   UNL     1       5.296   3.945  29.973  0.00  0.00    -0.388 OA
ATOM     28  H   UNL     1       4.832   3.731  30.809  0.00  0.00    +0.210 HD
ENDBRANCH  10  27
BRANCH  18  29
ATOM     29  O   UNL     1       2.268   5.056  25.534  0.00  0.00    -0.374 OA
ATOM     30  C   UNL     1       1.302   5.998  25.018  0.00  0.00    +0.194 C 
ENDBRANCH  18  29
BRANCH   1  31
ATOM     31  O   UNL     1       6.509   2.512  23.909  0.00  0.00    -0.347 OA
BRANCH  31  32
ATOM     32  C   UNL     1       7.908   2.245  23.409  0.00  0.00    +0.254 C 
ATOM     33  O   UNL     1       8.129   1.536  22.173  0.00  0.00    -0.346 OA
ATOM     34  C   UNL     1       8.595   0.177  22.221  0.00  0.00    +0.149 C 
ATOM     35  C   UNL     1       8.922  -0.278  20.785  0.00  0.00    +0.041 C 
ATOM     36  C   UNL     1       9.866  -0.010  23.056  0.00  0.00    +0.175 C 
ATOM     37  C   UNL     1       9.622   0.441  24.502  0.00  0.00    +0.099 C 
ATOM     38  C   UNL     1      11.008   0.436  25.212  0.00  0.00    +0.044 C 
ATOM     39  C   UNL     1       8.946   1.849  24.525  0.00  0.00    +0.098 C 
BRANCH  36  40
ATOM     40  O   UNL     1      10.259  -1.402  23.056  0.00  0.00    -0.386 OA
ATOM     41  H   UNL     1       9.812  -1.785  22.272  0.00  0.00    +0.210 HD
ENDBRANCH  36  40
BRANCH  37  42
ATOM     42  O   UNL     1       8.808  -0.617  25.061  0.00  0.00    -0.374 OA
ATOM     43  C   UNL     1       8.731  -0.696  26.473  0.00  0.00    +0.194 C 
ENDBRANCH  37  42
ENDBRANCH  31  32
ENDBRANCH   1  31
BRANCH  20  44
ATOM     44  O   UNL     1       4.416   2.017  25.462  0.00  0.00    -0.342 OA
BRANCH  44  45
ATOM     45  C   UNL     1       4.401   0.635  25.929  0.00  0.00    +0.281 C 
ATOM     46  C   UNL     1       5.435  -0.485  25.512  0.00  0.00    +0.187 C 
ATOM     47  C   UNL     1       4.876  -1.907  25.987  0.00  0.00    +0.092 C 
ATOM     48  C   UNL     1       4.868  -1.918  27.514  0.00  0.00    +0.053 C 
ATOM     49  C   UNL     1       4.161  -0.660  28.051  0.00  0.00    +0.120 C 
ATOM     50  C   UNL     1       4.491  -0.572  29.544  0.00  0.00    +0.038 C 
ATOM     51  O   UNL     1       4.512   0.591  27.406  0.00  0.00    -0.346 OA
BRANCH  47  52
ATOM     52  N   UNL     1       5.380  -3.124  25.272  0.00  0.00    -0.303 NA
ATOM     53  C   UNL     1       4.337  -4.121  24.940  0.00  0.00    +0.105 C 
ATOM     54  C   UNL     1       6.545  -3.777  25.860  0.00  0.00    +0.105 C 
ENDBRANCH  47  52
BRANCH  46  55
ATOM     55  O   UNL     1       5.785  -0.552  24.150  0.00  0.00    -0.385 OA
ATOM     56  H   UNL     1       6.726  -0.806  24.149  0.00  0.00    +0.210 HD
ENDBRANCH  46  55
ENDBRANCH  44  45
ENDBRANCH  20  44
TORSDOF 12
ENDMDL
MODEL 7
REMARK VINA RESULT:      -3.7      3.392      8.387
REMARK  Name = 
REMARK  26 active torsions:
REMARK  status: ('A' for Active; 'I' for Inactive)
REMARK    1  A    between atoms: C_2  and  O_15
REMARK    2  A    between atoms: C_4  and  C_5
REMARK    3  A    between atoms: C_4  and  O_6
REMARK    4  A    between atoms: O_6  and  C_7
REMARK    5  A    between atoms: C_8  and  O_10
REMARK    6  A    between atoms: C_11  and  C_13
REMARK    7  A    between atoms: O_15  and  C_16
REMARK    8  A    between atoms: C_18  and  C_20
REMARK    9  A    between atoms: C_21  and  O_23
REMARK   10  A    between atoms: O_23  and  C_24
REMARK   11  A    between atoms: C_27  and  C_29
REMARK   12  A    between atoms: C_31  and  N_36
REMARK   13  A    between atoms: C_33  and  O_35
REMARK   14  A    between atoms: N_36  and  C_37
REMARK   15  A    between atoms: N_36  and  C_38
REMARK   16  A    between atoms: C_39  and  C_40
REMARK   17  A    between atoms: C_39  and  O_66
REMARK   18  A    between atoms: C_42  and  C_44
REMARK   19  A    between atoms: C_47  and  C_49
REMARK   20  A    between atoms: C_50  and  O_52
REMARK   21  A    between atoms: C_53  and  C_54
REMARK   22  A    between atoms: C_53  and  O_55
REMARK   23  A    between atoms: C_56  and  C_58
REMARK   24  A    between atoms: C_58  and  C_59
REMARK   25  A    between atoms: C_63  and  C_65
REMARK   26  A    between atoms: O_66  and  C_67
REMARK                            x       y       z     vdW  Elec       q    Type
REMARK                         _______ _______ _______ _____ _____    ______ ____
ROOT
ATOM      1  C   UNL     1       3.949   0.872  27.891  0.00  0.00    +0.140 C 
ATOM      2  C   UNL     1       2.602   1.865  27.772  0.00  0.00    +0.124 C 
ATOM      3  C   UNL     1       2.699   3.334  28.187  0.00  0.00    +0.022 C 
ATOM      4  C   UNL     1       1.377   1.784  26.834  0.00  0.00    +0.313 C 
ATOM      5  O   UNL     1       0.539   0.893  26.989  0.00  0.00    -0.250 OA
ATOM      6  O   UNL     1       1.068   2.851  26.023  0.00  0.00    -0.458 OA
ATOM      7  C   UNL     1       1.922   3.658  25.114  0.00  0.00    +0.210 C 
ATOM      8  C   UNL     1       1.860   5.270  25.380  0.00  0.00    +0.126 C 
ATOM      9  C   UNL     1       0.768   5.847  24.408  0.00  0.00    +0.048 C 
ATOM     10  C   UNL     1       3.155   6.180  25.100  0.00  0.00    +0.159 C 
ATOM     11  C   UNL     1       4.132   6.759  26.208  0.00  0.00    +0.084 C 
ATOM     12  C   UNL     1       3.473   7.083  27.518  0.00  0.00    +0.018 C 
ATOM     13  C   UNL     1       5.566   6.247  26.220  0.00  0.00    +0.142 C 
ATOM     14  O   UNL     1       6.033   6.018  25.090  0.00  0.00    -0.297 OA
ATOM     15  C   UNL     1       6.580   6.379  27.423  0.00  0.00    +0.055 C 
ATOM     16  C   UNL     1       7.881   7.104  26.997  0.00  0.00    +0.015 C 
ATOM     17  C   UNL     1       7.009   5.196  28.377  0.00  0.00    +0.048 C 
ATOM     18  C   UNL     1       6.036   4.165  28.979  0.00  0.00    +0.093 C 
ATOM     19  C   UNL     1       6.532   3.769  30.427  0.00  0.00    +0.044 C 
ATOM     20  C   UNL     1       6.012   2.717  28.146  0.00  0.00    +0.158 C 
ATOM     21  C   UNL     1       5.002   1.561  28.827  0.00  0.00    +0.047 C 
ATOM     22  C   UNL     1       4.390   1.672  30.252  0.00  0.00    +0.013 C 
ENDROOT
BRANCH   7  23
ATOM     23  C   UNL     1       3.279   3.012  24.861  0.00  0.00    +0.044 C 
ATOM     24  C   UNL     1       3.692   2.916  23.392  0.00  0.00    +0.007 C 
ENDBRANCH   7  23
BRANCH   8  25
ATOM     25  O   UNL     1       1.327   5.539  26.680  0.00  0.00    -0.383 OA
ATOM     26  H   UNL     1       1.270   4.710  27.187  0.00  0.00    +0.210 HD
ENDBRANCH   8  25
BRANCH  10  27
ATOM     27  O   UNL     1       3.777   5.806  23.870  0.00  0.00    -0.388 OA
ATOM     28  H   UNL     1       3.118   5.893  23.151  0.00  0.00    +0.210 HD
ENDBRANCH  10  27
BRANCH  18  29
ATOM     29  O   UNL     1       4.804   4.877  29.179  0.00  0.00    -0.374 OA
ATOM     30  C   UNL     1       4.600   5.460  30.485  0.00  0.00    +0.194 C 
ENDBRANCH  18  29
BRANCH   1  31
ATOM     31  O   UNL     1       4.709   0.250  26.796  0.00  0.00    -0.347 OA
BRANCH  31  32
ATOM     32  C   UNL     1       4.339  -1.155  26.388  0.00  0.00    +0.254 C 
ATOM     33  O   UNL     1       3.837  -2.099  27.355  0.00  0.00    -0.346 OA
ATOM     34  C   UNL     1       4.695  -3.161  27.806  0.00  0.00    +0.149 C 
ATOM     35  C   UNL     1       3.866  -4.120  28.682  0.00  0.00    +0.041 C 
ATOM     36  C   UNL     1       5.296  -3.992  26.668  0.00  0.00    +0.175 C 
ATOM     37  C   UNL     1       6.126  -3.097  25.737  0.00  0.00    +0.099 C 
ATOM     38  C   UNL     1       6.502  -3.964  24.500  0.00  0.00    +0.044 C 
ATOM     39  C   UNL     1       5.314  -1.821  25.346  0.00  0.00    +0.098 C 
BRANCH  36  40
ATOM     40  O   UNL     1       6.148  -5.029  27.207  0.00  0.00    -0.386 OA
ATOM     41  H   UNL     1       6.596  -5.413  26.424  0.00  0.00    +0.210 HD
ENDBRANCH  36  40
BRANCH  37  42
ATOM     42  O   UNL     1       7.327  -2.826  26.499  0.00  0.00    -0.374 OA
ATOM     43  C   UNL     1       8.562  -3.182  25.905  0.00  0.00    +0.194 C 
ENDBRANCH  37  42
ENDBRANCH  31  32
ENDBRANCH   1  31
BRANCH  20  44
ATOM     44  O   UNL     1       6.165   2.465  26.693  0.00  0.00    -0.342 OA
BRANCH  44  45
ATOM     45  C   UNL     1       7.294   2.363  25.774  0.00  0.00    +0.281 C 
ATOM     46  C   UNL     1       7.967   1.015  25.294  0.00  0.00    +0.187 C 
ATOM     47  C   UNL     1       9.347   1.360  24.563  0.00  0.00    +0.092 C 
ATOM     48  C   UNL     1       9.019   2.122  23.281  0.00  0.00    +0.053 C 
ATOM     49  C   UNL     1       8.065   3.291  23.588  0.00  0.00    +0.120 C 
ATOM     50  C   UNL     1       7.520   3.780  22.242  0.00  0.00    +0.038 C 
ATOM     51  O   UNL     1       6.957   2.993  24.477  0.00  0.00    -0.346 OA
BRANCH  47  52
ATOM     52  N   UNL     1      10.386   0.280  24.499  0.00  0.00    -0.303 NA
ATOM     53  C   UNL     1      11.783   0.770  24.458  0.00  0.00    +0.105 C 
ATOM     54  C   UNL     1      10.175  -0.753  23.492  0.00  0.00    +0.105 C 
ENDBRANCH  47  52
BRANCH  46  55
ATOM     55  O   UNL     1       8.191   0.032  26.276  0.00  0.00    -0.385 OA
ATOM     56  H   UNL     1       9.048  -0.365  26.037  0.00  0.00    +0.210 HD
ENDBRANCH  46  55
ENDBRANCH  44  45
ENDBRANCH  20  44
TORSDOF 12
ENDMDL
MODEL 8
REMARK VINA RESULT:      -3.7      4.352      8.049
REMARK  Name = 
REMARK  26 active torsions:
REMARK  status: ('A' for Active; 'I' for Inactive)
REMARK    1  A    between atoms: C_2  and  O_15
REMARK    2  A    between atoms: C_4  and  C_5
REMARK    3  A    between atoms: C_4  and  O_6
REMARK    4  A    between atoms: O_6  and  C_7
REMARK    5  A    between atoms: C_8  and  O_10
REMARK    6  A    between atoms: C_11  and  C_13
REMARK    7  A    between atoms: O_15  and  C_16
REMARK    8  A    between atoms: C_18  and  C_20
REMARK    9  A    between atoms: C_21  and  O_23
REMARK   10  A    between atoms: O_23  and  C_24
REMARK   11  A    between atoms: C_27  and  C_29
REMARK   12  A    between atoms: C_31  and  N_36
REMARK   13  A    between atoms: C_33  and  O_35
REMARK   14  A    between atoms: N_36  and  C_37
REMARK   15  A    between atoms: N_36  and  C_38
REMARK   16  A    between atoms: C_39  and  C_40
REMARK   17  A    between atoms: C_39  and  O_66
REMARK   18  A    between atoms: C_42  and  C_44
REMARK   19  A    between atoms: C_47  and  C_49
REMARK   20  A    between atoms: C_50  and  O_52
REMARK   21  A    between atoms: C_53  and  C_54
REMARK   22  A    between atoms: C_53  and  O_55
REMARK   23  A    between atoms: C_56  and  C_58
REMARK   24  A    between atoms: C_58  and  C_59
REMARK   25  A    between atoms: C_63  and  C_65
REMARK   26  A    between atoms: O_66  and  C_67
REMARK                            x       y       z     vdW  Elec       q    Type
REMARK                         _______ _______ _______ _____ _____    ______ ____
ROOT
ATOM      1  C   UNL     1       7.478   2.418  24.333  0.00  0.00    +0.140 C 
ATOM      2  C   UNL     1       7.792   2.096  25.949  0.00  0.00    +0.124 C 
ATOM      3  C   UNL     1       7.511   3.163  27.008  0.00  0.00    +0.022 C 
ATOM      4  C   UNL     1       7.822   0.755  26.716  0.00  0.00    +0.313 C 
ATOM      5  O   UNL     1       8.736  -0.049  26.517  0.00  0.00    -0.250 OA
ATOM      6  O   UNL     1       7.011   0.578  27.812  0.00  0.00    -0.458 OA
ATOM      7  C   UNL     1       5.561   0.846  27.999  0.00  0.00    +0.210 C 
ATOM      8  C   UNL     1       5.208   1.797  29.280  0.00  0.00    +0.126 C 
ATOM      9  C   UNL     1       4.899   0.836  30.485  0.00  0.00    +0.048 C 
ATOM     10  C   UNL     1       3.936   2.778  29.225  0.00  0.00    +0.159 C 
ATOM     11  C   UNL     1       3.991   4.347  28.986  0.00  0.00    +0.084 C 
ATOM     12  C   UNL     1       5.215   5.021  29.534  0.00  0.00    +0.018 C 
ATOM     13  C   UNL     1       3.373   4.886  27.704  0.00  0.00    +0.142 C 
ATOM     14  O   UNL     1       2.356   4.273  27.333  0.00  0.00    -0.297 OA
ATOM     15  C   UNL     1       3.639   6.314  27.083  0.00  0.00    +0.055 C 
ATOM     16  C   UNL     1       2.324   7.108  26.891  0.00  0.00    +0.015 C 
ATOM     17  C   UNL     1       4.532   6.593  25.811  0.00  0.00    +0.048 C 
ATOM     18  C   UNL     1       5.903   5.944  25.547  0.00  0.00    +0.093 C 
ATOM     19  C   UNL     1       6.836   6.986  24.810  0.00  0.00    +0.044 C 
ATOM     20  C   UNL     1       5.826   4.649  24.495  0.00  0.00    +0.158 C 
ATOM     21  C   UNL     1       7.323   3.969  24.150  0.00  0.00    +0.047 C 
ATOM     22  C   UNL     1       8.682   4.639  24.492  0.00  0.00    +0.013 C 
ENDROOT
BRANCH   7  23
ATOM     23  C   UNL     1       4.840   1.098  26.680  0.00  0.00    +0.044 C 
ATOM     24  C   UNL     1       4.290  -0.149  25.987  0.00  0.00    +0.007 C 
ENDBRANCH   7  23
BRANCH   8  25
ATOM     25  O   UNL     1       6.374   2.508  29.708  0.00  0.00    -0.383 OA
ATOM     26  H   UNL     1       6.199   3.465  29.683  0.00  0.00    +0.210 HD
ENDBRANCH   8  25
BRANCH  10  27
ATOM     27  O   UNL     1       2.809   2.111  28.652  0.00  0.00    -0.388 OA
ATOM     28  H   UNL     1       2.812   2.275  27.687  0.00  0.00    +0.210 HD
ENDBRANCH  10  27
BRANCH  18  29
ATOM     29  O   UNL     1       6.490   5.757  26.845  0.00  0.00    -0.374 OA
ATOM     30  C   UNL     1       7.276   6.853  27.362  0.00  0.00    +0.194 C 
ENDBRANCH  18  29
BRANCH   1  31
ATOM     31  O   UNL     1       6.464   1.793  23.471  0.00  0.00    -0.347 OA
BRANCH  31  32
ATOM     32  C   UNL     1       6.848   0.542  22.720  0.00  0.00    +0.254 C 
ATOM     33  O   UNL     1       6.419  -0.756  23.178  0.00  0.00    -0.346 OA
ATOM     34  C   UNL     1       7.375  -1.628  23.803  0.00  0.00    +0.149 C 
ATOM     35  C   UNL     1       6.711  -3.001  24.026  0.00  0.00    +0.041 C 
ATOM     36  C   UNL     1       8.635  -1.865  22.964  0.00  0.00    +0.175 C 
ATOM     37  C   UNL     1       9.345  -0.533  22.685  0.00  0.00    +0.099 C 
ATOM     38  C   UNL     1      10.466  -0.833  21.648  0.00  0.00    +0.044 C 
ATOM     39  C   UNL     1       8.322   0.528  22.166  0.00  0.00    +0.098 C 
BRANCH  36  40
ATOM     40  O   UNL     1       9.542  -2.744  23.668  0.00  0.00    -0.386 OA
ATOM     41  H   UNL     1       9.975  -3.270  22.962  0.00  0.00    +0.210 HD
ENDBRANCH  36  40
BRANCH  37  42
ATOM     42  O   UNL     1       9.958  -0.197  23.951  0.00  0.00    -0.374 OA
ATOM     43  C   UNL     1      10.992   0.771  23.931  0.00  0.00    +0.194 C 
ENDBRANCH  37  42
ENDBRANCH  31  32
ENDBRANCH   1  31
BRANCH  20  44
ATOM     44  O   UNL     1       4.757   3.636  24.326  0.00  0.00    -0.342 OA
BRANCH  44  45
ATOM     45  C   UNL     1       3.362   3.666  23.900  0.00  0.00    +0.281 C 
ATOM     46  C   UNL     1       2.844   3.385  22.434  0.00  0.00    +0.187 C 
ATOM     47  C   UNL     1       1.311   3.831  22.333  0.00  0.00    +0.092 C 
ATOM     48  C   UNL     1       0.495   2.904  23.230  0.00  0.00    +0.053 C 
ATOM     49  C   UNL     1       1.125   2.833  24.634  0.00  0.00    +0.120 C 
ATOM     50  C   UNL     1       0.471   1.647  25.351  0.00  0.00    +0.038 C 
ATOM     51  O   UNL     1       2.568   2.686  24.677  0.00  0.00    -0.346 OA
BRANCH  47  52
ATOM     52  N   UNL     1       0.772   4.156  20.972  0.00  0.00    -0.303 NA
ATOM     53  C   UNL     1       1.061   3.139  19.936  0.00  0.00    +0.105 C 
ATOM     54  C   UNL     1       1.062   5.495  20.472  0.00  0.00    +0.105 C 
ENDBRANCH  47  52
BRANCH  46  55
ATOM     55  O   UNL     1       3.571   3.969  21.380  0.00  0.00    -0.385 OA
ATOM     56  H   UNL     1       4.505   3.823  21.613  0.00  0.00    +0.210 HD
ENDBRANCH  46  55
ENDBRANCH  44  45
ENDBRANCH  20  44
TORSDOF 12
ENDMDL
MODEL 9
REMARK VINA RESULT:      -3.3      3.595      8.681
REMARK  Name = 
REMARK  26 active torsions:
REMARK  status: ('A' for Active; 'I' for Inactive)
REMARK    1  A    between atoms: C_2  and  O_15
REMARK    2  A    between atoms: C_4  and  C_5
REMARK    3  A    between atoms: C_4  and  O_6
REMARK    4  A    between atoms: O_6  and  C_7
REMARK    5  A    between atoms: C_8  and  O_10
REMARK    6  A    between atoms: C_11  and  C_13
REMARK    7  A    between atoms: O_15  and  C_16
REMARK    8  A    between atoms: C_18  and  C_20
REMARK    9  A    between atoms: C_21  and  O_23
REMARK   10  A    between atoms: O_23  and  C_24
REMARK   11  A    between atoms: C_27  and  C_29
REMARK   12  A    between atoms: C_31  and  N_36
REMARK   13  A    between atoms: C_33  and  O_35
REMARK   14  A    between atoms: N_36  and  C_37
REMARK   15  A    between atoms: N_36  and  C_38
REMARK   16  A    between atoms: C_39  and  C_40
REMARK   17  A    between atoms: C_39  and  O_66
REMARK   18  A    between atoms: C_42  and  C_44
REMARK   19  A    between atoms: C_47  and  C_49
REMARK   20  A    between atoms: C_50  and  O_52
REMARK   21  A    between atoms: C_53  and  C_54
REMARK   22  A    between atoms: C_53  and  O_55
REMARK   23  A    between atoms: C_56  and  C_58
REMARK   24  A    between atoms: C_58  and  C_59
REMARK   25  A    between atoms: C_63  and  C_65
REMARK   26  A    between atoms: O_66  and  C_67
REMARK                            x       y       z     vdW  Elec       q    Type
REMARK                         _______ _______ _______ _____ _____    ______ ____
ROOT
ATOM      1  C   UNL     1       5.077   2.914  23.506  0.00  0.00    +0.140 C 
ATOM      2  C   UNL     1       5.746   4.388  23.947  0.00  0.00    +0.124 C 
ATOM      3  C   UNL     1       4.902   5.412  24.708  0.00  0.00    +0.022 C 
ATOM      4  C   UNL     1       7.214   4.778  24.226  0.00  0.00    +0.313 C 
ATOM      5  O   UNL     1       8.024   4.841  23.297  0.00  0.00    -0.250 OA
ATOM      6  O   UNL     1       7.555   5.329  25.439  0.00  0.00    -0.458 OA
ATOM      7  C   UNL     1       7.229   4.900  26.824  0.00  0.00    +0.210 C 
ATOM      8  C   UNL     1       6.539   6.059  27.747  0.00  0.00    +0.126 C 
ATOM      9  C   UNL     1       7.702   6.760  28.538  0.00  0.00    +0.048 C 
ATOM     10  C   UNL     1       5.479   5.654  28.885  0.00  0.00    +0.159 C 
ATOM     11  C   UNL     1       3.903   5.809  28.776  0.00  0.00    +0.084 C 
ATOM     12  C   UNL     1       3.444   6.978  27.952  0.00  0.00    +0.018 C 
ATOM     13  C   UNL     1       3.069   4.536  28.764  0.00  0.00    +0.142 C 
ATOM     14  O   UNL     1       3.519   3.627  29.484  0.00  0.00    -0.297 OA
ATOM     15  C   UNL     1       1.567   4.424  28.289  0.00  0.00    +0.055 C 
ATOM     16  C   UNL     1       0.658   3.840  29.398  0.00  0.00    +0.015 C 
ATOM     17  C   UNL     1       1.096   3.779  26.926  0.00  0.00    +0.048 C 
ATOM     18  C   UNL     1       1.773   4.023  25.566  0.00  0.00    +0.093 C 
ATOM     19  C   UNL     1       0.671   4.025  24.432  0.00  0.00    +0.044 C 
ATOM     20  C   UNL     1       2.815   2.797  25.119  0.00  0.00    +0.158 C 
ATOM     21  C   UNL     1       3.515   3.019  23.608  0.00  0.00    +0.047 C 
ATOM     22  C   UNL     1       3.027   4.069  22.571  0.00  0.00    +0.013 C 
ENDROOT
BRANCH   7  23
ATOM     23  C   UNL     1       6.660   3.487  26.879  0.00  0.00    +0.044 C 
ATOM     24  C   UNL     1       7.637   2.374  26.500  0.00  0.00    +0.007 C 
ENDBRANCH   7  23
BRANCH   8  25
ATOM     25  O   UNL     1       6.016   7.106  26.922  0.00  0.00    -0.383 OA
ATOM     26  H   UNL     1       5.906   6.779  26.012  0.00  0.00    +0.210 HD
ENDBRANCH   8  25
BRANCH  10  27
ATOM     27  O   UNL     1       5.932   4.509  29.611  0.00  0.00    -0.388 OA
ATOM     28  H   UNL     1       5.329   3.763  29.418  0.00  0.00    +0.210 HD
ENDBRANCH  10  27
BRANCH  18  29
ATOM     29  O   UNL     1       2.264   5.373  25.622  0.00  0.00    -0.374 OA
ATOM     30  C   UNL     1       1.415   6.393  25.054  0.00  0.00    +0.194 C 
ENDBRANCH  18  29
BRANCH   1  31
ATOM     31  O   UNL     1       5.437   1.577  24.002  0.00  0.00    -0.347 OA
BRANCH  31  32
ATOM     32  C   UNL     1       6.218   0.670  23.084  0.00  0.00    +0.254 C 
ATOM     33  O   UNL     1       6.422  -0.719  23.413  0.00  0.00    -0.346 OA
ATOM     34  C   UNL     1       7.717  -1.149  23.863  0.00  0.00    +0.149 C 
ATOM     35  C   UNL     1       7.713  -2.686  23.967  0.00  0.00    +0.041 C 
ATOM     36  C   UNL     1       8.858  -0.762  22.915  0.00  0.00    +0.175 C 
ATOM     37  C   UNL     1       8.914   0.762  22.746  0.00  0.00    +0.099 C 
ATOM     38  C   UNL     1       9.934   1.049  21.605  0.00  0.00    +0.044 C 
ATOM     39  C   UNL     1       7.492   1.326  22.429  0.00  0.00    +0.098 C 
BRANCH  36  40
ATOM     40  O   UNL     1      10.121  -1.224  23.444  0.00  0.00    -0.386 OA
ATOM     41  H   UNL     1       9.932  -2.123  23.788  0.00  0.00    +0.210 HD
ENDBRANCH  36  40
BRANCH  37  42
ATOM     42  O   UNL     1       9.472   1.228  23.998  0.00  0.00    -0.374 OA
ATOM     43  C   UNL     1      10.543   2.152  23.924  0.00  0.00    +0.194 C 
ENDBRANCH  37  42
ENDBRANCH  31  32
ENDBRANCH   1  31
BRANCH  20  44
ATOM     44  O   UNL     1       3.693   1.953  25.965  0.00  0.00    -0.342 OA
BRANCH  44  45
ATOM     45  C   UNL     1       3.490   0.809  26.848  0.00  0.00    +0.281 C 
ATOM     46  C   UNL     1       2.186  -0.082  26.909  0.00  0.00    +0.187 C 
ATOM     47  C   UNL     1       2.254  -1.008  28.211  0.00  0.00    +0.092 C 
ATOM     48  C   UNL     1       3.404  -1.994  28.023  0.00  0.00    +0.053 C 
ATOM     49  C   UNL     1       4.686  -1.244  27.615  0.00  0.00    +0.120 C 
ATOM     50  C   UNL     1       5.677  -2.302  27.119  0.00  0.00    +0.038 C 
ATOM     51  O   UNL     1       4.528  -0.219  26.601  0.00  0.00    -0.346 OA
BRANCH  47  52
ATOM     52  N   UNL     1       0.959  -1.526  28.761  0.00  0.00    -0.303 NA
ATOM     53  C   UNL     1       0.914  -1.629  30.238  0.00  0.00    +0.105 C 
ATOM     54  C   UNL     1       0.443  -2.744  28.146  0.00  0.00    +0.105 C 
ENDBRANCH  47  52
BRANCH  46  55
ATOM     55  O   UNL     1       0.952   0.594  26.880  0.00  0.00    -0.385 OA
ATOM     56  H   UNL     1       1.144   1.440  26.437  0.00  0.00    +0.210 HD
ENDBRANCH  46  55
ENDBRANCH  44  45
ENDBRANCH  20  44
TORSDOF 12
ENDMDL
