MODEL 1
REMARK VINA RESULT:      -7.2      0.000      0.000
REMARK  Name = 
REMARK  4 active torsions:
REMARK  status: ('A' for Active; 'I' for Inactive)
REMARK    1  A    between atoms: O_1  and  C_2
REMARK    2  A    between atoms: C_3  and  O_4
REMARK    3  A    between atoms: C_12  and  O_13
REMARK    4  A    between atoms: C_16  and  O_17
REMARK                            x       y       z     vdW  Elec       q    Type
REMARK                         _______ _______ _______ _____ _____    ______ ____
ROOT
ATOM      1  C   UNL     1       7.658  -4.807  26.831  0.00  0.00    +0.159 A 
ATOM      2  C   UNL     1       6.520  -4.075  27.133  0.00  0.00    +0.050 A 
ATOM      3  C   UNL     1       6.229  -2.929  26.400  0.00  0.00    +0.016 A 
ATOM      4  C   UNL     1       7.096  -2.497  25.382  0.00  0.00    +0.037 A 
ATOM      5  C   UNL     1       6.766  -1.268  24.647  0.00  0.00    +0.198 C 
ATOM      6  C   UNL     1       7.650  -0.780  23.580  0.00  0.00    +0.078 A 
ATOM      7  C   UNL     1       8.824  -1.474  23.270  0.00  0.00    +0.078 A 
ATOM      8  C   UNL     1       9.186  -2.694  24.049  0.00  0.00    +0.202 C 
ATOM      9  O   UNL     1      10.276  -3.227  23.895  0.00  0.00    -0.286 OA
ATOM     10  C   UNL     1       9.645  -0.971  22.241  0.00  0.00    +0.129 A 
ATOM     11  C   UNL     1       9.310   0.197  21.550  0.00  0.00    +0.050 A 
ATOM     12  C   UNL     1       8.144   0.881  21.869  0.00  0.00    +0.050 A 
ATOM     13  C   UNL     1       7.318   0.393  22.875  0.00  0.00    +0.129 A 
ATOM     14  O   UNL     1       5.735  -0.640  24.917  0.00  0.00    -0.286 OA
ATOM     15  C   UNL     1       8.252  -3.227  25.076  0.00  0.00    +0.078 A 
ATOM     16  C   UNL     1       8.512  -4.410  25.796  0.00  0.00    +0.170 A 
ENDROOT
BRANCH   1  17
ATOM     17  O   UNL     1       7.887  -5.926  27.583  0.00  0.00    -0.503 OA
ATOM     18  H   UNL     1       7.442  -5.830  28.439  0.00  0.00    +0.292 HD
ENDBRANCH   1  17
BRANCH  10  19
ATOM     19  O   UNL     1      10.792  -1.618  21.874  0.00  0.00    -0.506 OA
ATOM     20  H   UNL     1      10.983  -2.348  22.480  0.00  0.00    +0.292 HD
ENDBRANCH  10  19
BRANCH  13  21
ATOM     21  O   UNL     1       6.187   1.126  23.122  0.00  0.00    -0.506 OA
ATOM     22  H   UNL     1       5.406   0.543  22.988  0.00  0.00    +0.292 HD
ENDBRANCH  13  21
BRANCH  16  23
ATOM     23  O   UNL     1       9.563  -5.227  25.474  0.00  0.00    -0.503 OA
ATOM     24  H   UNL     1       9.244  -6.136  25.350  0.00  0.00    +0.292 HD
ENDBRANCH  16  23
TORSDOF 4
ENDMDL
MODEL 2
REMARK VINA RESULT:      -7.0      1.216      6.087
REMARK  Name = 
REMARK  4 active torsions:
REMARK  status: ('A' for Active; 'I' for Inactive)
REMARK    1  A    between atoms: O_1  and  C_2
REMARK    2  A    between atoms: C_3  and  O_4
REMARK    3  A    between atoms: C_12  and  O_13
REMARK    4  A    between atoms: C_16  and  O_17
REMARK                            x       y       z     vdW  Elec       q    Type
REMARK                         _______ _______ _______ _____ _____    ______ ____
ROOT
ATOM      1  C   UNL     1       8.545   1.300  21.983  0.00  0.00    +0.159 A 
ATOM      2  C   UNL     1       9.823   0.783  21.837  0.00  0.00    +0.050 A 
ATOM      3  C   UNL     1      10.123  -0.464  22.374  0.00  0.00    +0.016 A 
ATOM      4  C   UNL     1       9.148  -1.184  23.087  0.00  0.00    +0.037 A 
ATOM      5  C   UNL     1       9.510  -2.488  23.660  0.00  0.00    +0.198 C 
ATOM      6  C   UNL     1       8.522  -3.267  24.418  0.00  0.00    +0.078 A 
ATOM      7  C   UNL     1       7.233  -2.762  24.614  0.00  0.00    +0.078 A 
ATOM      8  C   UNL     1       6.878  -1.416  24.076  0.00  0.00    +0.202 C 
ATOM      9  O   UNL     1       5.809  -0.896  24.363  0.00  0.00    -0.286 OA
ATOM     10  C   UNL     1       6.316  -3.541  25.349  0.00  0.00    +0.129 A 
ATOM     11  C   UNL     1       6.678  -4.781  25.881  0.00  0.00    +0.050 A 
ATOM     12  C   UNL     1       7.964  -5.271  25.683  0.00  0.00    +0.050 A 
ATOM     13  C   UNL     1       8.877  -4.519  24.953  0.00  0.00    +0.129 A 
ATOM     14  O   UNL     1      10.649  -2.941  23.501  0.00  0.00    -0.286 OA
ATOM     15  C   UNL     1       7.856  -0.664  23.246  0.00  0.00    +0.078 A 
ATOM     16  C   UNL     1       7.554   0.581  22.659  0.00  0.00    +0.170 A 
ENDROOT
BRANCH   1  17
ATOM     17  O   UNL     1       8.311   2.528  21.428  0.00  0.00    -0.503 OA
ATOM     18  H   UNL     1       7.446   2.520  20.991  0.00  0.00    +0.292 HD
ENDBRANCH   1  17
BRANCH  10  19
ATOM     19  O   UNL     1       5.032  -3.114  25.553  0.00  0.00    -0.506 OA
ATOM     20  H   UNL     1       4.512  -3.795  26.002  0.00  0.00    +0.292 HD
ENDBRANCH  10  19
BRANCH  13  21
ATOM     21  O   UNL     1      10.119  -5.078  24.804  0.00  0.00    -0.506 OA
ATOM     22  H   UNL     1      10.462  -5.310  25.697  0.00  0.00    +0.292 HD
ENDBRANCH  13  21
BRANCH  16  23
ATOM     23  O   UNL     1       6.284   1.093  22.682  0.00  0.00    -0.503 OA
ATOM     24  H   UNL     1       5.861   0.956  21.819  0.00  0.00    +0.292 HD
ENDBRANCH  16  23
TORSDOF 4
ENDMDL
MODEL 3
REMARK VINA RESULT:      -6.8      1.129      3.218
REMARK  Name = 
REMARK  4 active torsions:
REMARK  status: ('A' for Active; 'I' for Inactive)
REMARK    1  A    between atoms: O_1  and  C_2
REMARK    2  A    between atoms: C_3  and  O_4
REMARK    3  A    between atoms: C_12  and  O_13
REMARK    4  A    between atoms: C_16  and  O_17
REMARK                            x       y       z     vdW  Elec       q    Type
REMARK                         _______ _______ _______ _____ _____    ______ ____
ROOT
ATOM      1  C   UNL     1       8.192  -4.949  26.583  0.00  0.00    +0.159 A 
ATOM      2  C   UNL     1       9.333  -5.191  25.832  0.00  0.00    +0.050 A 
ATOM      3  C   UNL     1       9.706  -4.287  24.843  0.00  0.00    +0.016 A 
ATOM      4  C   UNL     1       8.918  -3.152  24.584  0.00  0.00    +0.037 A 
ATOM      5  C   UNL     1       9.332  -2.234  23.513  0.00  0.00    +0.198 C 
ATOM      6  C   UNL     1       8.532  -1.041  23.207  0.00  0.00    +0.078 A 
ATOM      7  C   UNL     1       7.357  -0.783  23.921  0.00  0.00    +0.078 A 
ATOM      8  C   UNL     1       6.908  -1.741  24.973  0.00  0.00    +0.202 C 
ATOM      9  O   UNL     1       5.813  -1.611  25.502  0.00  0.00    -0.286 OA
ATOM     10  C   UNL     1       6.618   0.372  23.593  0.00  0.00    +0.129 A 
ATOM     11  C   UNL     1       7.032   1.236  22.576  0.00  0.00    +0.050 A 
ATOM     12  C   UNL     1       8.198   0.967  21.870  0.00  0.00    +0.050 A 
ATOM     13  C   UNL     1       8.945  -0.162  22.187  0.00  0.00    +0.129 A 
ATOM     14  O   UNL     1      10.364  -2.456  22.869  0.00  0.00    -0.286 OA
ATOM     15  C   UNL     1       7.759  -2.905  25.332  0.00  0.00    +0.078 A 
ATOM     16  C   UNL     1       7.417  -3.806  26.360  0.00  0.00    +0.170 A 
ENDROOT
BRANCH   1  17
ATOM     17  O   UNL     1       7.881  -5.872  27.544  0.00  0.00    -0.503 OA
ATOM     18  H   UNL     1       7.513  -5.415  28.315  0.00  0.00    +0.292 HD
ENDBRANCH   1  17
BRANCH  10  19
ATOM     19  O   UNL     1       5.475   0.693  24.272  0.00  0.00    -0.506 OA
ATOM     20  H   UNL     1       5.322   0.073  24.999  0.00  0.00    +0.292 HD
ENDBRANCH  10  19
BRANCH  13  21
ATOM     21  O   UNL     1      10.081  -0.349  21.445  0.00  0.00    -0.506 OA
ATOM     22  H   UNL     1      10.709  -0.892  21.975  0.00  0.00    +0.292 HD
ENDBRANCH  13  21
BRANCH  16  23
ATOM     23  O   UNL     1       6.362  -3.566  27.200  0.00  0.00    -0.503 OA
ATOM     24  H   UNL     1       6.692  -3.372  28.092  0.00  0.00    +0.292 HD
ENDBRANCH  16  23
TORSDOF 4
ENDMDL
MODEL 4
REMARK VINA RESULT:      -6.5      2.265      5.450
REMARK  Name = 
REMARK  4 active torsions:
REMARK  status: ('A' for Active; 'I' for Inactive)
REMARK    1  A    between atoms: O_1  and  C_2
REMARK    2  A    between atoms: C_3  and  O_4
REMARK    3  A    between atoms: C_12  and  O_13
REMARK    4  A    between atoms: C_16  and  O_17
REMARK                            x       y       z     vdW  Elec       q    Type
REMARK                         _______ _______ _______ _____ _____    ______ ____
ROOT
ATOM      1  C   UNL     1       9.972   1.206  22.677  0.00  0.00    +0.159 A 
ATOM      2  C   UNL     1      10.085   1.439  24.040  0.00  0.00    +0.050 A 
ATOM      3  C   UNL     1       9.678   0.459  24.938  0.00  0.00    +0.016 A 
ATOM      4  C   UNL     1       9.126  -0.747  24.472  0.00  0.00    +0.037 A 
ATOM      5  C   UNL     1       8.685  -1.749  25.453  0.00  0.00    +0.198 C 
ATOM      6  C   UNL     1       8.097  -3.018  25.006  0.00  0.00    +0.078 A 
ATOM      7  C   UNL     1       7.936  -3.274  23.640  0.00  0.00    +0.078 A 
ATOM      8  C   UNL     1       8.337  -2.237  22.644  0.00  0.00    +0.202 C 
ATOM      9  O   UNL     1       8.070  -2.380  21.460  0.00  0.00    -0.286 OA
ATOM     10  C   UNL     1       7.366  -4.504  23.254  0.00  0.00    +0.129 A 
ATOM     11  C   UNL     1       6.958  -5.445  24.203  0.00  0.00    +0.050 A 
ATOM     12  C   UNL     1       7.118  -5.178  25.557  0.00  0.00    +0.050 A 
ATOM     13  C   UNL     1       7.688  -3.974  25.955  0.00  0.00    +0.129 A 
ATOM     14  O   UNL     1       8.813  -1.531  26.663  0.00  0.00    -0.286 OA
ATOM     15  C   UNL     1       9.001  -0.987  23.097  0.00  0.00    +0.078 A 
ATOM     16  C   UNL     1       9.458  -0.003  22.197  0.00  0.00    +0.170 A 
ENDROOT
BRANCH   1  17
ATOM     17  O   UNL     1      10.395   2.207  21.846  0.00  0.00    -0.503 OA
ATOM     18  H   UNL     1       9.749   2.929  21.864  0.00  0.00    +0.292 HD
ENDBRANCH   1  17
BRANCH  10  19
ATOM     19  O   UNL     1       7.207  -4.823  21.934  0.00  0.00    -0.506 OA
ATOM     20  H   UNL     1       6.284  -4.713  21.664  0.00  0.00    +0.292 HD
ENDBRANCH  10  19
BRANCH  13  21
ATOM     21  O   UNL     1       7.812  -3.795  27.308  0.00  0.00    -0.506 OA
ATOM     22  H   UNL     1       8.282  -2.945  27.464  0.00  0.00    +0.292 HD
ENDBRANCH  13  21
BRANCH  16  23
ATOM     23  O   UNL     1       9.467  -0.219  20.845  0.00  0.00    -0.503 OA
ATOM     24  H   UNL     1      10.280  -0.686  20.594  0.00  0.00    +0.292 HD
ENDBRANCH  16  23
TORSDOF 4
ENDMDL
MODEL 5
REMARK VINA RESULT:      -6.5      3.904      6.703
REMARK  Name = 
REMARK  4 active torsions:
REMARK  status: ('A' for Active; 'I' for Inactive)
REMARK    1  A    between atoms: O_1  and  C_2
REMARK    2  A    between atoms: C_3  and  O_4
REMARK    3  A    between atoms: C_12  and  O_13
REMARK    4  A    between atoms: C_16  and  O_17
REMARK                            x       y       z     vdW  Elec       q    Type
REMARK                         _______ _______ _______ _____ _____    ______ ____
ROOT
ATOM      1  C   UNL     1       8.637  -5.111  25.555  0.00  0.00    +0.159 A 
ATOM      2  C   UNL     1       8.419  -4.643  24.268  0.00  0.00    +0.050 A 
ATOM      3  C   UNL     1       7.138  -4.691  23.729  0.00  0.00    +0.016 A 
ATOM      4  C   UNL     1       6.076  -5.241  24.469  0.00  0.00    +0.037 A 
ATOM      5  C   UNL     1       4.742  -5.298  23.856  0.00  0.00    +0.198 C 
ATOM      6  C   UNL     1       3.608  -5.870  24.594  0.00  0.00    +0.078 A 
ATOM      7  C   UNL     1       3.798  -6.383  25.881  0.00  0.00    +0.078 A 
ATOM      8  C   UNL     1       5.162  -6.373  26.486  0.00  0.00    +0.202 C 
ATOM      9  O   UNL     1       5.375  -6.948  27.543  0.00  0.00    -0.286 OA
ATOM     10  C   UNL     1       2.684  -6.926  26.554  0.00  0.00    +0.129 A 
ATOM     11  C   UNL     1       1.422  -6.965  25.955  0.00  0.00    +0.050 A 
ATOM     12  C   UNL     1       1.246  -6.456  24.674  0.00  0.00    +0.050 A 
ATOM     13  C   UNL     1       2.333  -5.909  24.000  0.00  0.00    +0.129 A 
ATOM     14  O   UNL     1       4.564  -4.855  22.715  0.00  0.00    -0.286 OA
ATOM     15  C   UNL     1       6.290  -5.724  25.767  0.00  0.00    +0.078 A 
ATOM     16  C   UNL     1       7.584  -5.628  26.317  0.00  0.00    +0.170 A 
ENDROOT
BRANCH   1  17
ATOM     17  O   UNL     1       9.917  -5.030  26.030  0.00  0.00    -0.503 OA
ATOM     18  H   UNL     1      10.290  -5.923  26.091  0.00  0.00    +0.292 HD
ENDBRANCH   1  17
BRANCH  10  19
ATOM     19  O   UNL     1       2.799  -7.419  27.824  0.00  0.00    -0.506 OA
ATOM     20  H   UNL     1       3.081  -6.726  28.437  0.00  0.00    +0.292 HD
ENDBRANCH  10  19
BRANCH  13  21
ATOM     21  O   UNL     1       2.070  -5.428  22.745  0.00  0.00    -0.506 OA
ATOM     22  H   UNL     1       1.797  -6.183  22.176  0.00  0.00    +0.292 HD
ENDBRANCH  13  21
BRANCH  16  23
ATOM     23  O   UNL     1       7.837  -5.979  27.616  0.00  0.00    -0.503 OA
ATOM     24  H   UNL     1       7.036  -5.855  28.150  0.00  0.00    +0.292 HD
ENDBRANCH  16  23
TORSDOF 4
ENDMDL
MODEL 6
REMARK VINA RESULT:      -6.5      1.345      5.161
REMARK  Name = 
REMARK  4 active torsions:
REMARK  status: ('A' for Active; 'I' for Inactive)
REMARK    1  A    between atoms: O_1  and  C_2
REMARK    2  A    between atoms: C_3  and  O_4
REMARK    3  A    between atoms: C_12  and  O_13
REMARK    4  A    between atoms: C_16  and  O_17
REMARK                            x       y       z     vdW  Elec       q    Type
REMARK                         _______ _______ _______ _____ _____    ______ ____
ROOT
ATOM      1  C   UNL     1       8.870   0.951  22.175  0.00  0.00    +0.159 A 
ATOM      2  C   UNL     1       7.543   1.251  22.444  0.00  0.00    +0.050 A 
ATOM      3  C   UNL     1       6.786   0.375  23.215  0.00  0.00    +0.016 A 
ATOM      4  C   UNL     1       7.350  -0.821  23.691  0.00  0.00    +0.037 A 
ATOM      5  C   UNL     1       6.509  -1.733  24.481  0.00  0.00    +0.198 C 
ATOM      6  C   UNL     1       7.060  -2.996  24.992  0.00  0.00    +0.078 A 
ATOM      7  C   UNL     1       8.384  -3.347  24.711  0.00  0.00    +0.078 A 
ATOM      8  C   UNL     1       9.223  -2.447  23.867  0.00  0.00    +0.202 C 
ATOM      9  O   UNL     1      10.329  -2.805  23.490  0.00  0.00    -0.286 OA
ATOM     10  C   UNL     1       8.871  -4.569  25.219  0.00  0.00    +0.129 A 
ATOM     11  C   UNL     1       8.058  -5.419  25.972  0.00  0.00    +0.050 A 
ATOM     12  C   UNL     1       6.742  -5.061  26.241  0.00  0.00    +0.050 A 
ATOM     13  C   UNL     1       6.248  -3.855  25.756  0.00  0.00    +0.129 A 
ATOM     14  O   UNL     1       5.335  -1.437  24.728  0.00  0.00    -0.286 OA
ATOM     15  C   UNL     1       8.687  -1.135  23.417  0.00  0.00    +0.078 A 
ATOM     16  C   UNL     1       9.456  -0.218  22.672  0.00  0.00    +0.170 A 
ENDROOT
BRANCH   1  17
ATOM     17  O   UNL     1       9.563   1.854  21.418  0.00  0.00    -0.503 OA
ATOM     18  H   UNL     1      10.513   1.678  21.502  0.00  0.00    +0.292 HD
ENDBRANCH   1  17
BRANCH  10  19
ATOM     19  O   UNL     1      10.165  -4.956  25.001  0.00  0.00    -0.506 OA
ATOM     20  H   UNL     1      10.245  -5.427  24.159  0.00  0.00    +0.292 HD
ENDBRANCH  10  19
BRANCH  13  21
ATOM     21  O   UNL     1       4.943  -3.580  26.070  0.00  0.00    -0.506 OA
ATOM     22  H   UNL     1       4.380  -4.298  25.700  0.00  0.00    +0.292 HD
ENDBRANCH  13  21
BRANCH  16  23
ATOM     23  O   UNL     1      10.795  -0.411  22.464  0.00  0.00    -0.503 OA
ATOM     24  H   UNL     1      11.281  -0.255  23.290  0.00  0.00    +0.292 HD
ENDBRANCH  16  23
TORSDOF 4
ENDMDL
MODEL 7
REMARK VINA RESULT:      -6.4      3.185      4.609
REMARK  Name = 
REMARK  4 active torsions:
REMARK  status: ('A' for Active; 'I' for Inactive)
REMARK    1  A    between atoms: O_1  and  C_2
REMARK    2  A    between atoms: C_3  and  O_4
REMARK    3  A    between atoms: C_12  and  O_13
REMARK    4  A    between atoms: C_16  and  O_17
REMARK                            x       y       z     vdW  Elec       q    Type
REMARK                         _______ _______ _______ _____ _____    ______ ____
ROOT
ATOM      1  C   UNL     1       3.137  -7.050  26.029  0.00  0.00    +0.159 A 
ATOM      2  C   UNL     1       2.598  -6.494  24.878  0.00  0.00    +0.050 A 
ATOM      3  C   UNL     1       3.387  -5.671  24.081  0.00  0.00    +0.016 A 
ATOM      4  C   UNL     1       4.710  -5.378  24.453  0.00  0.00    +0.037 A 
ATOM      5  C   UNL     1       5.504  -4.484  23.597  0.00  0.00    +0.198 C 
ATOM      6  C   UNL     1       6.888  -4.148  23.956  0.00  0.00    +0.078 A 
ATOM      7  C   UNL     1       7.453  -4.662  25.127  0.00  0.00    +0.078 A 
ATOM      8  C   UNL     1       6.633  -5.529  26.023  0.00  0.00    +0.202 C 
ATOM      9  O   UNL     1       7.058  -5.865  27.119  0.00  0.00    -0.286 OA
ATOM     10  C   UNL     1       8.784  -4.313  25.435  0.00  0.00    +0.129 A 
ATOM     11  C   UNL     1       9.523  -3.466  24.605  0.00  0.00    +0.050 A 
ATOM     12  C   UNL     1       8.949  -2.957  23.446  0.00  0.00    +0.050 A 
ATOM     13  C   UNL     1       7.641  -3.299  23.123  0.00  0.00    +0.129 A 
ATOM     14  O   UNL     1       5.012  -4.016  22.564  0.00  0.00    -0.286 OA
ATOM     15  C   UNL     1       5.259  -5.928  25.619  0.00  0.00    +0.078 A 
ATOM     16  C   UNL     1       4.463  -6.795  26.394  0.00  0.00    +0.170 A 
ENDROOT
BRANCH   1  17
ATOM     17  O   UNL     1       2.314  -7.854  26.767  0.00  0.00    -0.503 OA
ATOM     18  H   UNL     1       2.575  -7.806  27.699  0.00  0.00    +0.292 HD
ENDBRANCH   1  17
BRANCH  10  19
ATOM     19  O   UNL     1       9.402  -4.804  26.551  0.00  0.00    -0.506 OA
ATOM     20  H   UNL     1       8.751  -5.032  27.231  0.00  0.00    +0.292 HD
ENDBRANCH  10  19
BRANCH  13  21
ATOM     21  O   UNL     1       7.156  -2.756  21.962  0.00  0.00    -0.506 OA
ATOM     22  H   UNL     1       6.313  -2.291  22.168  0.00  0.00    +0.292 HD
ENDBRANCH  13  21
BRANCH  16  23
ATOM     23  O   UNL     1       4.973  -7.453  27.482  0.00  0.00    -0.503 OA
ATOM     24  H   UNL     1       5.799  -7.029  27.763  0.00  0.00    +0.292 HD
ENDBRANCH  16  23
TORSDOF 4
ENDMDL
MODEL 8
REMARK VINA RESULT:      -6.4      0.820      3.283
REMARK  Name = 
REMARK  4 active torsions:
REMARK  status: ('A' for Active; 'I' for Inactive)
REMARK    1  A    between atoms: O_1  and  C_2
REMARK    2  A    between atoms: C_3  and  O_4
REMARK    3  A    between atoms: C_12  and  O_13
REMARK    4  A    between atoms: C_16  and  O_17
REMARK                            x       y       z     vdW  Elec       q    Type
REMARK                         _______ _______ _______ _____ _____    ______ ____
ROOT
ATOM      1  C   UNL     1       6.668  -4.200  27.184  0.00  0.00    +0.159 A 
ATOM      2  C   UNL     1       7.855  -4.847  26.875  0.00  0.00    +0.050 A 
ATOM      3  C   UNL     1       8.679  -4.328  25.881  0.00  0.00    +0.016 A 
ATOM      4  C   UNL     1       8.298  -3.174  25.174  0.00  0.00    +0.037 A 
ATOM      5  C   UNL     1       9.184  -2.671  24.114  0.00  0.00    +0.198 C 
ATOM      6  C   UNL     1       8.818  -1.472  23.347  0.00  0.00    +0.078 A 
ATOM      7  C   UNL     1       7.613  -0.814  23.609  0.00  0.00    +0.078 A 
ATOM      8  C   UNL     1       6.688  -1.353  24.649  0.00  0.00    +0.202 C 
ATOM      9  O   UNL     1       5.570  -0.881  24.789  0.00  0.00    -0.286 OA
ATOM     10  C   UNL     1       7.299   0.331  22.848  0.00  0.00    +0.129 A 
ATOM     11  C   UNL     1       8.157   0.797  21.849  0.00  0.00    +0.050 A 
ATOM     12  C   UNL     1       9.351   0.132  21.595  0.00  0.00    +0.050 A 
ATOM     13  C   UNL     1       9.680  -0.993  22.342  0.00  0.00    +0.129 A 
ATOM     14  O   UNL     1      10.248  -3.250  23.867  0.00  0.00    -0.286 OA
ATOM     15  C   UNL     1       7.096  -2.520  25.475  0.00  0.00    +0.078 A 
ATOM     16  C   UNL     1       6.293  -3.032  26.513  0.00  0.00    +0.170 A 
ENDROOT
BRANCH   1  17
ATOM     17  O   UNL     1       5.905  -4.757  28.174  0.00  0.00    -0.503 OA
ATOM     18  H   UNL     1       6.298  -5.602  28.441  0.00  0.00    +0.292 HD
ENDBRANCH   1  17
BRANCH  10  19
ATOM     19  O   UNL     1       6.148   1.034  23.074  0.00  0.00    -0.506 OA
ATOM     20  H   UNL     1       5.798   1.394  22.246  0.00  0.00    +0.292 HD
ENDBRANCH  10  19
BRANCH  13  21
ATOM     21  O   UNL     1      10.875  -1.585  22.028  0.00  0.00    -0.506 OA
ATOM     22  H   UNL     1      10.692  -2.500  21.713  0.00  0.00    +0.292 HD
ENDBRANCH  13  21
BRANCH  16  23
ATOM     23  O   UNL     1       5.164  -2.379  26.932  0.00  0.00    -0.503 OA
ATOM     24  H   UNL     1       4.481  -2.433  26.244  0.00  0.00    +0.292 HD
ENDBRANCH  16  23
TORSDOF 4
ENDMDL
MODEL 9
REMARK VINA RESULT:      -6.3      2.817      5.820
REMARK  Name = 
REMARK  4 active torsions:
REMARK  status: ('A' for Active; 'I' for Inactive)
REMARK    1  A    between atoms: O_1  and  C_2
REMARK    2  A    between atoms: C_3  and  O_4
REMARK    3  A    between atoms: C_12  and  O_13
REMARK    4  A    between atoms: C_16  and  O_17
REMARK                            x       y       z     vdW  Elec       q    Type
REMARK                         _______ _______ _______ _____ _____    ______ ____
ROOT
ATOM      1  C   UNL     1       9.184   4.134  23.823  0.00  0.00    +0.159 A 
ATOM      2  C   UNL     1       8.305   4.162  24.895  0.00  0.00    +0.050 A 
ATOM      3  C   UNL     1       7.939   2.971  25.513  0.00  0.00    +0.016 A 
ATOM      4  C   UNL     1       8.431   1.743  25.036  0.00  0.00    +0.037 A 
ATOM      5  C   UNL     1       8.002   0.504  25.700  0.00  0.00    +0.198 C 
ATOM      6  C   UNL     1       8.488  -0.799  25.227  0.00  0.00    +0.078 A 
ATOM      7  C   UNL     1       9.349  -0.869  24.127  0.00  0.00    +0.078 A 
ATOM      8  C   UNL     1       9.746   0.385  23.420  0.00  0.00    +0.202 C 
ATOM      9  O   UNL     1      10.374   0.333  22.373  0.00  0.00    -0.286 OA
ATOM     10  C   UNL     1       9.791  -2.139  23.704  0.00  0.00    +0.129 A 
ATOM     11  C   UNL     1       9.376  -3.305  24.353  0.00  0.00    +0.050 A 
ATOM     12  C   UNL     1       8.516  -3.224  25.442  0.00  0.00    +0.050 A 
ATOM     13  C   UNL     1       8.079  -1.978  25.877  0.00  0.00    +0.129 A 
ATOM     14  O   UNL     1       7.234   0.552  26.667  0.00  0.00    -0.286 OA
ATOM     15  C   UNL     1       9.313   1.706  23.948  0.00  0.00    +0.078 A 
ATOM     16  C   UNL     1       9.710   2.923  23.359  0.00  0.00    +0.170 A 
ENDROOT
BRANCH   1  17
ATOM     17  O   UNL     1       9.509   5.338  23.262  0.00  0.00    -0.503 OA
ATOM     18  H   UNL     1      10.384   5.610  23.579  0.00  0.00    +0.292 HD
ENDBRANCH   1  17
BRANCH  10  19
ATOM     19  O   UNL     1      10.654  -2.272  22.652  0.00  0.00    -0.506 OA
ATOM     20  H   UNL     1      11.036  -3.161  22.631  0.00  0.00    +0.292 HD
ENDBRANCH  10  19
BRANCH  13  21
ATOM     21  O   UNL     1       7.238  -1.990  26.959  0.00  0.00    -0.506 OA
ATOM     22  H   UNL     1       7.728  -2.364  27.726  0.00  0.00    +0.292 HD
ENDBRANCH  13  21
BRANCH  16  23
ATOM     23  O   UNL     1      10.652   2.965  22.367  0.00  0.00    -0.503 OA
ATOM     24  H   UNL     1      10.288   3.417  21.589  0.00  0.00    +0.292 HD
ENDBRANCH  16  23
TORSDOF 4
ENDMDL
