MODEL 1
REMARK VINA RESULT:      -6.0      0.000      0.000
REMARK  Name = 
REMARK  5 active torsions:
REMARK  status: ('A' for Active; 'I' for Inactive)
REMARK    1  A    between atoms: O_1  and  C_2
REMARK    2  A    between atoms: C_6  and  C_7
REMARK    3  A    between atoms: N_8  and  N_9
REMARK    4  A    between atoms: C_10  and  C_12
REMARK    5  A    between atoms: C_19  and  O_20
REMARK                            x       y       z     vdW  Elec       q    Type
REMARK                         _______ _______ _______ _____ _____    ______ ____
ROOT
ATOM      1  C   UNL     1       9.134   1.804  23.172  0.00  0.00    +0.142 C 
ATOM      2  N   UNL     1       8.541   1.036  24.025  0.00  0.00    -0.187 NA
ENDROOT
BRANCH   1   7
ATOM      3  C   UNL     1      10.613   5.653  24.323  0.00  0.00    +0.148 A 
ATOM      4  C   UNL     1       9.323   5.277  24.717  0.00  0.00    +0.102 A 
ATOM      5 BR   UNL     1       8.258   6.473  25.750  0.00  0.00    -0.043 Br
ATOM      6  C   UNL     1       8.819   4.019  24.349  0.00  0.00    +0.143 A 
ATOM      7  C   UNL     1       9.613   3.143  23.587  0.00  0.00    +0.038 A 
ATOM      8  C   UNL     1      10.899   3.524  23.191  0.00  0.00    +0.032 A 
ATOM      9  C   UNL     1      11.393   4.775  23.563  0.00  0.00    +0.061 A 
ATOM     10 BR   UNL     1      13.144   5.262  23.017  0.00  0.00    -0.046 Br
BRANCH   3  11
ATOM     11  O   UNL     1      11.100   6.882  24.688  0.00  0.00    -0.504 OA
ATOM     12  H   UNL     1      12.069   6.876  24.585  0.00  0.00    +0.292 HD
ENDBRANCH   3  11
BRANCH   6  13
ATOM     13  O   UNL     1       7.550   3.682  24.749  0.00  0.00    -0.505 OA
ATOM     14  H   UNL     1       7.568   2.831  25.244  0.00  0.00    +0.292 HD
ENDBRANCH   6  13
ENDBRANCH   1   7
BRANCH   2  15
ATOM     15  N   UNL     1       8.109  -0.178  23.583  0.00  0.00    -0.203 N 
ATOM     16  H   UNL     1       7.224  -0.250  23.098  0.00  0.00    +0.178 HD
ATOM     17  C   UNL     1       8.820  -1.304  23.978  0.00  0.00    +0.263 C 
ATOM     18  O   UNL     1       9.827  -1.277  24.682  0.00  0.00    -0.268 OA
BRANCH  17  19
ATOM     19  C   UNL     1       8.280  -2.622  23.542  0.00  0.00    +0.038 A 
ATOM     20  C   UNL     1       7.415  -2.640  22.437  0.00  0.00    +0.014 A 
ATOM     21  C   UNL     1       6.874  -3.844  21.980  0.00  0.00    +0.021 A 
ATOM     22  C   UNL     1       7.188  -5.032  22.635  0.00  0.00    +0.041 A 
ATOM     23 CL   UNL     1       6.529  -6.518  22.073  0.00  0.00    -0.084 Cl
ATOM     24  C   UNL     1       8.030  -5.024  23.748  0.00  0.00    +0.021 A 
ATOM     25  C   UNL     1       8.576  -3.819  24.207  0.00  0.00    +0.014 A 
ENDBRANCH  17  19
ENDBRANCH   2  15
TORSDOF 5
ENDMDL
MODEL 2
REMARK VINA RESULT:      -6.0      5.469      9.309
REMARK  Name = 
REMARK  5 active torsions:
REMARK  status: ('A' for Active; 'I' for Inactive)
REMARK    1  A    between atoms: O_1  and  C_2
REMARK    2  A    between atoms: C_6  and  C_7
REMARK    3  A    between atoms: N_8  and  N_9
REMARK    4  A    between atoms: C_10  and  C_12
REMARK    5  A    between atoms: C_19  and  O_20
REMARK                            x       y       z     vdW  Elec       q    Type
REMARK                         _______ _______ _______ _____ _____    ______ ____
ROOT
ATOM      1  C   UNL     1       7.409  -2.025  24.482  0.00  0.00    +0.142 C 
ATOM      2  N   UNL     1       7.229  -1.062  23.639  0.00  0.00    -0.187 NA
ENDROOT
BRANCH   1   7
ATOM      3  C   UNL     1       5.649  -5.878  23.857  0.00  0.00    +0.148 A 
ATOM      4  C   UNL     1       6.193  -5.195  22.762  0.00  0.00    +0.102 A 
ATOM      5 BR   UNL     1       6.143  -5.986  21.029  0.00  0.00    -0.043 Br
ATOM      6  C   UNL     1       6.774  -3.930  22.946  0.00  0.00    +0.143 A 
ATOM      7  C   UNL     1       6.807  -3.355  24.229  0.00  0.00    +0.038 A 
ATOM      8  C   UNL     1       6.259  -4.038  25.320  0.00  0.00    +0.032 A 
ATOM      9  C   UNL     1       5.685  -5.296  25.128  0.00  0.00    +0.061 A 
ATOM     10 BR   UNL     1       4.954  -6.200  26.628  0.00  0.00    -0.046 Br
BRANCH   3  11
ATOM     11  O   UNL     1       5.086  -7.114  23.672  0.00  0.00    -0.504 OA
ATOM     12  H   UNL     1       5.636  -7.779  24.124  0.00  0.00    +0.292 HD
ENDBRANCH   3  11
BRANCH   6  13
ATOM     13  O   UNL     1       7.296  -3.287  21.852  0.00  0.00    -0.505 OA
ATOM     14  H   UNL     1       7.791  -3.927  21.289  0.00  0.00    +0.292 HD
ENDBRANCH   6  13
ENDBRANCH   1   7
BRANCH   2  15
ATOM     15  N   UNL     1       7.793   0.142  23.931  0.00  0.00    -0.203 N 
ATOM     16  H   UNL     1       7.570   0.602  24.805  0.00  0.00    +0.178 HD
ATOM     17  C   UNL     1       8.515   0.781  22.932  0.00  0.00    +0.263 C 
ATOM     18  O   UNL     1       8.698   0.322  21.807  0.00  0.00    -0.268 OA
BRANCH  17  19
ATOM     19  C   UNL     1       9.056   2.130  23.257  0.00  0.00    +0.038 A 
ATOM     20  C   UNL     1      10.440   2.328  23.132  0.00  0.00    +0.014 A 
ATOM     21  C   UNL     1      11.008   3.570  23.423  0.00  0.00    +0.021 A 
ATOM     22  C   UNL     1      10.194   4.615  23.854  0.00  0.00    +0.041 A 
ATOM     23 CL   UNL     1      10.888   6.149  24.209  0.00  0.00    -0.084 Cl
ATOM     24  C   UNL     1       8.820   4.424  24.004  0.00  0.00    +0.021 A 
ATOM     25  C   UNL     1       8.247   3.181  23.710  0.00  0.00    +0.014 A 
ENDBRANCH  17  19
ENDBRANCH   2  15
TORSDOF 5
ENDMDL
MODEL 3
REMARK VINA RESULT:      -6.0      5.364      9.091
REMARK  Name = 
REMARK  5 active torsions:
REMARK  status: ('A' for Active; 'I' for Inactive)
REMARK    1  A    between atoms: O_1  and  C_2
REMARK    2  A    between atoms: C_6  and  C_7
REMARK    3  A    between atoms: N_8  and  N_9
REMARK    4  A    between atoms: C_10  and  C_12
REMARK    5  A    between atoms: C_19  and  O_20
REMARK                            x       y       z     vdW  Elec       q    Type
REMARK                         _______ _______ _______ _____ _____    ______ ____
ROOT
ATOM      1  C   UNL     1       8.210  -2.156  23.877  0.00  0.00    +0.142 C 
ATOM      2  N   UNL     1       7.692  -1.055  24.313  0.00  0.00    -0.187 NA
ENDROOT
BRANCH   1   7
ATOM      3  C   UNL     1       5.862  -5.729  23.636  0.00  0.00    +0.148 A 
ATOM      4  C   UNL     1       6.080  -5.143  24.890  0.00  0.00    +0.102 A 
ATOM      5 BR   UNL     1       5.334  -5.940  26.452  0.00  0.00    -0.043 Br
ATOM      6  C   UNL     1       6.848  -3.972  24.990  0.00  0.00    +0.143 A 
ATOM      7  C   UNL     1       7.394  -3.392  23.831  0.00  0.00    +0.038 A 
ATOM      8  C   UNL     1       7.177  -3.981  22.581  0.00  0.00    +0.032 A 
ATOM      9  C   UNL     1       6.411  -5.145  22.490  0.00  0.00    +0.061 A 
ATOM     10 BR   UNL     1       6.131  -5.918  20.780  0.00  0.00    -0.046 Br
BRANCH   3  11
ATOM     11  O   UNL     1       5.109  -6.871  23.544  0.00  0.00    -0.504 OA
ATOM     12  H   UNL     1       4.176  -6.644  23.709  0.00  0.00    +0.292 HD
ENDBRANCH   3  11
BRANCH   6  13
ATOM     13  O   UNL     1       7.045  -3.426  26.234  0.00  0.00    -0.505 OA
ATOM     14  H   UNL     1       6.820  -2.467  26.219  0.00  0.00    +0.292 HD
ENDBRANCH   6  13
ENDBRANCH   1   7
BRANCH   2  15
ATOM     15  N   UNL     1       8.494   0.045  24.346  0.00  0.00    -0.203 N 
ATOM     16  H   UNL     1       9.207   0.126  25.060  0.00  0.00    +0.178 HD
ATOM     17  C   UNL     1       8.180   1.104  23.503  0.00  0.00    +0.263 C 
ATOM     18  O   UNL     1       7.239   1.105  22.713  0.00  0.00    -0.268 OA
BRANCH  17  19
ATOM     19  C   UNL     1       9.029   2.322  23.617  0.00  0.00    +0.038 A 
ATOM     20  C   UNL     1       8.423   3.501  24.077  0.00  0.00    +0.014 A 
ATOM     21  C   UNL     1       9.165   4.678  24.204  0.00  0.00    +0.021 A 
ATOM     22  C   UNL     1      10.514   4.680  23.859  0.00  0.00    +0.041 A 
ATOM     23 CL   UNL     1      11.434   6.125  24.019  0.00  0.00    -0.084 Cl
ATOM     24  C   UNL     1      11.123   3.520  23.379  0.00  0.00    +0.021 A 
ATOM     25  C   UNL     1      10.382   2.338  23.253  0.00  0.00    +0.014 A 
ENDBRANCH  17  19
ENDBRANCH   2  15
TORSDOF 5
ENDMDL
MODEL 4
REMARK VINA RESULT:      -6.0      1.073      2.280
REMARK  Name = 
REMARK  5 active torsions:
REMARK  status: ('A' for Active; 'I' for Inactive)
REMARK    1  A    between atoms: O_1  and  C_2
REMARK    2  A    between atoms: C_6  and  C_7
REMARK    3  A    between atoms: N_8  and  N_9
REMARK    4  A    between atoms: C_10  and  C_12
REMARK    5  A    between atoms: C_19  and  O_20
REMARK                            x       y       z     vdW  Elec       q    Type
REMARK                         _______ _______ _______ _____ _____    ______ ____
ROOT
ATOM      1  C   UNL     1       8.333   2.024  23.753  0.00  0.00    +0.142 C 
ATOM      2  N   UNL     1       9.104   1.004  23.560  0.00  0.00    -0.187 NA
ENDROOT
BRANCH   1   7
ATOM      3  C   UNL     1       9.929   5.828  24.901  0.00  0.00    +0.148 A 
ATOM      4  C   UNL     1      10.642   5.041  23.988  0.00  0.00    +0.102 A 
ATOM      5 BR   UNL     1      12.294   5.672  23.279  0.00  0.00    -0.043 Br
ATOM      6  C   UNL     1      10.136   3.790  23.599  0.00  0.00    +0.143 A 
ATOM      7  C   UNL     1       8.915   3.333  24.129  0.00  0.00    +0.038 A 
ATOM      8  C   UNL     1       8.207   4.120  25.043  0.00  0.00    +0.032 A 
ATOM      9  C   UNL     1       8.717   5.363  25.423  0.00  0.00    +0.061 A 
ATOM     10 BR   UNL     1       7.732   6.409  26.662  0.00  0.00    -0.046 Br
BRANCH   3  11
ATOM     11  O   UNL     1      10.426   7.049  25.275  0.00  0.00    -0.504 OA
ATOM     12  H   UNL     1       9.743   7.521  25.785  0.00  0.00    +0.292 HD
ENDBRANCH   3  11
BRANCH   6  13
ATOM     13  O   UNL     1      10.861   3.043  22.705  0.00  0.00    -0.505 OA
ATOM     14  H   UNL     1      11.791   3.365  22.673  0.00  0.00    +0.292 HD
ENDBRANCH   6  13
ENDBRANCH   1   7
BRANCH   2  15
ATOM     15  N   UNL     1       8.512  -0.177  23.232  0.00  0.00    -0.203 N 
ATOM     16  H   UNL     1       7.595  -0.177  22.803  0.00  0.00    +0.178 HD
ATOM     17  C   UNL     1       9.116  -1.350  23.667  0.00  0.00    +0.263 C 
ATOM     18  O   UNL     1      10.162  -1.393  24.310  0.00  0.00    -0.268 OA
BRANCH  17  19
ATOM     19  C   UNL     1       8.405  -2.622  23.358  0.00  0.00    +0.038 A 
ATOM     20  C   UNL     1       7.424  -2.595  22.355  0.00  0.00    +0.014 A 
ATOM     21  C   UNL     1       6.721  -3.755  22.020  0.00  0.00    +0.021 A 
ATOM     22  C   UNL     1       6.990  -4.941  22.697  0.00  0.00    +0.041 A 
ATOM     23 CL   UNL     1       6.130  -6.374  22.283  0.00  0.00    -0.084 Cl
ATOM     24  C   UNL     1       7.947  -4.975  23.711  0.00  0.00    +0.021 A 
ATOM     25  C   UNL     1       8.655  -3.815  24.047  0.00  0.00    +0.014 A 
ENDBRANCH  17  19
ENDBRANCH   2  15
TORSDOF 5
ENDMDL
MODEL 5
REMARK VINA RESULT:      -5.6      1.709      2.662
REMARK  Name = 
REMARK  5 active torsions:
REMARK  status: ('A' for Active; 'I' for Inactive)
REMARK    1  A    between atoms: O_1  and  C_2
REMARK    2  A    between atoms: C_6  and  C_7
REMARK    3  A    between atoms: N_8  and  N_9
REMARK    4  A    between atoms: C_10  and  C_12
REMARK    5  A    between atoms: C_19  and  O_20
REMARK                            x       y       z     vdW  Elec       q    Type
REMARK                         _______ _______ _______ _____ _____    ______ ____
ROOT
ATOM      1  C   UNL     1       7.527   1.566  23.922  0.00  0.00    +0.142 C 
ATOM      2  N   UNL     1       7.418   0.862  22.844  0.00  0.00    -0.187 NA
ENDROOT
BRANCH   1   7
ATOM      3  C   UNL     1       9.296   5.463  23.806  0.00  0.00    +0.148 A 
ATOM      4  C   UNL     1      10.111   4.342  23.605  0.00  0.00    +0.102 A 
ATOM      5 BR   UNL     1      11.976   4.569  23.284  0.00  0.00    -0.043 Br
ATOM      6  C   UNL     1       9.550   3.055  23.640  0.00  0.00    +0.143 A 
ATOM      7  C   UNL     1       8.173   2.898  23.877  0.00  0.00    +0.038 A 
ATOM      8  C   UNL     1       7.362   4.020  24.081  0.00  0.00    +0.032 A 
ATOM      9  C   UNL     1       7.928   5.296  24.043  0.00  0.00    +0.061 A 
ATOM     10 BR   UNL     1       6.803   6.799  24.320  0.00  0.00    -0.046 Br
BRANCH   3  11
ATOM     11  O   UNL     1       9.849   6.717  23.768  0.00  0.00    -0.504 OA
ATOM     12  H   UNL     1      10.759   6.668  24.112  0.00  0.00    +0.292 HD
ENDBRANCH   3  11
BRANCH   6  13
ATOM     13  O   UNL     1      10.377   1.978  23.441  0.00  0.00    -0.505 OA
ATOM     14  H   UNL     1      11.284   2.287  23.214  0.00  0.00    +0.292 HD
ENDBRANCH   6  13
ENDBRANCH   1   7
BRANCH   2  15
ATOM     15  N   UNL     1       6.830  -0.361  22.949  0.00  0.00    -0.203 N 
ATOM     16  H   UNL     1       5.859  -0.429  23.230  0.00  0.00    +0.178 HD
ATOM     17  C   UNL     1       7.640  -1.484  22.843  0.00  0.00    +0.263 C 
ATOM     18  O   UNL     1       8.852  -1.447  22.638  0.00  0.00    -0.268 OA
BRANCH  17  19
ATOM     19  C   UNL     1       6.981  -2.805  23.039  0.00  0.00    +0.038 A 
ATOM     20  C   UNL     1       5.579  -2.851  22.976  0.00  0.00    +0.014 A 
ATOM     21  C   UNL     1       4.902  -4.060  23.153  0.00  0.00    +0.021 A 
ATOM     22  C   UNL     1       5.624  -5.223  23.404  0.00  0.00    +0.041 A 
ATOM     23 CL   UNL     1       4.794  -6.715  23.617  0.00  0.00    -0.084 Cl
ATOM     24  C   UNL     1       7.016  -5.186  23.490  0.00  0.00    +0.021 A 
ATOM     25  C   UNL     1       7.699  -3.976  23.312  0.00  0.00    +0.014 A 
ENDBRANCH  17  19
ENDBRANCH   2  15
TORSDOF 5
ENDMDL
MODEL 6
REMARK VINA RESULT:      -5.5      3.405      4.743
REMARK  Name = 
REMARK  5 active torsions:
REMARK  status: ('A' for Active; 'I' for Inactive)
REMARK    1  A    between atoms: O_1  and  C_2
REMARK    2  A    between atoms: C_6  and  C_7
REMARK    3  A    between atoms: N_8  and  N_9
REMARK    4  A    between atoms: C_10  and  C_12
REMARK    5  A    between atoms: C_19  and  O_20
REMARK                            x       y       z     vdW  Elec       q    Type
REMARK                         _______ _______ _______ _____ _____    ______ ____
ROOT
ATOM      1  C   UNL     1       6.239  -1.129  23.709  0.00  0.00    +0.142 C 
ATOM      2  N   UNL     1       6.447  -2.220  23.048  0.00  0.00    -0.187 NA
ENDROOT
BRANCH   1   7
ATOM      3  C   UNL     1       8.919   2.190  23.343  0.00  0.00    +0.148 A 
ATOM      4  C   UNL     1       9.404   0.980  23.854  0.00  0.00    +0.102 A 
ATOM      5 BR   UNL     1      11.232   0.833  24.373  0.00  0.00    -0.043 Br
ATOM      6  C   UNL     1       8.541  -0.120  23.983  0.00  0.00    +0.143 A 
ATOM      7  C   UNL     1       7.194  -0.002  23.598  0.00  0.00    +0.038 A 
ATOM      8  C   UNL     1       6.711   1.209  23.091  0.00  0.00    +0.032 A 
ATOM      9  C   UNL     1       7.576   2.298  22.965  0.00  0.00    +0.061 A 
ATOM     10 BR   UNL     1       6.893   3.926  22.270  0.00  0.00    -0.046 Br
BRANCH   3  11
ATOM     11  O   UNL     1       9.766   3.261  23.217  0.00  0.00    -0.504 OA
ATOM     12  H   UNL     1      10.193   3.423  24.078  0.00  0.00    +0.292 HD
ENDBRANCH   3  11
BRANCH   6  13
ATOM     13  O   UNL     1       9.048  -1.290  24.490  0.00  0.00    -0.505 OA
ATOM     14  H   UNL     1       8.323  -1.946  24.614  0.00  0.00    +0.292 HD
ENDBRANCH   6  13
ENDBRANCH   1   7
BRANCH   2  15
ATOM     15  N   UNL     1       5.544  -3.228  23.201  0.00  0.00    -0.203 N 
ATOM     16  H   UNL     1       4.568  -3.065  22.992  0.00  0.00    +0.178 HD
ATOM     17  C   UNL     1       5.974  -4.397  23.817  0.00  0.00    +0.263 C 
ATOM     18  O   UNL     1       7.121  -4.591  24.213  0.00  0.00    -0.268 OA
BRANCH  17  19
ATOM     19  C   UNL     1       4.946  -5.452  24.039  0.00  0.00    +0.038 A 
ATOM     20  C   UNL     1       3.897  -5.549  23.111  0.00  0.00    +0.014 A 
ATOM     21  C   UNL     1       2.901  -6.516  23.265  0.00  0.00    +0.021 A 
ATOM     22  C   UNL     1       2.946  -7.381  24.355  0.00  0.00    +0.041 A 
ATOM     23 CL   UNL     1       1.724  -8.578  24.545  0.00  0.00    -0.084 Cl
ATOM     24  C   UNL     1       3.971  -7.281  25.295  0.00  0.00    +0.021 A 
ATOM     25  C   UNL     1       4.972  -6.314  25.143  0.00  0.00    +0.014 A 
ENDBRANCH  17  19
ENDBRANCH   2  15
TORSDOF 5
ENDMDL
MODEL 7
REMARK VINA RESULT:      -5.4      3.351      4.312
REMARK  Name = 
REMARK  5 active torsions:
REMARK  status: ('A' for Active; 'I' for Inactive)
REMARK    1  A    between atoms: O_1  and  C_2
REMARK    2  A    between atoms: C_6  and  C_7
REMARK    3  A    between atoms: N_8  and  N_9
REMARK    4  A    between atoms: C_10  and  C_12
REMARK    5  A    between atoms: C_19  and  O_20
REMARK                            x       y       z     vdW  Elec       q    Type
REMARK                         _______ _______ _______ _____ _____    ______ ____
ROOT
ATOM      1  C   UNL     1       6.373  -0.912  23.772  0.00  0.00    +0.142 C 
ATOM      2  N   UNL     1       6.383  -1.881  22.917  0.00  0.00    -0.187 NA
ENDROOT
BRANCH   1   7
ATOM      3  C   UNL     1       9.128   2.336  23.336  0.00  0.00    +0.148 A 
ATOM      4  C   UNL     1       7.790   2.527  22.967  0.00  0.00    +0.102 A 
ATOM      5 BR   UNL     1       7.225   4.214  22.284  0.00  0.00    -0.043 Br
ATOM      6  C   UNL     1       6.872   1.474  23.101  0.00  0.00    +0.143 A 
ATOM      7  C   UNL     1       7.298   0.233  23.606  0.00  0.00    +0.038 A 
ATOM      8  C   UNL     1       8.636   0.044  23.970  0.00  0.00    +0.032 A 
ATOM      9  C   UNL     1       9.542   1.097  23.835  0.00  0.00    +0.061 A 
ATOM     10 BR   UNL     1      11.349   0.813  24.341  0.00  0.00    -0.046 Br
BRANCH   3  11
ATOM     11  O   UNL     1      10.020   3.369  23.204  0.00  0.00    -0.504 OA
ATOM     12  H   UNL     1       9.544   4.152  22.873  0.00  0.00    +0.292 HD
ENDBRANCH   3  11
BRANCH   6  13
ATOM     13  O   UNL     1       5.569   1.693  22.728  0.00  0.00    -0.505 OA
ATOM     14  H   UNL     1       5.531   2.388  22.031  0.00  0.00    +0.292 HD
ENDBRANCH   6  13
ENDBRANCH   1   7
BRANCH   2  15
ATOM     15  N   UNL     1       5.522  -2.914  23.129  0.00  0.00    -0.203 N 
ATOM     16  H   UNL     1       4.526  -2.768  23.022  0.00  0.00    +0.178 HD
ATOM     17  C   UNL     1       6.034  -4.090  23.664  0.00  0.00    +0.263 C 
ATOM     18  O   UNL     1       7.219  -4.267  23.938  0.00  0.00    -0.268 OA
BRANCH  17  19
ATOM     19  C   UNL     1       5.056  -5.174  23.955  0.00  0.00    +0.038 A 
ATOM     20  C   UNL     1       5.291  -5.983  25.078  0.00  0.00    +0.014 A 
ATOM     21  C   UNL     1       4.411  -7.017  25.403  0.00  0.00    +0.021 A 
ATOM     22  C   UNL     1       3.299  -7.253  24.599  0.00  0.00    +0.041 A 
ATOM     23 CL   UNL     1       2.209  -8.522  24.999  0.00  0.00    -0.084 Cl
ATOM     24  C   UNL     1       3.066  -6.469  23.468  0.00  0.00    +0.021 A 
ATOM     25  C   UNL     1       3.945  -5.430  23.140  0.00  0.00    +0.014 A 
ENDBRANCH  17  19
ENDBRANCH   2  15
TORSDOF 5
ENDMDL
MODEL 8
REMARK VINA RESULT:      -5.3      3.920      4.868
REMARK  Name = 
REMARK  5 active torsions:
REMARK  status: ('A' for Active; 'I' for Inactive)
REMARK    1  A    between atoms: O_1  and  C_2
REMARK    2  A    between atoms: C_6  and  C_7
REMARK    3  A    between atoms: N_8  and  N_9
REMARK    4  A    between atoms: C_10  and  C_12
REMARK    5  A    between atoms: C_19  and  O_20
REMARK                            x       y       z     vdW  Elec       q    Type
REMARK                         _______ _______ _______ _____ _____    ______ ____
ROOT
ATOM      1  C   UNL     1       6.242  -1.518  25.004  0.00  0.00    +0.142 C 
ATOM      2  N   UNL     1       5.317  -1.920  24.195  0.00  0.00    -0.187 NA
ENDROOT
BRANCH   1   7
ATOM      3  C   UNL     1       8.462   2.056  24.214  0.00  0.00    +0.148 A 
ATOM      4  C   UNL     1       7.063   2.114  24.221  0.00  0.00    +0.102 A 
ATOM      5 BR   UNL     1       6.180   3.769  23.882  0.00  0.00    -0.043 Br
ATOM      6  C   UNL     1       6.317   0.953  24.477  0.00  0.00    +0.143 A 
ATOM      7  C   UNL     1       6.977  -0.263  24.726  0.00  0.00    +0.038 A 
ATOM      8  C   UNL     1       8.375  -0.319  24.714  0.00  0.00    +0.032 A 
ATOM      9  C   UNL     1       9.110   0.840  24.460  0.00  0.00    +0.061 A 
ATOM     10 BR   UNL     1      11.004   0.734  24.455  0.00  0.00    -0.046 Br
BRANCH   3  11
ATOM     11  O   UNL     1       9.186   3.193  23.965  0.00  0.00    -0.504 OA
ATOM     12  H   UNL     1      10.087   3.073  24.316  0.00  0.00    +0.292 HD
ENDBRANCH   3  11
BRANCH   6  13
ATOM     13  O   UNL     1       4.947   1.044  24.474  0.00  0.00    -0.505 OA
ATOM     14  H   UNL     1       4.613   1.058  23.548  0.00  0.00    +0.292 HD
ENDBRANCH   6  13
ENDBRANCH   1   7
BRANCH   2  15
ATOM     15  N   UNL     1       4.685  -3.088  24.494  0.00  0.00    -0.203 N 
ATOM     16  H   UNL     1       4.450  -3.301  25.455  0.00  0.00    +0.178 HD
ATOM     17  C   UNL     1       4.550  -4.031  23.483  0.00  0.00    +0.263 C 
ATOM     18  O   UNL     1       4.943  -3.871  22.329  0.00  0.00    -0.268 OA
BRANCH  17  19
ATOM     19  C   UNL     1       3.923  -5.328  23.859  0.00  0.00    +0.038 A 
ATOM     20  C   UNL     1       2.767  -5.721  23.166  0.00  0.00    +0.014 A 
ATOM     21  C   UNL     1       2.131  -6.926  23.473  0.00  0.00    +0.021 A 
ATOM     22  C   UNL     1       2.644  -7.736  24.483  0.00  0.00    +0.041 A 
ATOM     23 CL   UNL     1       1.868  -9.225  24.861  0.00  0.00    -0.084 Cl
ATOM     24  C   UNL     1       3.780  -7.347  25.193  0.00  0.00    +0.021 A 
ATOM     25  C   UNL     1       4.421  -6.140  24.886  0.00  0.00    +0.014 A 
ENDBRANCH  17  19
ENDBRANCH   2  15
TORSDOF 5
ENDMDL
MODEL 9
REMARK VINA RESULT:      -5.2      2.411      3.265
REMARK  Name = 
REMARK  5 active torsions:
REMARK  status: ('A' for Active; 'I' for Inactive)
REMARK    1  A    between atoms: O_1  and  C_2
REMARK    2  A    between atoms: C_6  and  C_7
REMARK    3  A    between atoms: N_8  and  N_9
REMARK    4  A    between atoms: C_10  and  C_12
REMARK    5  A    between atoms: C_19  and  O_20
REMARK                            x       y       z     vdW  Elec       q    Type
REMARK                         _______ _______ _______ _____ _____    ______ ____
ROOT
ATOM      1  C   UNL     1       7.387   1.308  24.509  0.00  0.00    +0.142 C 
ATOM      2  N   UNL     1       6.523   0.731  23.741  0.00  0.00    -0.187 NA
ENDROOT
BRANCH   1   7
ATOM      3  C   UNL     1       8.988   5.111  23.367  0.00  0.00    +0.148 A 
ATOM      4  C   UNL     1       9.869   4.051  23.615  0.00  0.00    +0.102 A 
ATOM      5 BR   UNL     1      11.748   4.317  23.441  0.00  0.00    -0.043 Br
ATOM      6  C   UNL     1       9.364   2.796  23.992  0.00  0.00    +0.143 A 
ATOM      7  C   UNL     1       7.976   2.609  24.118  0.00  0.00    +0.038 A 
ATOM      8  C   UNL     1       7.098   3.671  23.873  0.00  0.00    +0.032 A 
ATOM      9  C   UNL     1       7.609   4.915  23.498  0.00  0.00    +0.061 A 
ATOM     10 BR   UNL     1       6.394   6.335  23.168  0.00  0.00    -0.046 Br
BRANCH   3  11
ATOM     11  O   UNL     1       9.487   6.333  22.997  0.00  0.00    -0.504 OA
ATOM     12  H   UNL     1       9.068   6.601  22.160  0.00  0.00    +0.292 HD
ENDBRANCH   3  11
BRANCH   6  13
ATOM     13  O   UNL     1      10.255   1.779  24.230  0.00  0.00    -0.505 OA
ATOM     14  H   UNL     1       9.810   1.049  24.719  0.00  0.00    +0.292 HD
ENDBRANCH   6  13
ENDBRANCH   1   7
BRANCH   2  15
ATOM     15  N   UNL     1       6.027  -0.471  24.145  0.00  0.00    -0.203 N 
ATOM     16  H   UNL     1       5.411  -0.517  24.947  0.00  0.00    +0.178 HD
ATOM     17  C   UNL     1       6.535  -1.618  23.547  0.00  0.00    +0.263 C 
ATOM     18  O   UNL     1       7.387  -1.618  22.661  0.00  0.00    -0.268 OA
BRANCH  17  19
ATOM     19  C   UNL     1       6.030  -2.920  24.063  0.00  0.00    +0.038 A 
ATOM     20  C   UNL     1       6.965  -3.943  24.285  0.00  0.00    +0.014 A 
ATOM     21  C   UNL     1       6.554  -5.188  24.766  0.00  0.00    +0.021 A 
ATOM     22  C   UNL     1       5.203  -5.417  25.015  0.00  0.00    +0.041 A 
ATOM     23 CL   UNL     1       4.692  -6.947  25.614  0.00  0.00    -0.084 Cl
ATOM     24  C   UNL     1       4.261  -4.415  24.778  0.00  0.00    +0.021 A 
ATOM     25  C   UNL     1       4.671  -3.165  24.297  0.00  0.00    +0.014 A 
ENDBRANCH  17  19
ENDBRANCH   2  15
TORSDOF 5
ENDMDL
