MODEL 1
REMARK VINA RESULT:      -7.9      0.000      0.000
REMARK  Name = 
REMARK  13 active torsions:
REMARK  status: ('A' for Active; 'I' for Inactive)
REMARK    1  A    between atoms: CA_2  and  CB_3
REMARK    2  A    between atoms: CA_2  and  N_8
REMARK    3  A    between atoms: CA_2  and  C_34
REMARK    4  A    between atoms: CB_3  and  CG_4
REMARK    5  A    between atoms: CG_4  and  CD_5
REMARK    6  A    between atoms: CD_5  and  OE1_6
REMARK    7  A    between atoms: C_9  and  C_11
REMARK    8  A    between atoms: C_14  and  N_17
REMARK    9  A    between atoms: N_17  and  C_18
REMARK   10  A    between atoms: N_17  and  C_21
REMARK   11  A    between atoms: C_18  and  C_19
REMARK   12  A    between atoms: C_21  and  C_22
REMARK   13  A    between atoms: C_34  and  O_35
REMARK                            x       y       z     vdW  Elec       q    Type
REMARK                         _______ _______ _______ _____ _____    ______ ____
ROOT
ATOM      1  C   UNK A   0       9.985   2.001  23.391  0.00  0.00    +0.037 A 
ATOM      2  C   UNK A   0       9.703   1.353  24.592  0.00  0.00    +0.015 A 
ATOM      3  C   UNK A   0       9.363  -0.010  24.592  0.00  0.00    +0.024 A 
ATOM      4  C   UNK A   0       9.302  -0.780  23.409  0.00  0.00    +0.031 A 
ATOM      5  C   UNK A   0       9.725  -0.140  22.239  0.00  0.00    +0.024 A 
ATOM      6  C   UNK A   0      10.047   1.233  22.222  0.00  0.00    +0.015 A 
ENDROOT
BRANCH   1   9
ATOM      7  N   GLU A   1      11.473   3.941  23.303  0.00  0.00    -0.298 N 
ATOM      8  H   GLU A   1      12.232   3.281  23.161  0.00  0.00    +0.150 HD
ATOM      9  C   UNK A   0      10.175   3.489  23.401  0.00  0.00    +0.245 C 
ATOM     10  O   UNK A   0       9.214   4.254  23.442  0.00  0.00    -0.270 OA
BRANCH   7  11
ATOM     11  CA  GLU A   1      11.840   5.365  23.247  0.00  0.00    +0.182 C 
BRANCH  11  12
ATOM     12  C   GLU A   1      13.200   5.439  22.537  0.00  0.00    +0.325 C 
ATOM     13  OXT GLU A   1      13.336   5.809  21.378  0.00  0.00    -0.249 OA
BRANCH  12  14
ATOM     14  O   GLU A   1      14.254   5.061  23.295  0.00  0.00    -0.479 OA
ATOM     15  H   GLU A   1      14.326   5.484  24.171  0.00  0.00    +0.295 HD
ENDBRANCH  12  14
ENDBRANCH  11  12
BRANCH  11  16
ATOM     16  CB  GLU A   1      11.911   5.960  24.661  0.00  0.00    +0.045 C 
BRANCH  16  17
ATOM     17  CG  GLU A   1      10.892   7.065  24.929  0.00  0.00    +0.123 C 
BRANCH  17  18
ATOM     18  CD  GLU A   1       9.854   6.641  25.939  0.00  0.00    +0.305 C 
ATOM     19  OE2 GLU A   1       9.999   6.757  27.146  0.00  0.00    -0.251 OA
BRANCH  18  20
ATOM     20  OE1 GLU A   1       8.723   6.144  25.391  0.00  0.00    -0.481 OA
ATOM     21  HE1 GLU A   1       7.967   6.762  25.356  0.00  0.00    +0.295 HD
ENDBRANCH  18  20
ENDBRANCH  17  18
ENDBRANCH  16  17
ENDBRANCH  11  16
ENDBRANCH   7  11
ENDBRANCH   1   9
BRANCH   4  22
ATOM     22  N   UNK A   0       8.791  -2.088  23.454  0.00  0.00    -0.314 N 
BRANCH  22  23
ATOM     23  C   UNK A   0       8.084  -2.480  22.213  0.00  0.00    +0.141 C 
BRANCH  23  24
ATOM     24  C   UNK A   0       7.065  -3.583  22.423  0.00  0.00    -0.029 A 
ATOM     25  C   UNK A   0       5.941  -3.321  23.225  0.00  0.00    +0.020 A 
ATOM     26  C   UNK A   0       5.047  -4.353  23.546  0.00  0.00    +0.065 A 
ATOM     27  C   UNK A   0       5.256  -5.652  23.079  0.00  0.00    +0.054 A 
ATOM     28  N   UNK A   0       4.306  -6.634  23.370  0.00  0.00    -0.327 N 
ATOM     29  H   UNK A   0       4.591  -7.598  23.284  0.00  0.00    +0.169 HD
ATOM     30  C   UNK A   0       3.305  -6.333  24.239  0.00  0.00    +0.194 A 
ATOM     31  N   UNK A   0       3.050  -5.179  24.758  0.00  0.00    -0.177 NA
ATOM     32  N   UNK A   0       2.533  -7.407  24.541  0.00  0.00    -0.329 N 
ATOM     33  H   UNK A   0       1.695  -7.114  25.038  0.00  0.00    +0.145 HD
ATOM     34  H   UNK A   0       2.298  -7.996  23.753  0.00  0.00    +0.145 HD
ATOM     35  C   UNK A   0       6.354  -5.911  22.259  0.00  0.00    +0.027 A 
ATOM     36  C   UNK A   0       3.875  -4.121  24.434  0.00  0.00    +0.282 A 
ATOM     37  O   UNK A   0       3.694  -2.988  24.870  0.00  0.00    -0.265 OA
ATOM     38  C   UNK A   0       7.257  -4.889  21.947  0.00  0.00    +0.007 A 
ENDBRANCH  23  24
ENDBRANCH  22  23
BRANCH  22  39
ATOM     39  C   UNK A   0       9.490  -3.195  24.155  0.00  0.00    +0.194 C 
BRANCH  39  40
ATOM     40  C   UNK A   0       8.783  -3.618  25.433  0.00  0.00    -0.086 C 
ATOM     41  C   UNK A   0       8.176  -3.980  26.528  0.00  0.00    +0.005 C 
ENDBRANCH  39  40
ENDBRANCH  22  39
ENDBRANCH   4  22
TORSDOF 13
ENDMDL
MODEL 2
REMARK VINA RESULT:      -7.7      3.947      9.003
REMARK  Name = 
REMARK  13 active torsions:
REMARK  status: ('A' for Active; 'I' for Inactive)
REMARK    1  A    between atoms: CA_2  and  CB_3
REMARK    2  A    between atoms: CA_2  and  N_8
REMARK    3  A    between atoms: CA_2  and  C_34
REMARK    4  A    between atoms: CB_3  and  CG_4
REMARK    5  A    between atoms: CG_4  and  CD_5
REMARK    6  A    between atoms: CD_5  and  OE1_6
REMARK    7  A    between atoms: C_9  and  C_11
REMARK    8  A    between atoms: C_14  and  N_17
REMARK    9  A    between atoms: N_17  and  C_18
REMARK   10  A    between atoms: N_17  and  C_21
REMARK   11  A    between atoms: C_18  and  C_19
REMARK   12  A    between atoms: C_21  and  C_22
REMARK   13  A    between atoms: C_34  and  O_35
REMARK                            x       y       z     vdW  Elec       q    Type
REMARK                         _______ _______ _______ _____ _____    ______ ____
ROOT
ATOM      1  C   UNK A   0       9.838  -0.737  23.408  0.00  0.00    +0.037 A 
ATOM      2  C   UNK A   0       9.698   0.001  22.234  0.00  0.00    +0.015 A 
ATOM      3  C   UNK A   0       9.961   1.381  22.236  0.00  0.00    +0.024 A 
ATOM      4  C   UNK A   0      10.382   2.075  23.393  0.00  0.00    +0.031 A 
ATOM      5  C   UNK A   0      10.649   1.286  24.517  0.00  0.00    +0.024 A 
ATOM      6  C   UNK A   0      10.368  -0.097  24.534  0.00  0.00    +0.015 A 
ENDROOT
BRANCH   1   9
ATOM      7  N   GLU A   1       8.067  -2.396  23.097  0.00  0.00    -0.298 N 
ATOM      8  H   GLU A   1       7.474  -1.624  22.804  0.00  0.00    +0.150 HD
ATOM      9  C   UNK A   0       9.388  -2.168  23.418  0.00  0.00    +0.245 C 
ATOM     10  O   UNK A   0      10.175  -3.082  23.650  0.00  0.00    -0.270 OA
BRANCH   7  11
ATOM     11  CA  GLU A   1       7.468  -3.737  23.009  0.00  0.00    +0.182 C 
BRANCH  11  12
ATOM     12  C   GLU A   1       6.290  -3.626  22.029  0.00  0.00    +0.325 C 
ATOM     13  OXT GLU A   1       6.017  -4.488  21.203  0.00  0.00    -0.249 OA
BRANCH  12  14
ATOM     14  O   GLU A   1       5.563  -2.492  22.145  0.00  0.00    -0.479 OA
ATOM     15  H   GLU A   1       4.599  -2.587  22.029  0.00  0.00    +0.295 HD
ENDBRANCH  12  14
ENDBRANCH  11  12
BRANCH  11  16
ATOM     16  CB  GLU A   1       7.005  -4.213  24.393  0.00  0.00    +0.045 C 
BRANCH  16  17
ATOM     17  CG  GLU A   1       7.720  -5.464  24.898  0.00  0.00    +0.123 C 
BRANCH  17  18
ATOM     18  CD  GLU A   1       8.766  -5.134  25.935  0.00  0.00    +0.305 C 
ATOM     19  OE2 GLU A   1       8.508  -4.640  27.021  0.00  0.00    -0.251 OA
BRANCH  18  20
ATOM     20  OE1 GLU A   1      10.026  -5.464  25.570  0.00  0.00    -0.481 OA
ATOM     21  HE1 GLU A   1      10.616  -5.734  26.298  0.00  0.00    +0.295 HD
ENDBRANCH  18  20
ENDBRANCH  17  18
ENDBRANCH  16  17
ENDBRANCH  11  16
ENDBRANCH   7  11
ENDBRANCH   1   9
BRANCH   4  22
ATOM     22  N   UNK A   0      10.461   3.478  23.374  0.00  0.00    -0.314 N 
BRANCH  22  23
ATOM     23  C   UNK A   0       9.577   4.123  24.372  0.00  0.00    +0.141 C 
BRANCH  23  24
ATOM     24  C   UNK A   0       8.183   4.409  23.846  0.00  0.00    -0.029 A 
ATOM     25  C   UNK A   0       7.147   3.510  24.155  0.00  0.00    +0.020 A 
ATOM     26  C   UNK A   0       5.878   3.672  23.580  0.00  0.00    +0.065 A 
ATOM     27  C   UNK A   0       5.622   4.722  22.695  0.00  0.00    +0.054 A 
ATOM     28  N   UNK A   0       4.327   4.882  22.196  0.00  0.00    -0.327 N 
ATOM     29  H   UNK A   0       4.214   5.441  21.364  0.00  0.00    +0.169 HD
ATOM     30  C   UNK A   0       3.407   3.915  22.452  0.00  0.00    +0.194 A 
ATOM     31  N   UNK A   0       3.556   2.887  23.220  0.00  0.00    -0.177 NA
ATOM     32  N   UNK A   0       2.234   4.121  21.802  0.00  0.00    -0.329 N 
ATOM     33  H   UNK A   0       1.517   3.492  22.155  0.00  0.00    +0.145 HD
ATOM     34  H   UNK A   0       1.910   5.079  21.807  0.00  0.00    +0.145 HD
ATOM     35  C   UNK A   0       6.639   5.632  22.408  0.00  0.00    +0.027 A 
ATOM     36  C   UNK A   0       4.774   2.711  23.845  0.00  0.00    +0.282 A 
ATOM     37  O   UNK A   0       4.994   1.771  24.604  0.00  0.00    -0.265 OA
ATOM     38  C   UNK A   0       7.911   5.467  22.967  0.00  0.00    +0.007 A 
ENDBRANCH  23  24
ENDBRANCH  22  23
BRANCH  22  39
ATOM     39  C   UNK A   0      11.727   4.202  23.093  0.00  0.00    +0.194 C 
BRANCH  39  40
ATOM     40  C   UNK A   0      11.885   5.453  23.943  0.00  0.00    -0.086 C 
ATOM     41  C   UNK A   0      12.021   6.525  24.672  0.00  0.00    +0.005 C 
ENDBRANCH  39  40
ENDBRANCH  22  39
ENDBRANCH   4  22
TORSDOF 13
ENDMDL
MODEL 3
REMARK VINA RESULT:      -7.7      1.677      2.774
REMARK  Name = 
REMARK  13 active torsions:
REMARK  status: ('A' for Active; 'I' for Inactive)
REMARK    1  A    between atoms: CA_2  and  CB_3
REMARK    2  A    between atoms: CA_2  and  N_8
REMARK    3  A    between atoms: CA_2  and  C_34
REMARK    4  A    between atoms: CB_3  and  CG_4
REMARK    5  A    between atoms: CG_4  and  CD_5
REMARK    6  A    between atoms: CD_5  and  OE1_6
REMARK    7  A    between atoms: C_9  and  C_11
REMARK    8  A    between atoms: C_14  and  N_17
REMARK    9  A    between atoms: N_17  and  C_18
REMARK   10  A    between atoms: N_17  and  C_21
REMARK   11  A    between atoms: C_18  and  C_19
REMARK   12  A    between atoms: C_21  and  C_22
REMARK   13  A    between atoms: C_34  and  O_35
REMARK                            x       y       z     vdW  Elec       q    Type
REMARK                         _______ _______ _______ _____ _____    ______ ____
ROOT
ATOM      1  C   UNK A   0       8.517   1.939  24.843  0.00  0.00    +0.037 A 
ATOM      2  C   UNK A   0       7.426   1.113  25.107  0.00  0.00    +0.015 A 
ATOM      3  C   UNK A   0       7.511  -0.266  24.855  0.00  0.00    +0.024 A 
ATOM      4  C   UNK A   0       8.680  -0.877  24.347  0.00  0.00    +0.031 A 
ATOM      5  C   UNK A   0       9.801  -0.049  24.225  0.00  0.00    +0.024 A 
ATOM      6  C   UNK A   0       9.721   1.341  24.453  0.00  0.00    +0.015 A 
ENDROOT
BRANCH   1   9
ATOM      7  N   GLU A   1       8.562   4.157  23.811  0.00  0.00    -0.298 N 
ATOM      8  H   GLU A   1       8.760   3.682  22.934  0.00  0.00    +0.150 HD
ATOM      9  C   UNK A   0       8.342   3.424  24.958  0.00  0.00    +0.245 C 
ATOM     10  O   UNK A   0       7.971   3.943  26.007  0.00  0.00    -0.270 OA
BRANCH   7  11
ATOM     11  CA  GLU A   1       8.387   5.616  23.727  0.00  0.00    +0.182 C 
BRANCH  11  12
ATOM     12  C   GLU A   1       7.287   5.865  22.685  0.00  0.00    +0.325 C 
ATOM     13  OXT GLU A   1       6.097   5.681  22.903  0.00  0.00    -0.249 OA
BRANCH  12  14
ATOM     14  O   GLU A   1       7.733   6.312  21.489  0.00  0.00    -0.479 OA
ATOM     15  H   GLU A   1       7.792   7.280  21.387  0.00  0.00    +0.295 HD
ENDBRANCH  12  14
ENDBRANCH  11  12
BRANCH  11  16
ATOM     16  CB  GLU A   1       9.705   6.295  23.328  0.00  0.00    +0.045 C 
BRANCH  16  17
ATOM     17  CG  GLU A   1      10.845   6.086  24.323  0.00  0.00    +0.123 C 
BRANCH  17  18
ATOM     18  CD  GLU A   1      11.928   5.198  23.759  0.00  0.00    +0.305 C 
ATOM     19  OE2 GLU A   1      11.718   4.086  23.301  0.00  0.00    -0.251 OA
BRANCH  18  20
ATOM     20  OE1 GLU A   1      13.160   5.755  23.774  0.00  0.00    -0.481 OA
ATOM     21  HE1 GLU A   1      13.779   5.421  23.098  0.00  0.00    +0.295 HD
ENDBRANCH  18  20
ENDBRANCH  17  18
ENDBRANCH  16  17
ENDBRANCH  11  16
ENDBRANCH   7  11
ENDBRANCH   1   9
BRANCH   4  22
ATOM     22  N   UNK A   0       8.646  -2.226  23.955  0.00  0.00    -0.314 N 
BRANCH  22  23
ATOM     23  C   UNK A   0       8.094  -2.423  22.594  0.00  0.00    +0.141 C 
BRANCH  23  24
ATOM     24  C   UNK A   0       7.021  -3.493  22.530  0.00  0.00    -0.029 A 
ATOM     25  C   UNK A   0       5.847  -3.319  23.284  0.00  0.00    +0.020 A 
ATOM     26  C   UNK A   0       4.893  -4.345  23.350  0.00  0.00    +0.065 A 
ATOM     27  C   UNK A   0       5.089  -5.550  22.672  0.00  0.00    +0.054 A 
ATOM     28  N   UNK A   0       4.084  -6.519  22.715  0.00  0.00    -0.327 N 
ATOM     29  H   UNK A   0       4.338  -7.465  22.477  0.00  0.00    +0.169 HD
ATOM     30  C   UNK A   0       3.029  -6.325  23.549  0.00  0.00    +0.194 A 
ATOM     31  N   UNK A   0       2.776  -5.269  24.248  0.00  0.00    -0.177 NA
ATOM     32  N   UNK A   0       2.195  -7.395  23.598  0.00  0.00    -0.329 N 
ATOM     33  H   UNK A   0       1.333  -7.151  24.079  0.00  0.00    +0.145 HD
ATOM     34  H   UNK A   0       2.002  -7.822  22.702  0.00  0.00    +0.145 HD
ATOM     35  C   UNK A   0       6.239  -5.716  21.900  0.00  0.00    +0.027 A 
ATOM     36  C   UNK A   0       3.664  -4.214  24.179  0.00  0.00    +0.282 A 
ATOM     37  O   UNK A   0       3.492  -3.167  24.797  0.00  0.00    -0.265 OA
ATOM     38  C   UNK A   0       7.201  -4.702  21.842  0.00  0.00    +0.007 A 
ENDBRANCH  23  24
ENDBRANCH  22  23
BRANCH  22  39
ATOM     39  C   UNK A   0       9.694  -3.200  24.354  0.00  0.00    +0.194 C 
BRANCH  39  40
ATOM     40  C   UNK A   0       9.140  -4.351  25.178  0.00  0.00    -0.086 C 
ATOM     41  C   UNK A   0       8.664  -5.338  25.884  0.00  0.00    +0.005 C 
ENDBRANCH  39  40
ENDBRANCH  22  39
ENDBRANCH   4  22
TORSDOF 13
ENDMDL
MODEL 4
REMARK VINA RESULT:      -7.5      3.932      8.430
REMARK  Name = 
REMARK  13 active torsions:
REMARK  status: ('A' for Active; 'I' for Inactive)
REMARK    1  A    between atoms: CA_2  and  CB_3
REMARK    2  A    between atoms: CA_2  and  N_8
REMARK    3  A    between atoms: CA_2  and  C_34
REMARK    4  A    between atoms: CB_3  and  CG_4
REMARK    5  A    between atoms: CG_4  and  CD_5
REMARK    6  A    between atoms: CD_5  and  OE1_6
REMARK    7  A    between atoms: C_9  and  C_11
REMARK    8  A    between atoms: C_14  and  N_17
REMARK    9  A    between atoms: N_17  and  C_18
REMARK   10  A    between atoms: N_17  and  C_21
REMARK   11  A    between atoms: C_18  and  C_19
REMARK   12  A    between atoms: C_21  and  C_22
REMARK   13  A    between atoms: C_34  and  O_35
REMARK                            x       y       z     vdW  Elec       q    Type
REMARK                         _______ _______ _______ _____ _____    ______ ____
ROOT
ATOM      1  C   UNK A   0       9.959  -0.404  23.099  0.00  0.00    +0.037 A 
ATOM      2  C   UNK A   0       9.714   0.386  21.978  0.00  0.00    +0.015 A 
ATOM      3  C   UNK A   0       9.925   1.774  22.036  0.00  0.00    +0.024 A 
ATOM      4  C   UNK A   0      10.396   2.425  23.199  0.00  0.00    +0.031 A 
ATOM      5  C   UNK A   0      10.765   1.592  24.260  0.00  0.00    +0.024 A 
ATOM      6  C   UNK A   0      10.538   0.200  24.222  0.00  0.00    +0.015 A 
ENDROOT
BRANCH   1   9
ATOM      7  N   GLU A   1       8.215  -2.114  22.948  0.00  0.00    -0.298 N 
ATOM      8  H   GLU A   1       7.557  -1.350  22.824  0.00  0.00    +0.150 HD
ATOM      9  C   UNK A   0       9.564  -1.850  23.063  0.00  0.00    +0.245 C 
ATOM     10  O   UNK A   0      10.408  -2.742  23.082  0.00  0.00    -0.270 OA
BRANCH   7  11
ATOM     11  CA  GLU A   1       7.654  -3.470  22.846  0.00  0.00    +0.182 C 
BRANCH  11  12
ATOM     12  C   GLU A   1       6.363  -3.349  22.024  0.00  0.00    +0.325 C 
ATOM     13  OXT GLU A   1       6.000  -4.188  21.209  0.00  0.00    -0.249 OA
BRANCH  12  14
ATOM     14  O   GLU A   1       5.641  -2.231  22.267  0.00  0.00    -0.479 OA
ATOM     15  H   GLU A   1       5.919  -1.701  23.037  0.00  0.00    +0.295 HD
ENDBRANCH  12  14
ENDBRANCH  11  12
BRANCH  11  16
ATOM     16  CB  GLU A   1       7.379  -4.046  24.243  0.00  0.00    +0.045 C 
BRANCH  16  17
ATOM     17  CG  GLU A   1       8.192  -5.294  24.578  0.00  0.00    +0.123 C 
BRANCH  17  18
ATOM     18  CD  GLU A   1       9.335  -4.986  25.516  0.00  0.00    +0.305 C 
ATOM     19  OE2 GLU A   1       9.181  -4.639  26.677  0.00  0.00    -0.251 OA
BRANCH  18  20
ATOM     20  OE1 GLU A   1      10.559  -5.156  24.967  0.00  0.00    -0.481 OA
ATOM     21  HE1 GLU A   1      11.178  -5.704  25.487  0.00  0.00    +0.295 HD
ENDBRANCH  18  20
ENDBRANCH  17  18
ENDBRANCH  16  17
ENDBRANCH  11  16
ENDBRANCH   7  11
ENDBRANCH   1   9
BRANCH   4  22
ATOM     22  N   UNK A   0      10.421   3.829  23.249  0.00  0.00    -0.314 N 
BRANCH  22  23
ATOM     23  C   UNK A   0       9.077   4.430  23.409  0.00  0.00    +0.141 C 
BRANCH  23  24
ATOM     24  C   UNK A   0       8.242   3.759  24.484  0.00  0.00    -0.029 A 
ATOM     25  C   UNK A   0       7.580   2.559  24.176  0.00  0.00    +0.020 A 
ATOM     26  C   UNK A   0       6.698   1.981  25.101  0.00  0.00    +0.065 A 
ATOM     27  C   UNK A   0       6.463   2.585  26.339  0.00  0.00    +0.054 A 
ATOM     28  N   UNK A   0       5.627   1.942  27.254  0.00  0.00    -0.327 N 
ATOM     29  H   UNK A   0       5.242   2.497  28.003  0.00  0.00    +0.169 HD
ATOM     30  C   UNK A   0       4.939   0.843  26.846  0.00  0.00    +0.194 A 
ATOM     31  N   UNK A   0       5.052   0.234  25.714  0.00  0.00    -0.177 NA
ATOM     32  N   UNK A   0       4.064   0.395  27.781  0.00  0.00    -0.329 N 
ATOM     33  H   UNK A   0       3.706  -0.521  27.523  0.00  0.00    +0.145 HD
ATOM     34  H   UNK A   0       4.421   0.390  28.728  0.00  0.00    +0.145 HD
ATOM     35  C   UNK A   0       7.140   3.761  26.660  0.00  0.00    +0.027 A 
ATOM     36  C   UNK A   0       5.942   0.739  24.787  0.00  0.00    +0.282 A 
ATOM     37  O   UNK A   0       6.124   0.212  23.693  0.00  0.00    -0.265 OA
ATOM     38  C   UNK A   0       8.010   4.350  25.735  0.00  0.00    +0.007 A 
ENDBRANCH  23  24
ENDBRANCH  22  23
BRANCH  22  39
ATOM     39  C   UNK A   0      11.527   4.585  23.890  0.00  0.00    +0.194 C 
BRANCH  39  40
ATOM     40  C   UNK A   0      12.513   5.148  22.880  0.00  0.00    -0.086 C 
ATOM     41  C   UNK A   0      13.358   5.632  22.012  0.00  0.00    +0.005 C 
ENDBRANCH  39  40
ENDBRANCH  22  39
ENDBRANCH   4  22
TORSDOF 13
ENDMDL
MODEL 5
REMARK VINA RESULT:      -7.4      1.629      2.493
REMARK  Name = 
REMARK  13 active torsions:
REMARK  status: ('A' for Active; 'I' for Inactive)
REMARK    1  A    between atoms: CA_2  and  CB_3
REMARK    2  A    between atoms: CA_2  and  N_8
REMARK    3  A    between atoms: CA_2  and  C_34
REMARK    4  A    between atoms: CB_3  and  CG_4
REMARK    5  A    between atoms: CG_4  and  CD_5
REMARK    6  A    between atoms: CD_5  and  OE1_6
REMARK    7  A    between atoms: C_9  and  C_11
REMARK    8  A    between atoms: C_14  and  N_17
REMARK    9  A    between atoms: N_17  and  C_18
REMARK   10  A    between atoms: N_17  and  C_21
REMARK   11  A    between atoms: C_18  and  C_19
REMARK   12  A    between atoms: C_21  and  C_22
REMARK   13  A    between atoms: C_34  and  O_35
REMARK                            x       y       z     vdW  Elec       q    Type
REMARK                         _______ _______ _______ _____ _____    ______ ____
ROOT
ATOM      1  C   UNK A   0      10.241   1.915  23.290  0.00  0.00    +0.037 A 
ATOM      2  C   UNK A   0      10.354   1.147  24.448  0.00  0.00    +0.015 A 
ATOM      3  C   UNK A   0       9.937  -0.194  24.445  0.00  0.00    +0.024 A 
ATOM      4  C   UNK A   0       9.407  -0.825  23.297  0.00  0.00    +0.031 A 
ATOM      5  C   UNK A   0       9.436  -0.074  22.117  0.00  0.00    +0.024 A 
ATOM      6  C   UNK A   0       9.832   1.281  22.112  0.00  0.00    +0.015 A 
ENDROOT
BRANCH   1   9
ATOM      7  N   GLU A   1       9.443   4.217  23.516  0.00  0.00    -0.298 N 
ATOM      8  H   GLU A   1       8.514   3.823  23.635  0.00  0.00    +0.150 HD
ATOM      9  C   UNK A   0      10.532   3.384  23.368  0.00  0.00    +0.245 C 
ATOM     10  O   UNK A   0      11.685   3.807  23.354  0.00  0.00    -0.270 OA
BRANCH   7  11
ATOM     11  CA  GLU A   1       9.545   5.678  23.660  0.00  0.00    +0.182 C 
BRANCH  11  12
ATOM     12  C   GLU A   1       9.563   5.968  25.168  0.00  0.00    +0.325 C 
ATOM     13  OXT GLU A   1      10.315   6.782  25.689  0.00  0.00    -0.249 OA
BRANCH  12  14
ATOM     14  O   GLU A   1       8.675   5.251  25.892  0.00  0.00    -0.479 OA
ATOM     15  H   GLU A   1       7.854   5.714  26.145  0.00  0.00    +0.295 HD
ENDBRANCH  12  14
ENDBRANCH  11  12
BRANCH  11  16
ATOM     16  CB  GLU A   1       8.364   6.372  22.968  0.00  0.00    +0.045 C 
BRANCH  16  17
ATOM     17  CG  GLU A   1       7.437   5.426  22.208  0.00  0.00    +0.123 C 
BRANCH  17  18
ATOM     18  CD  GLU A   1       6.201   5.088  23.006  0.00  0.00    +0.305 C 
ATOM     19  OE2 GLU A   1       6.231   4.654  24.147  0.00  0.00    -0.251 OA
BRANCH  18  20
ATOM     20  OE1 GLU A   1       5.042   5.340  22.357  0.00  0.00    -0.481 OA
ATOM     21  HE1 GLU A   1       4.910   6.265  22.077  0.00  0.00    +0.295 HD
ENDBRANCH  18  20
ENDBRANCH  17  18
ENDBRANCH  16  17
ENDBRANCH  11  16
ENDBRANCH   7  11
ENDBRANCH   1   9
BRANCH   4  22
ATOM     22  N   UNK A   0       8.849  -2.110  23.403  0.00  0.00    -0.314 N 
BRANCH  22  23
ATOM     23  C   UNK A   0       8.146  -2.543  22.172  0.00  0.00    +0.141 C 
BRANCH  23  24
ATOM     24  C   UNK A   0       7.120  -3.632  22.417  0.00  0.00    -0.029 A 
ATOM     25  C   UNK A   0       5.996  -3.337  23.209  0.00  0.00    +0.020 A 
ATOM     26  C   UNK A   0       5.096  -4.352  23.562  0.00  0.00    +0.065 A 
ATOM     27  C   UNK A   0       5.297  -5.667  23.137  0.00  0.00    +0.054 A 
ATOM     28  N   UNK A   0       4.341  -6.633  23.460  0.00  0.00    -0.327 N 
ATOM     29  H   UNK A   0       4.620  -7.601  23.405  0.00  0.00    +0.169 HD
ATOM     30  C   UNK A   0       3.341  -6.298  24.316  0.00  0.00    +0.194 A 
ATOM     31  N   UNK A   0       3.092  -5.126  24.798  0.00  0.00    -0.177 NA
ATOM     32  N   UNK A   0       2.561  -7.357  24.653  0.00  0.00    -0.329 N 
ATOM     33  H   UNK A   0       1.725  -7.042  25.139  0.00  0.00    +0.145 HD
ATOM     34  H   UNK A   0       2.323  -7.969  23.883  0.00  0.00    +0.145 HD
ATOM     35  C   UNK A   0       6.394  -5.959  22.328  0.00  0.00    +0.027 A 
ATOM     36  C   UNK A   0       3.925  -4.084  24.441  0.00  0.00    +0.282 A 
ATOM     37  O   UNK A   0       3.750  -2.936  24.839  0.00  0.00    -0.265 OA
ATOM     38  C   UNK A   0       7.304  -4.953  21.984  0.00  0.00    +0.007 A 
ENDBRANCH  23  24
ENDBRANCH  22  23
BRANCH  22  39
ATOM     39  C   UNK A   0       9.499  -3.202  24.171  0.00  0.00    +0.194 C 
BRANCH  39  40
ATOM     40  C   UNK A   0       8.767  -3.523  25.464  0.00  0.00    -0.086 C 
ATOM     41  C   UNK A   0       8.139  -3.799  26.573  0.00  0.00    +0.005 C 
ENDBRANCH  39  40
ENDBRANCH  22  39
ENDBRANCH   4  22
TORSDOF 13
ENDMDL
MODEL 6
REMARK VINA RESULT:      -7.3      4.079      8.979
REMARK  Name = 
REMARK  13 active torsions:
REMARK  status: ('A' for Active; 'I' for Inactive)
REMARK    1  A    between atoms: CA_2  and  CB_3
REMARK    2  A    between atoms: CA_2  and  N_8
REMARK    3  A    between atoms: CA_2  and  C_34
REMARK    4  A    between atoms: CB_3  and  CG_4
REMARK    5  A    between atoms: CG_4  and  CD_5
REMARK    6  A    between atoms: CD_5  and  OE1_6
REMARK    7  A    between atoms: C_9  and  C_11
REMARK    8  A    between atoms: C_14  and  N_17
REMARK    9  A    between atoms: N_17  and  C_18
REMARK   10  A    between atoms: N_17  and  C_21
REMARK   11  A    between atoms: C_18  and  C_19
REMARK   12  A    between atoms: C_21  and  C_22
REMARK   13  A    between atoms: C_34  and  O_35
REMARK                            x       y       z     vdW  Elec       q    Type
REMARK                         _______ _______ _______ _____ _____    ______ ____
ROOT
ATOM      1  C   UNK A   0       9.631  -1.847  23.810  0.00  0.00    +0.037 A 
ATOM      2  C   UNK A   0       9.764  -1.416  22.491  0.00  0.00    +0.015 A 
ATOM      3  C   UNK A   0       9.913  -0.049  22.210  0.00  0.00    +0.024 A 
ATOM      4  C   UNK A   0       9.946   0.938  23.221  0.00  0.00    +0.031 A 
ATOM      5  C   UNK A   0       9.951   0.466  24.538  0.00  0.00    +0.024 A 
ATOM      6  C   UNK A   0       9.780  -0.903  24.833  0.00  0.00    +0.015 A 
ENDROOT
BRANCH   1   9
ATOM      7  N   GLU A   1       8.015  -3.684  23.778  0.00  0.00    -0.298 N 
ATOM      8  H   GLU A   1       7.367  -3.031  23.346  0.00  0.00    +0.150 HD
ATOM      9  C   UNK A   0       9.303  -3.287  24.069  0.00  0.00    +0.245 C 
ATOM     10  O   UNK A   0      10.158  -4.073  24.469  0.00  0.00    -0.270 OA
BRANCH   7  11
ATOM     11  CA  GLU A   1       7.534  -5.067  23.922  0.00  0.00    +0.182 C 
BRANCH  11  12
ATOM     12  C   GLU A   1       6.992  -5.487  22.548  0.00  0.00    +0.325 C 
ATOM     13  OXT GLU A   1       6.611  -6.622  22.291  0.00  0.00    -0.249 OA
BRANCH  12  14
ATOM     14  O   GLU A   1       6.964  -4.498  21.625  0.00  0.00    -0.479 OA
ATOM     15  H   GLU A   1       7.826  -4.233  21.254  0.00  0.00    +0.295 HD
ENDBRANCH  12  14
ENDBRANCH  11  12
BRANCH  11  16
ATOM     16  CB  GLU A   1       6.448  -5.150  25.004  0.00  0.00    +0.045 C 
BRANCH  16  17
ATOM     17  CG  GLU A   1       6.785  -4.401  26.290  0.00  0.00    +0.123 C 
BRANCH  17  18
ATOM     18  CD  GLU A   1       7.667  -5.217  27.203  0.00  0.00    +0.305 C 
ATOM     19  OE2 GLU A   1       7.244  -6.078  27.960  0.00  0.00    -0.251 OA
BRANCH  18  20
ATOM     20  OE1 GLU A   1       8.985  -4.936  27.091  0.00  0.00    -0.481 OA
ATOM     21  HE1 GLU A   1       9.399  -4.546  27.884  0.00  0.00    +0.295 HD
ENDBRANCH  18  20
ENDBRANCH  17  18
ENDBRANCH  16  17
ENDBRANCH  11  16
ENDBRANCH   7  11
ENDBRANCH   1   9
BRANCH   4  22
ATOM     22  N   UNK A   0       9.922   2.299  22.869  0.00  0.00    -0.314 N 
BRANCH  22  23
ATOM     23  C   UNK A   0       8.851   2.630  21.902  0.00  0.00    +0.141 C 
BRANCH  23  24
ATOM     24  C   UNK A   0       7.619   3.232  22.552  0.00  0.00    -0.029 A 
ATOM     25  C   UNK A   0       6.803   2.408  23.347  0.00  0.00    +0.020 A 
ATOM     26  C   UNK A   0       5.591   2.896  23.856  0.00  0.00    +0.065 A 
ATOM     27  C   UNK A   0       5.173   4.201  23.583  0.00  0.00    +0.054 A 
ATOM     28  N   UNK A   0       3.990   4.664  24.163  0.00  0.00    -0.327 N 
ATOM     29  H   UNK A   0       3.556   5.476  23.750  0.00  0.00    +0.169 HD
ATOM     30  C   UNK A   0       3.202   3.780  24.829  0.00  0.00    +0.194 A 
ATOM     31  N   UNK A   0       3.476   2.547  25.099  0.00  0.00    -0.177 NA
ATOM     32  N   UNK A   0       2.023   4.323  25.226  0.00  0.00    -0.329 N 
ATOM     33  H   UNK A   0       1.545   3.701  25.872  0.00  0.00    +0.145 HD
ATOM     34  H   UNK A   0       2.095   5.257  25.608  0.00  0.00    +0.145 HD
ATOM     35  C   UNK A   0       5.993   5.030  22.818  0.00  0.00    +0.027 A 
ATOM     36  C   UNK A   0       4.680   2.035  24.658  0.00  0.00    +0.282 A 
ATOM     37  O   UNK A   0       5.026   0.880  24.885  0.00  0.00    -0.265 OA
ATOM     38  C   UNK A   0       7.197   4.545  22.296  0.00  0.00    +0.007 A 
ENDBRANCH  23  24
ENDBRANCH  22  23
BRANCH  22  39
ATOM     39  C   UNK A   0      10.256   3.379  23.832  0.00  0.00    +0.194 C 
BRANCH  39  40
ATOM     40  C   UNK A   0      11.497   4.158  23.430  0.00  0.00    -0.086 C 
ATOM     41  C   UNK A   0      12.562   4.827  23.084  0.00  0.00    +0.005 C 
ENDBRANCH  39  40
ENDBRANCH  22  39
ENDBRANCH   4  22
TORSDOF 13
ENDMDL
MODEL 7
REMARK VINA RESULT:      -7.2      3.837      9.566
REMARK  Name = 
REMARK  13 active torsions:
REMARK  status: ('A' for Active; 'I' for Inactive)
REMARK    1  A    between atoms: CA_2  and  CB_3
REMARK    2  A    between atoms: CA_2  and  N_8
REMARK    3  A    between atoms: CA_2  and  C_34
REMARK    4  A    between atoms: CB_3  and  CG_4
REMARK    5  A    between atoms: CG_4  and  CD_5
REMARK    6  A    between atoms: CD_5  and  OE1_6
REMARK    7  A    between atoms: C_9  and  C_11
REMARK    8  A    between atoms: C_14  and  N_17
REMARK    9  A    between atoms: N_17  and  C_18
REMARK   10  A    between atoms: N_17  and  C_21
REMARK   11  A    between atoms: C_18  and  C_19
REMARK   12  A    between atoms: C_21  and  C_22
REMARK   13  A    between atoms: C_34  and  O_35
REMARK                            x       y       z     vdW  Elec       q    Type
REMARK                         _______ _______ _______ _____ _____    ______ ____
ROOT
ATOM      1  C   UNK A   0       9.221  -2.344  23.822  0.00  0.00    +0.037 A 
ATOM      2  C   UNK A   0       9.485  -1.933  22.517  0.00  0.00    +0.015 A 
ATOM      3  C   UNK A   0       9.825  -0.596  22.256  0.00  0.00    +0.024 A 
ATOM      4  C   UNK A   0       9.927   0.377  23.276  0.00  0.00    +0.031 A 
ATOM      5  C   UNK A   0       9.794  -0.093  24.587  0.00  0.00    +0.024 A 
ATOM      6  C   UNK A   0       9.431  -1.429  24.860  0.00  0.00    +0.015 A 
ENDROOT
BRANCH   1   9
ATOM      7  N   GLU A   1       7.382  -3.953  23.696  0.00  0.00    -0.298 N 
ATOM      8  H   GLU A   1       6.846  -3.218  23.242  0.00  0.00    +0.150 HD
ATOM      9  C   UNK A   0       8.696  -3.730  24.049  0.00  0.00    +0.245 C 
ATOM     10  O   UNK A   0       9.421  -4.624  24.478  0.00  0.00    -0.270 OA
BRANCH   7  11
ATOM     11  CA  GLU A   1       6.718  -5.262  23.802  0.00  0.00    +0.182 C 
BRANCH  11  12
ATOM     12  C   GLU A   1       6.166  -5.587  22.406  0.00  0.00    +0.325 C 
ATOM     13  OXT GLU A   1       4.975  -5.536  22.123  0.00  0.00    -0.249 OA
BRANCH  12  14
ATOM     14  O   GLU A   1       7.102  -5.936  21.495  0.00  0.00    -0.479 OA
ATOM     15  H   GLU A   1       6.983  -6.807  21.070  0.00  0.00    +0.295 HD
ENDBRANCH  12  14
ENDBRANCH  11  12
BRANCH  11  16
ATOM     16  CB  GLU A   1       5.599  -5.216  24.852  0.00  0.00    +0.045 C 
BRANCH  16  17
ATOM     17  CG  GLU A   1       5.886  -6.030  26.111  0.00  0.00    +0.123 C 
BRANCH  17  18
ATOM     18  CD  GLU A   1       6.942  -5.381  26.972  0.00  0.00    +0.305 C 
ATOM     19  OE2 GLU A   1       6.717  -4.453  27.734  0.00  0.00    -0.251 OA
BRANCH  18  20
ATOM     20  OE1 GLU A   1       8.168  -5.938  26.854  0.00  0.00    -0.481 OA
ATOM     21  HE1 GLU A   1       8.264  -6.593  26.136  0.00  0.00    +0.295 HD
ENDBRANCH  18  20
ENDBRANCH  17  18
ENDBRANCH  16  17
ENDBRANCH  11  16
ENDBRANCH   7  11
ENDBRANCH   1   9
BRANCH   4  22
ATOM     22  N   UNK A   0      10.099   1.730  22.935  0.00  0.00    -0.314 N 
BRANCH  22  23
ATOM     23  C   UNK A   0       9.245   2.157  21.803  0.00  0.00    +0.141 C 
BRANCH  23  24
ATOM     24  C   UNK A   0       7.881   2.662  22.235  0.00  0.00    -0.029 A 
ATOM     25  C   UNK A   0       7.606   4.036  22.137  0.00  0.00    +0.020 A 
ATOM     26  C   UNK A   0       6.407   4.555  22.647  0.00  0.00    +0.065 A 
ATOM     27  C   UNK A   0       5.469   3.720  23.259  0.00  0.00    +0.054 A 
ATOM     28  N   UNK A   0       4.261   4.269  23.695  0.00  0.00    -0.327 N 
ATOM     29  H   UNK A   0       3.728   3.744  24.371  0.00  0.00    +0.169 HD
ATOM     30  C   UNK A   0       4.112   5.619  23.664  0.00  0.00    +0.194 A 
ATOM     31  N   UNK A   0       4.933   6.479  23.161  0.00  0.00    -0.177 NA
ATOM     32  N   UNK A   0       2.954   6.032  24.238  0.00  0.00    -0.329 N 
ATOM     33  H   UNK A   0       2.788   7.015  24.036  0.00  0.00    +0.145 HD
ATOM     34  H   UNK A   0       2.143   5.473  24.006  0.00  0.00    +0.145 HD
ATOM     35  C   UNK A   0       5.725   2.351  23.333  0.00  0.00    +0.027 A 
ATOM     36  C   UNK A   0       6.107   6.012  22.605  0.00  0.00    +0.282 A 
ATOM     37  O   UNK A   0       6.934   6.758  22.089  0.00  0.00    -0.265 OA
ATOM     38  C   UNK A   0       6.926   1.830  22.839  0.00  0.00    +0.007 A 
ENDBRANCH  23  24
ENDBRANCH  22  23
BRANCH  22  39
ATOM     39  C   UNK A   0      10.371   2.780  23.949  0.00  0.00    +0.194 C 
BRANCH  39  40
ATOM     40  C   UNK A   0      11.386   3.805  23.470  0.00  0.00    -0.086 C 
ATOM     41  C   UNK A   0      12.257   4.685  23.060  0.00  0.00    +0.005 C 
ENDBRANCH  39  40
ENDBRANCH  22  39
ENDBRANCH   4  22
TORSDOF 13
ENDMDL
MODEL 8
REMARK VINA RESULT:      -7.2      2.207      3.304
REMARK  Name = 
REMARK  13 active torsions:
REMARK  status: ('A' for Active; 'I' for Inactive)
REMARK    1  A    between atoms: CA_2  and  CB_3
REMARK    2  A    between atoms: CA_2  and  N_8
REMARK    3  A    between atoms: CA_2  and  C_34
REMARK    4  A    between atoms: CB_3  and  CG_4
REMARK    5  A    between atoms: CG_4  and  CD_5
REMARK    6  A    between atoms: CD_5  and  OE1_6
REMARK    7  A    between atoms: C_9  and  C_11
REMARK    8  A    between atoms: C_14  and  N_17
REMARK    9  A    between atoms: N_17  and  C_18
REMARK   10  A    between atoms: N_17  and  C_21
REMARK   11  A    between atoms: C_18  and  C_19
REMARK   12  A    between atoms: C_21  and  C_22
REMARK   13  A    between atoms: C_34  and  O_35
REMARK                            x       y       z     vdW  Elec       q    Type
REMARK                         _______ _______ _______ _____ _____    ______ ____
ROOT
ATOM      1  C   UNK A   0      10.339   2.239  23.111  0.00  0.00    +0.037 A 
ATOM      2  C   UNK A   0      10.466   1.382  24.203  0.00  0.00    +0.015 A 
ATOM      3  C   UNK A   0      10.018   0.055  24.112  0.00  0.00    +0.024 A 
ATOM      4  C   UNK A   0       9.439  -0.475  22.937  0.00  0.00    +0.031 A 
ATOM      5  C   UNK A   0       9.452   0.363  21.816  0.00  0.00    +0.024 A 
ATOM      6  C   UNK A   0       9.880   1.705  21.902  0.00  0.00    +0.015 A 
ENDROOT
BRANCH   1   9
ATOM      7  N   GLU A   1       9.596   4.548  23.434  0.00  0.00    -0.298 N 
ATOM      8  H   GLU A   1       8.651   4.177  23.482  0.00  0.00    +0.150 HD
ATOM      9  C   UNK A   0      10.667   3.691  23.291  0.00  0.00    +0.245 C 
ATOM     10  O   UNK A   0      11.831   4.078  23.359  0.00  0.00    -0.270 OA
BRANCH   7  11
ATOM     11  CA  GLU A   1       9.732   5.994  23.670  0.00  0.00    +0.182 C 
BRANCH  11  12
ATOM     12  C   GLU A   1       9.834   6.181  25.191  0.00  0.00    +0.325 C 
ATOM     13  OXT GLU A   1       9.065   5.656  25.987  0.00  0.00    -0.249 OA
BRANCH  12  14
ATOM     14  O   GLU A   1      10.848   6.978  25.595  0.00  0.00    -0.479 OA
ATOM     15  H   GLU A   1      11.636   6.995  25.020  0.00  0.00    +0.295 HD
ENDBRANCH  12  14
ENDBRANCH  11  12
BRANCH  11  16
ATOM     16  CB  GLU A   1       8.529   6.751  23.089  0.00  0.00    +0.045 C 
BRANCH  16  17
ATOM     17  CG  GLU A   1       7.649   5.915  22.163  0.00  0.00    +0.123 C 
BRANCH  17  18
ATOM     18  CD  GLU A   1       6.390   5.449  22.852  0.00  0.00    +0.305 C 
ATOM     19  OE2 GLU A   1       6.384   4.859  23.922  0.00  0.00    -0.251 OA
BRANCH  18  20
ATOM     20  OE1 GLU A   1       5.252   5.770  22.196  0.00  0.00    -0.481 OA
ATOM     21  HE1 GLU A   1       4.953   5.119  21.532  0.00  0.00    +0.295 HD
ENDBRANCH  18  20
ENDBRANCH  17  18
ENDBRANCH  16  17
ENDBRANCH  11  16
ENDBRANCH   7  11
ENDBRANCH   1   9
BRANCH   4  22
ATOM     22  N   UNK A   0       8.854  -1.752  22.962  0.00  0.00    -0.314 N 
BRANCH  22  23
ATOM     23  C   UNK A   0       9.598  -2.716  23.805  0.00  0.00    +0.141 C 
BRANCH  23  24
ATOM     24  C   UNK A   0       8.696  -3.654  24.586  0.00  0.00    -0.029 A 
ATOM     25  C   UNK A   0       7.745  -4.415  23.886  0.00  0.00    +0.020 A 
ATOM     26  C   UNK A   0       6.810  -5.193  24.585  0.00  0.00    +0.065 A 
ATOM     27  C   UNK A   0       6.807  -5.225  25.981  0.00  0.00    +0.054 A 
ATOM     28  N   UNK A   0       5.900  -6.063  26.634  0.00  0.00    -0.327 N 
ATOM     29  H   UNK A   0       5.709  -5.875  27.606  0.00  0.00    +0.169 HD
ATOM     30  C   UNK A   0       4.943  -6.685  25.897  0.00  0.00    +0.194 A 
ATOM     31  N   UNK A   0       4.832  -6.686  24.611  0.00  0.00    -0.177 NA
ATOM     32  N   UNK A   0       4.046  -7.358  26.662  0.00  0.00    -0.329 N 
ATOM     33  H   UNK A   0       3.462  -7.955  26.082  0.00  0.00    +0.145 HD
ATOM     34  H   UNK A   0       4.451  -7.881  27.428  0.00  0.00    +0.145 HD
ATOM     35  C   UNK A   0       7.768  -4.494  26.679  0.00  0.00    +0.027 A 
ATOM     36  C   UNK A   0       5.758  -5.971  23.876  0.00  0.00    +0.282 A 
ATOM     37  O   UNK A   0       5.737  -5.933  22.649  0.00  0.00    -0.265 OA
ATOM     38  C   UNK A   0       8.693  -3.704  25.988  0.00  0.00    +0.007 A 
ENDBRANCH  23  24
ENDBRANCH  22  23
BRANCH  22  39
ATOM     39  C   UNK A   0       7.384  -1.958  22.921  0.00  0.00    +0.194 C 
BRANCH  39  40
ATOM     40  C   UNK A   0       6.633  -0.992  23.823  0.00  0.00    -0.086 C 
ATOM     41  C   UNK A   0       5.989  -0.163  24.597  0.00  0.00    +0.005 C 
ENDBRANCH  39  40
ENDBRANCH  22  39
ENDBRANCH   4  22
TORSDOF 13
ENDMDL
MODEL 9
REMARK VINA RESULT:      -7.1      3.735      8.597
REMARK  Name = 
REMARK  13 active torsions:
REMARK  status: ('A' for Active; 'I' for Inactive)
REMARK    1  A    between atoms: CA_2  and  CB_3
REMARK    2  A    between atoms: CA_2  and  N_8
REMARK    3  A    between atoms: CA_2  and  C_34
REMARK    4  A    between atoms: CB_3  and  CG_4
REMARK    5  A    between atoms: CG_4  and  CD_5
REMARK    6  A    between atoms: CD_5  and  OE1_6
REMARK    7  A    between atoms: C_9  and  C_11
REMARK    8  A    between atoms: C_14  and  N_17
REMARK    9  A    between atoms: N_17  and  C_18
REMARK   10  A    between atoms: N_17  and  C_21
REMARK   11  A    between atoms: C_18  and  C_19
REMARK   12  A    between atoms: C_21  and  C_22
REMARK   13  A    between atoms: C_34  and  O_35
REMARK                            x       y       z     vdW  Elec       q    Type
REMARK                         _______ _______ _______ _____ _____    ______ ____
ROOT
ATOM      1  C   UNK A   0       9.665  -0.342  23.113  0.00  0.00    +0.037 A 
ATOM      2  C   UNK A   0       9.512   0.439  21.968  0.00  0.00    +0.015 A 
ATOM      3  C   UNK A   0       9.597   1.838  22.055  0.00  0.00    +0.024 A 
ATOM      4  C   UNK A   0       9.846   2.512  23.272  0.00  0.00    +0.031 A 
ATOM      5  C   UNK A   0      10.134   1.701  24.374  0.00  0.00    +0.024 A 
ATOM      6  C   UNK A   0      10.030   0.295  24.305  0.00  0.00    +0.015 A 
ENDROOT
BRANCH   1   9
ATOM      7  N   GLU A   1       8.080  -2.194  22.899  0.00  0.00    -0.298 N 
ATOM      8  H   GLU A   1       7.355  -1.487  22.805  0.00  0.00    +0.150 HD
ATOM      9  C   UNK A   0       9.400  -1.815  23.022  0.00  0.00    +0.245 C 
ATOM     10  O   UNK A   0      10.321  -2.628  23.007  0.00  0.00    -0.270 OA
BRANCH   7  11
ATOM     11  CA  GLU A   1       7.642  -3.590  22.746  0.00  0.00    +0.182 C 
BRANCH  11  12
ATOM     12  C   GLU A   1       6.341  -3.554  21.930  0.00  0.00    +0.325 C 
ATOM     13  OXT GLU A   1       5.996  -4.451  21.172  0.00  0.00    -0.249 OA
BRANCH  12  14
ATOM     14  O   GLU A   1       5.591  -2.443  22.111  0.00  0.00    -0.479 OA
ATOM     15  H   GLU A   1       5.265  -2.009  21.301  0.00  0.00    +0.295 HD
ENDBRANCH  12  14
ENDBRANCH  11  12
BRANCH  11  16
ATOM     16  CB  GLU A   1       7.425  -4.240  24.120  0.00  0.00    +0.045 C 
BRANCH  16  17
ATOM     17  CG  GLU A   1       8.454  -5.309  24.479  0.00  0.00    +0.123 C 
BRANCH  17  18
ATOM     18  CD  GLU A   1       9.328  -4.885  25.634  0.00  0.00    +0.305 C 
ATOM     19  OE2 GLU A   1       8.982  -4.074  26.480  0.00  0.00    -0.251 OA
BRANCH  18  20
ATOM     20  OE1 GLU A   1      10.527  -5.507  25.676  0.00  0.00    -0.481 OA
ATOM     21  HE1 GLU A   1      10.807  -5.821  26.557  0.00  0.00    +0.295 HD
ENDBRANCH  18  20
ENDBRANCH  17  18
ENDBRANCH  16  17
ENDBRANCH  11  16
ENDBRANCH   7  11
ENDBRANCH   1   9
BRANCH   4  22
ATOM     22  N   UNK A   0       9.747   3.913  23.325  0.00  0.00    -0.314 N 
BRANCH  22  23
ATOM     23  C   UNK A   0       8.349   4.400  23.281  0.00  0.00    +0.141 C 
BRANCH  23  24
ATOM     24  C   UNK A   0       7.412   3.621  24.185  0.00  0.00    -0.029 A 
ATOM     25  C   UNK A   0       7.444   3.871  25.568  0.00  0.00    +0.020 A 
ATOM     26  C   UNK A   0       6.687   3.081  26.445  0.00  0.00    +0.065 A 
ATOM     27  C   UNK A   0       5.894   2.037  25.965  0.00  0.00    +0.054 A 
ATOM     28  N   UNK A   0       5.108   1.318  26.868  0.00  0.00    -0.327 N 
ATOM     29  H   UNK A   0       4.772   0.413  26.576  0.00  0.00    +0.169 HD
ATOM     30  C   UNK A   0       5.273   1.545  28.198  0.00  0.00    +0.194 A 
ATOM     31  N   UNK A   0       6.009   2.454  28.745  0.00  0.00    -0.177 NA
ATOM     32  N   UNK A   0       4.553   0.691  28.969  0.00  0.00    -0.329 N 
ATOM     33  H   UNK A   0       4.552   1.001  29.938  0.00  0.00    +0.145 HD
ATOM     34  H   UNK A   0       3.611   0.518  28.644  0.00  0.00    +0.145 HD
ATOM     35  C   UNK A   0       5.838   1.803  24.592  0.00  0.00    +0.027 A 
ATOM     36  C   UNK A   0       6.737   3.287  27.918  0.00  0.00    +0.282 A 
ATOM     37  O   UNK A   0       7.449   4.187  28.354  0.00  0.00    -0.265 OA
ATOM     38  C   UNK A   0       6.601   2.579  23.712  0.00  0.00    +0.007 A 
ENDBRANCH  23  24
ENDBRANCH  22  23
BRANCH  22  39
ATOM     39  C   UNK A   0      10.678   4.749  24.125  0.00  0.00    +0.194 C 
BRANCH  39  40
ATOM     40  C   UNK A   0      11.984   5.029  23.398  0.00  0.00    -0.086 C 
ATOM     41  C   UNK A   0      13.104   5.269  22.775  0.00  0.00    +0.005 C 
ENDBRANCH  39  40
ENDBRANCH  22  39
ENDBRANCH   4  22
TORSDOF 13
ENDMDL
