MODEL 1
REMARK VINA RESULT:      -6.3      0.000      0.000
REMARK  Name = 
REMARK  9 active torsions:
REMARK  status: ('A' for Active; 'I' for Inactive)
REMARK    1  A    between atoms: C_1  and  C_2
REMARK    2  A    between atoms: C_2  and  C_3
REMARK    3  A    between atoms: C_3  and  C_4
REMARK    4  A    between atoms: C_4  and  O_5
REMARK    5  A    between atoms: O_5  and  C_6
REMARK    6  A    between atoms: C_9  and  C_12
REMARK    7  A    between atoms: C_12  and  C_14
REMARK    8  A    between atoms: C_14  and  C_15
REMARK    9  A    between atoms: C_15  and  N_16
REMARK                            x       y       z     vdW  Elec       q    Type
REMARK                         _______ _______ _______ _____ _____    ______ ____
ROOT
ATOM      1  C   UNL     1       8.939   2.784  23.106  0.00  0.00    +0.121 A 
ATOM      2  C   UNL     1       9.483   2.102  24.196  0.00  0.00    +0.046 A 
ATOM      3  C   UNL     1       9.820   0.749  24.098  0.00  0.00    +0.015 A 
ATOM      4  C   UNL     1       9.626   0.069  22.892  0.00  0.00    +0.018 A 
ATOM      5  C   UNL     1       9.145   0.768  21.781  0.00  0.00    +0.015 A 
ATOM      6  C   UNL     1       8.798   2.118  21.887  0.00  0.00    +0.046 A 
ENDROOT
BRANCH   4   7
ATOM      7  C   UNL     1       9.871  -1.397  22.749  0.00  0.00    +0.164 C 
ATOM      8  O   UNL     1      10.891  -1.776  22.169  0.00  0.00    -0.292 OA
BRANCH   7   9
ATOM      9  C   UNL     1       8.846  -2.382  23.276  0.00  0.00    +0.095 C 
BRANCH   9  10
ATOM     10  C   UNL     1       9.455  -3.259  24.377  0.00  0.00    +0.092 C 
BRANCH  10  11
ATOM     11  N   UNL     1       9.052  -4.671  24.361  0.00  0.00    -0.302 NA
ATOM     12  C   UNL     1       7.735  -4.981  23.788  0.00  0.00    +0.084 C 
ATOM     13  C   UNL     1       6.529  -4.852  24.727  0.00  0.00    +0.015 C 
ATOM     14  C   UNL     1       6.774  -5.509  26.080  0.00  0.00    +0.002 C 
ATOM     15  C   UNL     1       8.085  -5.006  26.662  0.00  0.00    +0.015 C 
ATOM     16  C   UNL     1       9.230  -5.289  25.687  0.00  0.00    +0.084 C 
ENDBRANCH  10  11
ENDBRANCH   9  10
ENDBRANCH   7   9
ENDBRANCH   4   7
BRANCH   1  17
ATOM     17  O   UNL     1       8.617   4.099  23.317  0.00  0.00    -0.492 OA
BRANCH  17  18
ATOM     18  C   UNL     1       9.403   4.760  24.314  0.00  0.00    +0.229 C 
BRANCH  18  19
ATOM     19  C   UNL     1      10.083   5.975  23.684  0.00  0.00    +0.041 C 
BRANCH  19  21
ATOM     20  C   UNL     1      12.157   4.588  23.281  0.00  0.00    +0.004 C 
ATOM     21  C   UNL     1      11.602   5.892  23.830  0.00  0.00    -0.000 C 
ENDBRANCH  19  21
ENDBRANCH  18  19
ENDBRANCH  17  18
ENDBRANCH   1  17
TORSDOF 8
ENDMDL
MODEL 2
REMARK VINA RESULT:      -6.3      1.649      2.327
REMARK  Name = 
REMARK  9 active torsions:
REMARK  status: ('A' for Active; 'I' for Inactive)
REMARK    1  A    between atoms: C_1  and  C_2
REMARK    2  A    between atoms: C_2  and  C_3
REMARK    3  A    between atoms: C_3  and  C_4
REMARK    4  A    between atoms: C_4  and  O_5
REMARK    5  A    between atoms: O_5  and  C_6
REMARK    6  A    between atoms: C_9  and  C_12
REMARK    7  A    between atoms: C_12  and  C_14
REMARK    8  A    between atoms: C_14  and  C_15
REMARK    9  A    between atoms: C_15  and  N_16
REMARK                            x       y       z     vdW  Elec       q    Type
REMARK                         _______ _______ _______ _____ _____    ______ ____
ROOT
ATOM      1  C   UNL     1      10.278   2.331  23.230  0.00  0.00    +0.121 A 
ATOM      2  C   UNL     1      10.503   1.516  24.341  0.00  0.00    +0.046 A 
ATOM      3  C   UNL     1      10.345   0.130  24.256  0.00  0.00    +0.015 A 
ATOM      4  C   UNL     1       9.971  -0.453  23.042  0.00  0.00    +0.018 A 
ATOM      5  C   UNL     1       9.811   0.355  21.913  0.00  0.00    +0.015 A 
ATOM      6  C   UNL     1       9.959   1.742  22.006  0.00  0.00    +0.046 A 
ENDROOT
BRANCH   4   7
ATOM      7  C   UNL     1       9.688  -1.914  22.908  0.00  0.00    +0.164 C 
ATOM      8  O   UNL     1      10.545  -2.722  23.271  0.00  0.00    -0.292 OA
BRANCH   7   9
ATOM      9  C   UNL     1       8.380  -2.370  22.289  0.00  0.00    +0.095 C 
BRANCH   9  10
ATOM     10  C   UNL     1       7.288  -2.487  23.360  0.00  0.00    +0.092 C 
BRANCH  10  11
ATOM     11  N   UNL     1       7.073  -3.834  23.904  0.00  0.00    -0.302 NA
ATOM     12  C   UNL     1       7.620  -4.958  23.132  0.00  0.00    +0.084 C 
ATOM     13  C   UNL     1       6.750  -5.495  21.988  0.00  0.00    +0.015 C 
ATOM     14  C   UNL     1       5.299  -5.694  22.407  0.00  0.00    +0.002 C 
ATOM     15  C   UNL     1       4.776  -4.422  23.055  0.00  0.00    +0.015 C 
ATOM     16  C   UNL     1       5.656  -4.046  24.249  0.00  0.00    +0.084 C 
ENDBRANCH  10  11
ENDBRANCH   9  10
ENDBRANCH   7   9
ENDBRANCH   4   7
BRANCH   1  17
ATOM     17  O   UNL     1      10.432   3.678  23.429  0.00  0.00    -0.492 OA
BRANCH  17  18
ATOM     18  C   UNL     1      11.781   4.149  23.346  0.00  0.00    +0.229 C 
BRANCH  18  19
ATOM     19  C   UNL     1      11.802   5.649  23.634  0.00  0.00    +0.041 C 
BRANCH  19  21
ATOM     20  C   UNL     1      10.252   6.721  25.319  0.00  0.00    +0.004 C 
ATOM     21  C   UNL     1      10.394   6.177  23.907  0.00  0.00    -0.000 C 
ENDBRANCH  19  21
ENDBRANCH  18  19
ENDBRANCH  17  18
ENDBRANCH   1  17
TORSDOF 8
ENDMDL
MODEL 3
REMARK VINA RESULT:      -6.1      2.196      3.965
REMARK  Name = 
REMARK  9 active torsions:
REMARK  status: ('A' for Active; 'I' for Inactive)
REMARK    1  A    between atoms: C_1  and  C_2
REMARK    2  A    between atoms: C_2  and  C_3
REMARK    3  A    between atoms: C_3  and  C_4
REMARK    4  A    between atoms: C_4  and  O_5
REMARK    5  A    between atoms: O_5  and  C_6
REMARK    6  A    between atoms: C_9  and  C_12
REMARK    7  A    between atoms: C_12  and  C_14
REMARK    8  A    between atoms: C_14  and  C_15
REMARK    9  A    between atoms: C_15  and  N_16
REMARK                            x       y       z     vdW  Elec       q    Type
REMARK                         _______ _______ _______ _____ _____    ______ ____
ROOT
ATOM      1  C   UNL     1       9.007  -0.841  22.319  0.00  0.00    +0.121 A 
ATOM      2  C   UNL     1       7.872  -0.754  23.128  0.00  0.00    +0.046 A 
ATOM      3  C   UNL     1       7.686  -1.633  24.198  0.00  0.00    +0.015 A 
ATOM      4  C   UNL     1       8.653  -2.605  24.475  0.00  0.00    +0.018 A 
ATOM      5  C   UNL     1       9.820  -2.650  23.707  0.00  0.00    +0.015 A 
ATOM      6  C   UNL     1       9.996  -1.775  22.631  0.00  0.00    +0.046 A 
ENDROOT
BRANCH   4   7
ATOM      7  C   UNL     1       8.470  -3.638  25.538  0.00  0.00    +0.164 C 
ATOM      8  O   UNL     1       8.691  -3.330  26.711  0.00  0.00    -0.292 OA
BRANCH   7   9
ATOM      9  C   UNL     1       8.063  -5.047  25.151  0.00  0.00    +0.095 C 
BRANCH   9  10
ATOM     10  C   UNL     1       6.536  -5.186  25.147  0.00  0.00    +0.092 C 
BRANCH  10  11
ATOM     11  N   UNL     1       5.941  -5.634  23.880  0.00  0.00    -0.302 NA
ATOM     12  C   UNL     1       6.852  -5.786  22.736  0.00  0.00    +0.084 C 
ATOM     13  C   UNL     1       7.149  -4.520  21.921  0.00  0.00    +0.015 C 
ATOM     14  C   UNL     1       5.887  -3.730  21.596  0.00  0.00    +0.002 C 
ATOM     15  C   UNL     1       5.092  -3.490  22.869  0.00  0.00    +0.015 C 
ATOM     16  C   UNL     1       4.758  -4.826  23.535  0.00  0.00    +0.084 C 
ENDBRANCH  10  11
ENDBRANCH   9  10
ENDBRANCH   7   9
ENDBRANCH   4   7
BRANCH   1  17
ATOM     17  O   UNL     1       9.076   0.049  21.280  0.00  0.00    -0.492 OA
BRANCH  17  18
ATOM     18  C   UNL     1       8.909   1.422  21.650  0.00  0.00    +0.229 C 
BRANCH  18  19
ATOM     19  C   UNL     1      10.245   1.968  22.151  0.00  0.00    +0.041 C 
BRANCH  19  21
ATOM     20  C   UNL     1      10.862   1.173  24.470  0.00  0.00    +0.004 C 
ATOM     21  C   UNL     1      10.192   2.263  23.650  0.00  0.00    -0.000 C 
ENDBRANCH  19  21
ENDBRANCH  18  19
ENDBRANCH  17  18
ENDBRANCH   1  17
TORSDOF 8
ENDMDL
MODEL 4
REMARK VINA RESULT:      -6.1      2.724      6.901
REMARK  Name = 
REMARK  9 active torsions:
REMARK  status: ('A' for Active; 'I' for Inactive)
REMARK    1  A    between atoms: C_1  and  C_2
REMARK    2  A    between atoms: C_2  and  C_3
REMARK    3  A    between atoms: C_3  and  C_4
REMARK    4  A    between atoms: C_4  and  O_5
REMARK    5  A    between atoms: O_5  and  C_6
REMARK    6  A    between atoms: C_9  and  C_12
REMARK    7  A    between atoms: C_12  and  C_14
REMARK    8  A    between atoms: C_14  and  C_15
REMARK    9  A    between atoms: C_15  and  N_16
REMARK                            x       y       z     vdW  Elec       q    Type
REMARK                         _______ _______ _______ _____ _____    ______ ____
ROOT
ATOM      1  C   UNL     1       9.961  -0.644  22.953  0.00  0.00    +0.121 A 
ATOM      2  C   UNL     1       9.802   0.229  21.874  0.00  0.00    +0.046 A 
ATOM      3  C   UNL     1      10.021   1.601  22.026  0.00  0.00    +0.015 A 
ATOM      4  C   UNL     1      10.418   2.109  23.267  0.00  0.00    +0.018 A 
ATOM      5  C   UNL     1      10.642   1.228  24.328  0.00  0.00    +0.015 A 
ATOM      6  C   UNL     1      10.410  -0.142  24.175  0.00  0.00    +0.046 A 
ENDROOT
BRANCH   4   7
ATOM      7  C   UNL     1      10.572   3.572  23.522  0.00  0.00    +0.164 C 
ATOM      8  O   UNL     1      11.648   4.113  23.260  0.00  0.00    -0.292 OA
BRANCH   7   9
ATOM      9  C   UNL     1       9.423   4.350  24.137  0.00  0.00    +0.095 C 
BRANCH   9  10
ATOM     10  C   UNL     1       8.224   4.387  23.183  0.00  0.00    +0.092 C 
BRANCH  10  11
ATOM     11  N   UNL     1       6.936   3.982  23.763  0.00  0.00    -0.302 NA
ATOM     12  C   UNL     1       6.980   3.289  25.059  0.00  0.00    +0.084 C 
ATOM     13  C   UNL     1       7.214   1.774  25.019  0.00  0.00    +0.015 C 
ATOM     14  C   UNL     1       6.338   1.078  23.985  0.00  0.00    +0.002 C 
ATOM     15  C   UNL     1       6.483   1.774  22.642  0.00  0.00    +0.015 C 
ATOM     16  C   UNL     1       6.117   3.253  22.780  0.00  0.00    +0.084 C 
ENDBRANCH  10  11
ENDBRANCH   9  10
ENDBRANCH   7   9
ENDBRANCH   4   7
BRANCH   1  17
ATOM     17  O   UNL     1       9.693  -1.964  22.704  0.00  0.00    -0.492 OA
BRANCH  17  18
ATOM     18  C   UNL     1       9.424  -2.755  23.867  0.00  0.00    +0.229 C 
BRANCH  18  19
ATOM     19  C   UNL     1       8.223  -3.656  23.588  0.00  0.00    +0.041 C 
BRANCH  19  21
ATOM     20  C   UNL     1       6.172  -2.425  22.772  0.00  0.00    +0.004 C 
ATOM     21  C   UNL     1       7.438  -3.166  22.372  0.00  0.00    -0.000 C 
ENDBRANCH  19  21
ENDBRANCH  18  19
ENDBRANCH  17  18
ENDBRANCH   1  17
TORSDOF 8
ENDMDL
MODEL 5
REMARK VINA RESULT:      -6.0      1.875      2.729
REMARK  Name = 
REMARK  9 active torsions:
REMARK  status: ('A' for Active; 'I' for Inactive)
REMARK    1  A    between atoms: C_1  and  C_2
REMARK    2  A    between atoms: C_2  and  C_3
REMARK    3  A    between atoms: C_3  and  C_4
REMARK    4  A    between atoms: C_4  and  O_5
REMARK    5  A    between atoms: O_5  and  C_6
REMARK    6  A    between atoms: C_9  and  C_12
REMARK    7  A    between atoms: C_12  and  C_14
REMARK    8  A    between atoms: C_14  and  C_15
REMARK    9  A    between atoms: C_15  and  N_16
REMARK                            x       y       z     vdW  Elec       q    Type
REMARK                         _______ _______ _______ _____ _____    ______ ____
ROOT
ATOM      1  C   UNL     1      10.263   2.221  23.222  0.00  0.00    +0.121 A 
ATOM      2  C   UNL     1      10.388   1.468  24.391  0.00  0.00    +0.046 A 
ATOM      3  C   UNL     1      10.198   0.083  24.374  0.00  0.00    +0.015 A 
ATOM      4  C   UNL     1       9.893  -0.562  23.172  0.00  0.00    +0.018 A 
ATOM      5  C   UNL     1       9.834   0.181  21.990  0.00  0.00    +0.015 A 
ATOM      6  C   UNL     1      10.014   1.567  22.014  0.00  0.00    +0.046 A 
ENDROOT
BRANCH   4   7
ATOM      7  C   UNL     1       9.580  -2.021  23.102  0.00  0.00    +0.164 C 
ATOM      8  O   UNL     1      10.376  -2.825  23.593  0.00  0.00    -0.292 OA
BRANCH   7   9
ATOM      9  C   UNL     1       8.321  -2.484  22.393  0.00  0.00    +0.095 C 
BRANCH   9  10
ATOM     10  C   UNL     1       7.169  -2.648  23.391  0.00  0.00    +0.092 C 
BRANCH  10  11
ATOM     11  N   UNL     1       6.971  -4.004  23.918  0.00  0.00    -0.302 NA
ATOM     12  C   UNL     1       7.496  -5.114  23.109  0.00  0.00    +0.084 C 
ATOM     13  C   UNL     1       6.592  -5.632  21.984  0.00  0.00    +0.015 C 
ATOM     14  C   UNL     1       5.154  -5.840  22.443  0.00  0.00    +0.002 C 
ATOM     15  C   UNL     1       4.650  -4.581  23.130  0.00  0.00    +0.015 C 
ATOM     16  C   UNL     1       5.566  -4.225  24.303  0.00  0.00    +0.084 C 
ENDBRANCH  10  11
ENDBRANCH   9  10
ENDBRANCH   7   9
ENDBRANCH   4   7
BRANCH   1  17
ATOM     17  O   UNL     1      10.440   3.573  23.354  0.00  0.00    -0.492 OA
BRANCH  17  18
ATOM     18  C   UNL     1       9.443   4.239  24.136  0.00  0.00    +0.229 C 
BRANCH  18  19
ATOM     19  C   UNL     1       8.325   4.718  23.212  0.00  0.00    +0.041 C 
BRANCH  19  21
ATOM     20  C   UNL     1       6.688   3.123  22.133  0.00  0.00    +0.004 C 
ATOM     21  C   UNL     1       7.060   3.880  23.397  0.00  0.00    -0.000 C 
ENDBRANCH  19  21
ENDBRANCH  18  19
ENDBRANCH  17  18
ENDBRANCH   1  17
TORSDOF 8
ENDMDL
MODEL 6
REMARK VINA RESULT:      -6.0      1.367      1.952
REMARK  Name = 
REMARK  9 active torsions:
REMARK  status: ('A' for Active; 'I' for Inactive)
REMARK    1  A    between atoms: C_1  and  C_2
REMARK    2  A    between atoms: C_2  and  C_3
REMARK    3  A    between atoms: C_3  and  C_4
REMARK    4  A    between atoms: C_4  and  O_5
REMARK    5  A    between atoms: O_5  and  C_6
REMARK    6  A    between atoms: C_9  and  C_12
REMARK    7  A    between atoms: C_12  and  C_14
REMARK    8  A    between atoms: C_14  and  C_15
REMARK    9  A    between atoms: C_15  and  N_16
REMARK                            x       y       z     vdW  Elec       q    Type
REMARK                         _______ _______ _______ _____ _____    ______ ____
ROOT
ATOM      1  C   UNL     1      10.322   2.446  23.188  0.00  0.00    +0.121 A 
ATOM      2  C   UNL     1      10.656   1.640  24.278  0.00  0.00    +0.046 A 
ATOM      3  C   UNL     1      10.505   0.252  24.215  0.00  0.00    +0.015 A 
ATOM      4  C   UNL     1      10.027  -0.343  23.043  0.00  0.00    +0.018 A 
ATOM      5  C   UNL     1       9.756   0.457  21.929  0.00  0.00    +0.015 A 
ATOM      6  C   UNL     1       9.899   1.846  22.001  0.00  0.00    +0.046 A 
ENDROOT
BRANCH   4   7
ATOM      7  C   UNL     1       9.748  -1.806  22.942  0.00  0.00    +0.164 C 
ATOM      8  O   UNL     1      10.676  -2.602  23.099  0.00  0.00    -0.292 OA
BRANCH   7   9
ATOM      9  C   UNL     1       8.346  -2.280  22.607  0.00  0.00    +0.095 C 
BRANCH   9  10
ATOM     10  C   UNL     1       7.497  -2.397  23.878  0.00  0.00    +0.092 C 
BRANCH  10  11
ATOM     11  N   UNL     1       6.936  -3.727  24.148  0.00  0.00    -0.302 NA
ATOM     12  C   UNL     1       6.194  -3.893  25.407  0.00  0.00    +0.084 C 
ATOM     13  C   UNL     1       7.024  -4.205  26.658  0.00  0.00    +0.015 C 
ATOM     14  C   UNL     1       8.056  -5.298  26.412  0.00  0.00    +0.002 C 
ATOM     15  C   UNL     1       8.877  -4.957  25.179  0.00  0.00    +0.015 C 
ATOM     16  C   UNL     1       7.953  -4.778  23.972  0.00  0.00    +0.084 C 
ENDBRANCH  10  11
ENDBRANCH   9  10
ENDBRANCH   7   9
ENDBRANCH   4   7
BRANCH   1  17
ATOM     17  O   UNL     1      10.481   3.796  23.365  0.00  0.00    -0.492 OA
BRANCH  17  18
ATOM     18  C   UNL     1       9.379   4.454  23.999  0.00  0.00    +0.229 C 
BRANCH  18  19
ATOM     19  C   UNL     1       9.434   5.944  23.668  0.00  0.00    +0.041 C 
BRANCH  19  21
ATOM     20  C   UNL     1       7.359   5.177  22.445  0.00  0.00    +0.004 C 
ATOM     21  C   UNL     1       8.275   6.349  22.757  0.00  0.00    -0.000 C 
ENDBRANCH  19  21
ENDBRANCH  18  19
ENDBRANCH  17  18
ENDBRANCH   1  17
TORSDOF 8
ENDMDL
MODEL 7
REMARK VINA RESULT:      -5.9      2.584      4.415
REMARK  Name = 
REMARK  9 active torsions:
REMARK  status: ('A' for Active; 'I' for Inactive)
REMARK    1  A    between atoms: C_1  and  C_2
REMARK    2  A    between atoms: C_2  and  C_3
REMARK    3  A    between atoms: C_3  and  C_4
REMARK    4  A    between atoms: C_4  and  O_5
REMARK    5  A    between atoms: O_5  and  C_6
REMARK    6  A    between atoms: C_9  and  C_12
REMARK    7  A    between atoms: C_12  and  C_14
REMARK    8  A    between atoms: C_14  and  C_15
REMARK    9  A    between atoms: C_15  and  N_16
REMARK                            x       y       z     vdW  Elec       q    Type
REMARK                         _______ _______ _______ _____ _____    ______ ____
ROOT
ATOM      1  C   UNL     1      10.058  -0.657  24.360  0.00  0.00    +0.121 A 
ATOM      2  C   UNL     1       9.459  -0.298  25.569  0.00  0.00    +0.046 A 
ATOM      3  C   UNL     1       8.673  -1.212  26.277  0.00  0.00    +0.015 A 
ATOM      4  C   UNL     1       8.495  -2.507  25.781  0.00  0.00    +0.018 A 
ATOM      5  C   UNL     1       9.149  -2.887  24.606  0.00  0.00    +0.015 A 
ATOM      6  C   UNL     1       9.924  -1.966  23.895  0.00  0.00    +0.046 A 
ENDROOT
BRANCH   4   7
ATOM      7  C   UNL     1       7.589  -3.499  26.434  0.00  0.00    +0.164 C 
ATOM      8  O   UNL     1       8.087  -4.431  27.069  0.00  0.00    -0.292 OA
BRANCH   7   9
ATOM      9  C   UNL     1       6.088  -3.366  26.268  0.00  0.00    +0.095 C 
BRANCH   9  10
ATOM     10  C   UNL     1       5.746  -2.800  24.884  0.00  0.00    +0.092 C 
BRANCH  10  11
ATOM     11  N   UNL     1       5.192  -3.761  23.922  0.00  0.00    -0.302 NA
ATOM     12  C   UNL     1       5.637  -5.157  24.046  0.00  0.00    +0.084 C 
ATOM     13  C   UNL     1       6.956  -5.522  23.352  0.00  0.00    +0.015 C 
ATOM     14  C   UNL     1       7.032  -4.983  21.930  0.00  0.00    +0.002 C 
ATOM     15  C   UNL     1       6.708  -3.498  21.928  0.00  0.00    +0.015 C 
ATOM     16  C   UNL     1       5.325  -3.266  22.540  0.00  0.00    +0.084 C 
ENDBRANCH  10  11
ENDBRANCH   9  10
ENDBRANCH   7   9
ENDBRANCH   4   7
BRANCH   1  17
ATOM     17  O   UNL     1      10.782   0.322  23.733  0.00  0.00    -0.492 OA
BRANCH  17  18
ATOM     18  C   UNL     1      10.024   1.467  23.328  0.00  0.00    +0.229 C 
BRANCH  18  19
ATOM     19  C   UNL     1       9.676   1.333  21.846  0.00  0.00    +0.041 C 
BRANCH  19  21
ATOM     20  C   UNL     1       7.282   1.050  22.608  0.00  0.00    +0.004 C 
ATOM     21  C   UNL     1       8.212   1.691  21.591  0.00  0.00    -0.000 C 
ENDBRANCH  19  21
ENDBRANCH  18  19
ENDBRANCH  17  18
ENDBRANCH   1  17
TORSDOF 8
ENDMDL
MODEL 8
REMARK VINA RESULT:      -5.8      2.307      4.116
REMARK  Name = 
REMARK  9 active torsions:
REMARK  status: ('A' for Active; 'I' for Inactive)
REMARK    1  A    between atoms: C_1  and  C_2
REMARK    2  A    between atoms: C_2  and  C_3
REMARK    3  A    between atoms: C_3  and  C_4
REMARK    4  A    between atoms: C_4  and  O_5
REMARK    5  A    between atoms: O_5  and  C_6
REMARK    6  A    between atoms: C_9  and  C_12
REMARK    7  A    between atoms: C_12  and  C_14
REMARK    8  A    between atoms: C_14  and  C_15
REMARK    9  A    between atoms: C_15  and  N_16
REMARK                            x       y       z     vdW  Elec       q    Type
REMARK                         _______ _______ _______ _____ _____    ______ ____
ROOT
ATOM      1  C   UNL     1       9.603  -0.537  24.916  0.00  0.00    +0.121 A 
ATOM      2  C   UNL     1       8.864  -1.109  25.953  0.00  0.00    +0.046 A 
ATOM      3  C   UNL     1       8.604  -2.482  25.974  0.00  0.00    +0.015 A 
ATOM      4  C   UNL     1       9.100  -3.299  24.954  0.00  0.00    +0.018 A 
ATOM      5  C   UNL     1       9.896  -2.738  23.952  0.00  0.00    +0.015 A 
ATOM      6  C   UNL     1      10.144  -1.362  23.929  0.00  0.00    +0.046 A 
ENDROOT
BRANCH   4   7
ATOM      7  C   UNL     1       8.776  -4.754  24.863  0.00  0.00    +0.164 C 
ATOM      8  O   UNL     1       9.238  -5.521  25.710  0.00  0.00    -0.292 OA
BRANCH   7   9
ATOM      9  C   UNL     1       7.927  -5.261  23.712  0.00  0.00    +0.095 C 
BRANCH   9  10
ATOM     10  C   UNL     1       6.437  -5.176  24.061  0.00  0.00    +0.092 C 
BRANCH  10  11
ATOM     11  N   UNL     1       5.620  -4.346  23.167  0.00  0.00    -0.302 NA
ATOM     12  C   UNL     1       6.293  -3.772  21.993  0.00  0.00    +0.084 C 
ATOM     13  C   UNL     1       7.044  -2.452  22.209  0.00  0.00    +0.015 C 
ATOM     14  C   UNL     1       6.223  -1.439  22.996  0.00  0.00    +0.002 C 
ATOM     15  C   UNL     1       5.700  -2.084  24.269  0.00  0.00    +0.015 C 
ATOM     16  C   UNL     1       4.875  -3.325  23.924  0.00  0.00    +0.084 C 
ENDBRANCH  10  11
ENDBRANCH   9  10
ENDBRANCH   7   9
ENDBRANCH   4   7
BRANCH   1  17
ATOM     17  O   UNL     1       9.775   0.821  24.976  0.00  0.00    -0.492 OA
BRANCH  17  18
ATOM     18  C   UNL     1       8.766   1.587  24.309  0.00  0.00    +0.229 C 
BRANCH  18  19
ATOM     19  C   UNL     1       9.438   2.545  23.327  0.00  0.00    +0.041 C 
BRANCH  19  21
ATOM     20  C   UNL     1       8.898   0.983  21.414  0.00  0.00    +0.004 C 
ATOM     21  C   UNL     1       9.979   1.794  22.110  0.00  0.00    -0.000 C 
ENDBRANCH  19  21
ENDBRANCH  18  19
ENDBRANCH  17  18
ENDBRANCH   1  17
TORSDOF 8
ENDMDL
MODEL 9
REMARK VINA RESULT:      -5.7      2.694      8.286
REMARK  Name = 
REMARK  9 active torsions:
REMARK  status: ('A' for Active; 'I' for Inactive)
REMARK    1  A    between atoms: C_1  and  C_2
REMARK    2  A    between atoms: C_2  and  C_3
REMARK    3  A    between atoms: C_3  and  C_4
REMARK    4  A    between atoms: C_4  and  O_5
REMARK    5  A    between atoms: O_5  and  C_6
REMARK    6  A    between atoms: C_9  and  C_12
REMARK    7  A    between atoms: C_12  and  C_14
REMARK    8  A    between atoms: C_14  and  C_15
REMARK    9  A    between atoms: C_15  and  N_16
REMARK                            x       y       z     vdW  Elec       q    Type
REMARK                         _______ _______ _______ _____ _____    ______ ____
ROOT
ATOM      1  C   UNL     1       7.251  -5.040  26.010  0.00  0.00    +0.121 A 
ATOM      2  C   UNL     1       7.965  -5.131  24.814  0.00  0.00    +0.046 A 
ATOM      3  C   UNL     1       8.706  -4.045  24.339  0.00  0.00    +0.015 A 
ATOM      4  C   UNL     1       8.748  -2.857  25.074  0.00  0.00    +0.018 A 
ATOM      5  C   UNL     1       8.089  -2.788  26.304  0.00  0.00    +0.015 A 
ATOM      6  C   UNL     1       7.340  -3.873  26.770  0.00  0.00    +0.046 A 
ENDROOT
BRANCH   4   7
ATOM      7  C   UNL     1       9.437  -1.629  24.576  0.00  0.00    +0.164 C 
ATOM      8  O   UNL     1       9.998  -1.665  23.479  0.00  0.00    -0.292 OA
BRANCH   7   9
ATOM      9  C   UNL     1       9.471  -0.385  25.443  0.00  0.00    +0.095 C 
BRANCH   9  10
ATOM     10  C   UNL     1      10.416   0.664  24.845  0.00  0.00    +0.092 C 
BRANCH  10  11
ATOM     11  N   UNL     1       9.777   1.899  24.371  0.00  0.00    -0.302 NA
ATOM     12  C   UNL     1       8.311   1.893  24.270  0.00  0.00    +0.084 C 
ATOM     13  C   UNL     1       7.713   1.321  22.979  0.00  0.00    +0.015 C 
ATOM     14  C   UNL     1       8.406   1.855  21.732  0.00  0.00    +0.002 C 
ATOM     15  C   UNL     1       9.909   1.674  21.866  0.00  0.00    +0.015 C 
ATOM     16  C   UNL     1      10.408   2.380  23.129  0.00  0.00    +0.084 C 
ENDBRANCH  10  11
ENDBRANCH   9  10
ENDBRANCH   7   9
ENDBRANCH   4   7
BRANCH   1  17
ATOM     17  O   UNL     1       6.535  -6.151  26.371  0.00  0.00    -0.492 OA
BRANCH  17  18
ATOM     18  C   UNL     1       5.113  -6.012  26.267  0.00  0.00    +0.229 C 
BRANCH  18  19
ATOM     19  C   UNL     1       4.632  -6.747  25.018  0.00  0.00    +0.041 C 
BRANCH  19  21
ATOM     20  C   UNL     1       5.004  -5.764  22.719  0.00  0.00    +0.004 C 
ATOM     21  C   UNL     1       4.128  -5.764  23.961  0.00  0.00    -0.000 C 
ENDBRANCH  19  21
ENDBRANCH  18  19
ENDBRANCH  17  18
ENDBRANCH   1  17
TORSDOF 8
ENDMDL
