MODEL 1
REMARK VINA RESULT:      -7.3      0.000      0.000
REMARK  Name = 
REMARK  20 active torsions:
REMARK  status: ('A' for Active; 'I' for Inactive)
REMARK    1  A    between atoms: C_1  and  C_2
REMARK    2  A    between atoms: N_4  and  C_5
REMARK    3  A    between atoms: C_7  and  O_9
REMARK    4  A    between atoms: C_11  and  O_12
REMARK    5  A    between atoms: C_11  and  C_48
REMARK    6  A    between atoms: O_12  and  P_13
REMARK    7  A    between atoms: P_13  and  O_14
REMARK    8  A    between atoms: P_13  and  O_16
REMARK    9  A    between atoms: O_16  and  C_17
REMARK   10  A    between atoms: C_17  and  C_18
REMARK   11  A    between atoms: C_21  and  N_29
REMARK   12  A    between atoms: C_23  and  O_25
REMARK   13  A    between atoms: C_26  and  O_28
REMARK   14  A    between atoms: C_38  and  C_40
REMARK   15  A    between atoms: C_40  and  O_42
REMARK   16  A    between atoms: C_40  and  C_43
REMARK   17  A    between atoms: C_43  and  O_45
REMARK   18  A    between atoms: C_43  and  C_46
REMARK   19  A    between atoms: C_46  and  O_47
REMARK   20  A    between atoms: C_48  and  O_49
REMARK                            x       y       z     vdW  Elec       q    Type
REMARK                         _______ _______ _______ _____ _____    ______ ____
ROOT
ATOM      1  C   UNL     1       8.114   3.486  24.945  0.00  0.00    +0.133 C 
ATOM      2  C   UNL     1       7.303   2.701  23.905  0.00  0.00    +0.176 C 
ATOM      3  O   UNL     1       7.843   1.359  23.769  0.00  0.00    -0.332 OA
ATOM      4  C   UNL     1       9.237   1.188  23.415  0.00  0.00    +0.281 C 
ATOM      5  C   UNL     1      10.116   2.106  24.295  0.00  0.00    +0.111 C 
ATOM      6  C   UNL     1       9.593   3.514  24.541  0.00  0.00    +0.143 C 
ENDROOT
BRANCH   1   9
ATOM      7  C   UNL     1       6.925   2.445  28.418  0.00  0.00    +0.109 C 
ATOM      8  C   UNL     1       6.936   3.221  27.129  0.00  0.00    +0.210 C 
ATOM      9  N   UNL     1       7.947   2.862  26.268  0.00  0.00    -0.308 N 
ATOM     10  H   UNL     1       8.655   2.205  26.578  0.00  0.00    +0.149 HD
ATOM     11  O   UNL     1       6.131   4.113  26.890  0.00  0.00    -0.276 OA
ENDBRANCH   1   9
BRANCH   6  12
ATOM     12  O   UNL     1       9.826   4.383  23.436  0.00  0.00    -0.390 OA
ATOM     13  H   UNL     1       9.917   5.312  23.702  0.00  0.00    +0.210 HD
ENDBRANCH   6  12
BRANCH   4  14
ATOM     14  C   UNL     1       9.415   1.361  21.863  0.00  0.00    +0.366 C 
ATOM     15  O   UNL     1       8.764   0.752  21.021  0.00  0.00    -0.245 OA
BRANCH  14  16
ATOM     16  O   UNL     1      10.293   2.310  21.461  0.00  0.00    -0.477 OA
ATOM     17  H   UNL     1      11.232   1.992  21.504  0.00  0.00    +0.295 HD
ENDBRANCH  14  16
ENDBRANCH   4  14
BRANCH   4  18
ATOM     18  O   UNL     1       9.518  -0.166  23.776  0.00  0.00    -0.242 OA
BRANCH  18  19
ATOM     19  P   UNL     1       8.494  -1.085  24.651  0.00  0.00    +0.478 P 
ATOM     20  O   UNL     1       9.327  -2.158  25.366  0.00  0.00    -0.227 OA
BRANCH  19  21
ATOM     21  O   UNL     1       8.793  -0.069  26.019  0.00  0.00    -0.302 OA
ATOM     22  H   UNL     1       8.041  -0.175  26.631  0.00  0.00    +0.222 HD
ENDBRANCH  19  21
BRANCH  19  23
ATOM     23  O   UNL     1       8.193  -2.100  23.284  0.00  0.00    -0.284 OA
BRANCH  23  24
ATOM     24  C   UNL     1       6.833  -2.034  22.830  0.00  0.00    +0.206 C 
BRANCH  24  25
ATOM     25  C   UNL     1       6.197  -3.428  22.781  0.00  0.00    +0.178 C 
ATOM     26  C   UNL     1       7.241  -4.509  22.487  0.00  0.00    +0.178 C 
ATOM     27  C   UNL     1       7.674  -5.022  23.860  0.00  0.00    +0.195 C 
ATOM     28  C   UNL     1       6.690  -4.359  24.841  0.00  0.00    +0.255 C 
ATOM     29  O   UNL     1       5.641  -3.769  24.063  0.00  0.00    -0.346 OA
BRANCH  28  30
ATOM     30  N   UNL     1       6.143  -5.271  25.830  0.00  0.00    -0.270 N 
ATOM     31  C   UNL     1       6.854  -5.399  27.025  0.00  0.00    +0.352 A 
ATOM     32  O   UNL     1       7.951  -4.849  27.151  0.00  0.00    -0.244 OA
ATOM     33  N   UNL     1       6.302  -6.146  28.039  0.00  0.00    -0.178 NA
ATOM     34  C   UNL     1       5.209  -6.810  27.825  0.00  0.00    +0.123 A 
ATOM     35  N   UNL     1       4.678  -7.516  28.869  0.00  0.00    -0.343 N 
ATOM     36  H   UNL     1       5.044  -7.222  29.770  0.00  0.00    +0.144 HD
ATOM     37  H   UNL     1       3.676  -7.665  28.872  0.00  0.00    +0.144 HD
ATOM     38  C   UNL     1       4.511  -6.820  26.523  0.00  0.00    +0.061 A 
ATOM     39  C   UNL     1       5.015  -6.018  25.588  0.00  0.00    +0.096 A 
ENDBRANCH  28  30
BRANCH  27  40
ATOM     40  O   UNL     1       9.022  -4.625  24.138  0.00  0.00    -0.385 OA
ATOM     41  H   UNL     1       9.275  -3.990  23.433  0.00  0.00    +0.210 HD
ENDBRANCH  27  40
BRANCH  26  42
ATOM     42  O   UNL     1       6.654  -5.575  21.727  0.00  0.00    -0.386 OA
ATOM     43  H   UNL     1       7.352  -6.222  21.515  0.00  0.00    +0.210 HD
ENDBRANCH  26  42
ENDBRANCH  24  25
ENDBRANCH  23  24
ENDBRANCH  19  23
ENDBRANCH  18  19
ENDBRANCH   4  18
BRANCH   2  44
ATOM     44  C   UNL     1       7.096   3.390  22.534  0.00  0.00    +0.176 C 
BRANCH  44  45
ATOM     45  O   UNL     1       6.290   2.520  21.711  0.00  0.00    -0.387 OA
ATOM     46  H   UNL     1       5.375   2.875  21.755  0.00  0.00    +0.210 HD
ENDBRANCH  44  45
BRANCH  44  47
ATOM     47  C   UNL     1       6.474   4.800  22.573  0.00  0.00    +0.171 C 
BRANCH  47  48
ATOM     48  O   UNL     1       5.100   4.743  22.190  0.00  0.00    -0.387 OA
ATOM     49  H   UNL     1       5.002   4.003  21.563  0.00  0.00    +0.210 HD
ENDBRANCH  47  48
BRANCH  47  50
ATOM     50  C   UNL     1       7.271   5.781  21.689  0.00  0.00    +0.189 C 
BRANCH  50  51
ATOM     51  O   UNL     1       8.320   6.423  22.406  0.00  0.00    -0.392 OA
ATOM     52  H   UNL     1       8.886   6.867  21.733  0.00  0.00    +0.210 HD
ENDBRANCH  50  51
ENDBRANCH  47  50
ENDBRANCH  44  47
ENDBRANCH   2  44
TORSDOF 19
ENDMDL
MODEL 2
REMARK VINA RESULT:      -7.2      1.713      3.476
REMARK  Name = 
REMARK  20 active torsions:
REMARK  status: ('A' for Active; 'I' for Inactive)
REMARK    1  A    between atoms: C_1  and  C_2
REMARK    2  A    between atoms: N_4  and  C_5
REMARK    3  A    between atoms: C_7  and  O_9
REMARK    4  A    between atoms: C_11  and  O_12
REMARK    5  A    between atoms: C_11  and  C_48
REMARK    6  A    between atoms: O_12  and  P_13
REMARK    7  A    between atoms: P_13  and  O_14
REMARK    8  A    between atoms: P_13  and  O_16
REMARK    9  A    between atoms: O_16  and  C_17
REMARK   10  A    between atoms: C_17  and  C_18
REMARK   11  A    between atoms: C_21  and  N_29
REMARK   12  A    between atoms: C_23  and  O_25
REMARK   13  A    between atoms: C_26  and  O_28
REMARK   14  A    between atoms: C_38  and  C_40
REMARK   15  A    between atoms: C_40  and  O_42
REMARK   16  A    between atoms: C_40  and  C_43
REMARK   17  A    between atoms: C_43  and  O_45
REMARK   18  A    between atoms: C_43  and  C_46
REMARK   19  A    between atoms: C_46  and  O_47
REMARK   20  A    between atoms: C_48  and  O_49
REMARK                            x       y       z     vdW  Elec       q    Type
REMARK                         _______ _______ _______ _____ _____    ______ ____
ROOT
ATOM      1  C   UNL     1       8.678   4.673  23.971  0.00  0.00    +0.133 C 
ATOM      2  C   UNL     1       8.452   3.504  24.941  0.00  0.00    +0.176 C 
ATOM      3  O   UNL     1       8.387   2.255  24.202  0.00  0.00    -0.332 OA
ATOM      4  C   UNL     1       7.409   2.105  23.145  0.00  0.00    +0.281 C 
ATOM      5  C   UNL     1       7.436   3.349  22.227  0.00  0.00    +0.111 C 
ATOM      6  C   UNL     1       7.565   4.699  22.916  0.00  0.00    +0.143 C 
ENDROOT
BRANCH   1   9
ATOM      7  C   UNL     1      12.324   5.015  22.901  0.00  0.00    +0.109 C 
ATOM      8  C   UNL     1      11.059   5.344  23.646  0.00  0.00    +0.210 C 
ATOM      9  N   UNL     1       9.996   4.529  23.332  0.00  0.00    -0.308 N 
ATOM     10  H   UNL     1      10.091   3.857  22.578  0.00  0.00    +0.149 HD
ATOM     11  O   UNL     1      10.984   6.277  24.436  0.00  0.00    -0.276 OA
ENDBRANCH   1   9
BRANCH   6  12
ATOM     12  O   UNL     1       6.328   5.153  23.461  0.00  0.00    -0.390 OA
ATOM     13  H   UNL     1       6.088   6.043  23.156  0.00  0.00    +0.210 HD
ENDBRANCH   6  12
BRANCH   4  14
ATOM     14  C   UNL     1       6.009   1.750  23.766  0.00  0.00    +0.366 C 
ATOM     15  O   UNL     1       5.057   2.522  23.809  0.00  0.00    -0.245 OA
BRANCH  14  16
ATOM     16  O   UNL     1       5.849   0.477  24.199  0.00  0.00    -0.477 OA
ATOM     17  H   UNL     1       5.301   0.429  25.025  0.00  0.00    +0.295 HD
ENDBRANCH  14  16
ENDBRANCH   4  14
BRANCH   4  18
ATOM     18  O   UNL     1       7.888   0.991  22.389  0.00  0.00    -0.242 OA
BRANCH  18  19
ATOM     19  P   UNL     1       9.341   0.298  22.651  0.00  0.00    +0.478 P 
ATOM     20  O   UNL     1       9.658  -0.590  21.438  0.00  0.00    -0.227 OA
BRANCH  19  21
ATOM     21  O   UNL     1      10.087   1.595  21.782  0.00  0.00    -0.302 OA
ATOM     22  H   UNL     1      10.994   1.693  22.127  0.00  0.00    +0.222 HD
ENDBRANCH  19  21
BRANCH  19  23
ATOM     23  O   UNL     1       8.597  -0.999  23.520  0.00  0.00    -0.284 OA
BRANCH  23  24
ATOM     24  C   UNL     1       8.206  -2.087  22.670  0.00  0.00    +0.206 C 
BRANCH  24  25
ATOM     25  C   UNL     1       6.840  -2.647  23.079  0.00  0.00    +0.178 C 
ATOM     26  C   UNL     1       6.478  -3.891  22.263  0.00  0.00    +0.178 C 
ATOM     27  C   UNL     1       6.944  -5.071  23.116  0.00  0.00    +0.195 C 
ATOM     28  C   UNL     1       7.339  -4.434  24.461  0.00  0.00    +0.255 C 
ATOM     29  O   UNL     1       6.867  -3.081  24.451  0.00  0.00    -0.346 OA
BRANCH  28  30
ATOM     30  N   UNL     1       6.829  -5.145  25.620  0.00  0.00    -0.270 N 
ATOM     31  C   UNL     1       7.685  -5.250  26.719  0.00  0.00    +0.352 A 
ATOM     32  O   UNL     1       8.851  -4.858  26.631  0.00  0.00    -0.244 OA
ATOM     33  N   UNL     1       7.194  -5.796  27.881  0.00  0.00    -0.178 NA
ATOM     34  C   UNL     1       6.004  -6.310  27.897  0.00  0.00    +0.123 A 
ATOM     35  N   UNL     1       5.544  -6.816  29.082  0.00  0.00    -0.343 N 
ATOM     36  H   UNL     1       6.074  -6.485  29.882  0.00  0.00    +0.144 HD
ATOM     37  H   UNL     1       4.542  -6.814  29.234  0.00  0.00    +0.144 HD
ATOM     38  C   UNL     1       5.128  -6.355  26.709  0.00  0.00    +0.061 A 
ATOM     39  C   UNL     1       5.589  -5.740  25.622  0.00  0.00    +0.096 A 
ENDBRANCH  28  30
BRANCH  27  40
ATOM     40  O   UNL     1       8.067  -5.716  22.504  0.00  0.00    -0.385 OA
ATOM     41  H   UNL     1       8.519  -6.220  23.214  0.00  0.00    +0.210 HD
ENDBRANCH  27  40
BRANCH  26  42
ATOM     42  O   UNL     1       5.059  -3.962  22.063  0.00  0.00    -0.386 OA
ATOM     43  H   UNL     1       4.713  -3.054  21.992  0.00  0.00    +0.210 HD
ENDBRANCH  26  42
ENDBRANCH  24  25
ENDBRANCH  23  24
ENDBRANCH  19  23
ENDBRANCH  18  19
ENDBRANCH   4  18
BRANCH   2  44
ATOM     44  C   UNL     1       7.274   3.657  25.935  0.00  0.00    +0.176 C 
BRANCH  44  45
ATOM     45  O   UNL     1       7.345   2.572  26.885  0.00  0.00    -0.387 OA
ATOM     46  H   UNL     1       8.058   1.978  26.566  0.00  0.00    +0.210 HD
ENDBRANCH  44  45
BRANCH  44  47
ATOM     47  C   UNL     1       7.190   5.003  26.681  0.00  0.00    +0.171 C 
BRANCH  47  48
ATOM     48  O   UNL     1       7.681   4.859  28.014  0.00  0.00    -0.387 OA
ATOM     49  H   UNL     1       8.654   4.816  27.964  0.00  0.00    +0.210 HD
ENDBRANCH  47  48
BRANCH  47  50
ATOM     50  C   UNL     1       5.751   5.558  26.661  0.00  0.00    +0.189 C 
BRANCH  50  51
ATOM     51  O   UNL     1       4.884   4.776  25.847  0.00  0.00    -0.392 OA
ATOM     52  H   UNL     1       4.011   5.232  25.852  0.00  0.00    +0.210 HD
ENDBRANCH  50  51
ENDBRANCH  47  50
ENDBRANCH  44  47
ENDBRANCH   2  44
TORSDOF 19
ENDMDL
MODEL 3
REMARK VINA RESULT:      -7.0      1.810      2.805
REMARK  Name = 
REMARK  20 active torsions:
REMARK  status: ('A' for Active; 'I' for Inactive)
REMARK    1  A    between atoms: C_1  and  C_2
REMARK    2  A    between atoms: N_4  and  C_5
REMARK    3  A    between atoms: C_7  and  O_9
REMARK    4  A    between atoms: C_11  and  O_12
REMARK    5  A    between atoms: C_11  and  C_48
REMARK    6  A    between atoms: O_12  and  P_13
REMARK    7  A    between atoms: P_13  and  O_14
REMARK    8  A    between atoms: P_13  and  O_16
REMARK    9  A    between atoms: O_16  and  C_17
REMARK   10  A    between atoms: C_17  and  C_18
REMARK   11  A    between atoms: C_21  and  N_29
REMARK   12  A    between atoms: C_23  and  O_25
REMARK   13  A    between atoms: C_26  and  O_28
REMARK   14  A    between atoms: C_38  and  C_40
REMARK   15  A    between atoms: C_40  and  O_42
REMARK   16  A    between atoms: C_40  and  C_43
REMARK   17  A    between atoms: C_43  and  O_45
REMARK   18  A    between atoms: C_43  and  C_46
REMARK   19  A    between atoms: C_46  and  O_47
REMARK   20  A    between atoms: C_48  and  O_49
REMARK                            x       y       z     vdW  Elec       q    Type
REMARK                         _______ _______ _______ _____ _____    ______ ____
ROOT
ATOM      1  C   UNL     1       7.988   3.057  25.257  0.00  0.00    +0.133 C 
ATOM      2  C   UNL     1       7.019   2.893  24.077  0.00  0.00    +0.176 C 
ATOM      3  O   UNL     1       7.114   1.544  23.545  0.00  0.00    -0.332 OA
ATOM      4  C   UNL     1       8.397   1.049  23.093  0.00  0.00    +0.281 C 
ATOM      5  C   UNL     1       9.479   1.356  24.153  0.00  0.00    +0.111 C 
ATOM      6  C   UNL     1       9.417   2.729  24.808  0.00  0.00    +0.143 C 
ENDROOT
BRANCH   1   9
ATOM      7  C   UNL     1       6.774   1.593  28.564  0.00  0.00    +0.109 C 
ATOM      8  C   UNL     1       7.189   2.659  27.586  0.00  0.00    +0.210 C 
ATOM      9  N   UNL     1       7.571   2.173  26.357  0.00  0.00    -0.308 N 
ATOM     10  H   UNL     1       7.650   1.171  26.221  0.00  0.00    +0.149 HD
ATOM     11  O   UNL     1       7.211   3.848  27.880  0.00  0.00    -0.276 OA
ENDBRANCH   1   9
BRANCH   6  12
ATOM     12  O   UNL     1       9.964   3.752  23.982  0.00  0.00    -0.390 OA
ATOM     13  H   UNL     1      10.420   4.442  24.490  0.00  0.00    +0.210 HD
ENDBRANCH   6  12
BRANCH   4  14
ATOM     14  C   UNL     1       8.692   1.585  21.645  0.00  0.00    +0.366 C 
ATOM     15  O   UNL     1       7.884   1.565  20.723  0.00  0.00    -0.245 OA
BRANCH  14  16
ATOM     16  O   UNL     1       9.897   2.173  21.456  0.00  0.00    -0.477 OA
ATOM     17  H   UNL     1      10.061   2.906  22.105  0.00  0.00    +0.295 HD
ENDBRANCH  14  16
ENDBRANCH   4  14
BRANCH   4  18
ATOM     18  O   UNL     1       8.219  -0.369  23.045  0.00  0.00    -0.242 OA
BRANCH  18  19
ATOM     19  P   UNL     1       9.442  -1.409  22.757  0.00  0.00    +0.478 P 
ATOM     20  O   UNL     1       8.828  -2.713  22.228  0.00  0.00    -0.227 OA
BRANCH  19  21
ATOM     21  O   UNL     1       9.481  -0.867  21.114  0.00  0.00    -0.302 OA
ATOM     22  H   UNL     1       9.263  -1.632  20.550  0.00  0.00    +0.222 HD
ENDBRANCH  19  21
BRANCH  19  23
ATOM     23  O   UNL     1       9.404  -1.951  24.399  0.00  0.00    -0.284 OA
BRANCH  23  24
ATOM     24  C   UNL     1       9.385  -3.381  24.513  0.00  0.00    +0.206 C 
BRANCH  24  25
ATOM     25  C   UNL     1       8.308  -3.844  25.500  0.00  0.00    +0.178 C 
ATOM     26  C   UNL     1       7.286  -2.736  25.773  0.00  0.00    +0.178 C 
ATOM     27  C   UNL     1       6.148  -2.998  24.785  0.00  0.00    +0.195 C 
ATOM     28  C   UNL     1       6.491  -4.366  24.166  0.00  0.00    +0.255 C 
ATOM     29  O   UNL     1       7.554  -4.934  24.941  0.00  0.00    -0.346 OA
BRANCH  28  30
ATOM     30  N   UNL     1       5.362  -5.277  24.097  0.00  0.00    -0.270 N 
ATOM     31  C   UNL     1       4.497  -5.122  23.013  0.00  0.00    +0.352 A 
ATOM     32  O   UNL     1       4.640  -4.172  22.241  0.00  0.00    -0.244 OA
ATOM     33  N   UNL     1       3.495  -6.048  22.837  0.00  0.00    -0.178 NA
ATOM     34  C   UNL     1       3.299  -6.961  23.738  0.00  0.00    +0.123 A 
ATOM     35  N   UNL     1       2.312  -7.879  23.509  0.00  0.00    -0.343 N 
ATOM     36  H   UNL     1       2.025  -7.914  22.535  0.00  0.00    +0.144 HD
ATOM     37  H   UNL     1       2.417  -8.795  23.930  0.00  0.00    +0.144 HD
ATOM     38  C   UNL     1       4.099  -7.060  24.975  0.00  0.00    +0.061 A 
ATOM     39  C   UNL     1       5.118  -6.210  25.078  0.00  0.00    +0.096 A 
ENDBRANCH  28  30
BRANCH  27  40
ATOM     40  O   UNL     1       6.113  -1.975  23.784  0.00  0.00    -0.385 OA
ATOM     41  H   UNL     1       6.871  -1.379  23.969  0.00  0.00    +0.210 HD
ENDBRANCH  27  40
BRANCH  26  42
ATOM     42  O   UNL     1       6.798  -2.828  27.119  0.00  0.00    -0.386 OA
ATOM     43  H   UNL     1       6.051  -2.211  27.217  0.00  0.00    +0.210 HD
ENDBRANCH  26  42
ENDBRANCH  24  25
ENDBRANCH  23  24
ENDBRANCH  19  23
ENDBRANCH  18  19
ENDBRANCH   4  18
BRANCH   2  44
ATOM     44  C   UNL     1       7.104   3.968  22.965  0.00  0.00    +0.176 C 
BRANCH  44  45
ATOM     45  O   UNL     1       6.086   3.680  21.983  0.00  0.00    -0.387 OA
ATOM     46  H   UNL     1       5.688   2.823  22.248  0.00  0.00    +0.210 HD
ENDBRANCH  44  45
BRANCH  44  47
ATOM     47  C   UNL     1       6.985   5.432  23.431  0.00  0.00    +0.171 C 
BRANCH  47  48
ATOM     48  O   UNL     1       5.617   5.841  23.425  0.00  0.00    -0.387 OA
ATOM     49  H   UNL     1       5.247   5.609  22.554  0.00  0.00    +0.210 HD
ENDBRANCH  47  48
BRANCH  47  50
ATOM     50  C   UNL     1       7.860   6.361  22.564  0.00  0.00    +0.189 C 
BRANCH  50  51
ATOM     51  O   UNL     1       7.476   6.339  21.194  0.00  0.00    -0.392 OA
ATOM     52  H   UNL     1       6.721   6.966  21.106  0.00  0.00    +0.210 HD
ENDBRANCH  50  51
ENDBRANCH  47  50
ENDBRANCH  44  47
ENDBRANCH   2  44
TORSDOF 19
ENDMDL
MODEL 4
REMARK VINA RESULT:      -7.0      2.386      8.209
REMARK  Name = 
REMARK  20 active torsions:
REMARK  status: ('A' for Active; 'I' for Inactive)
REMARK    1  A    between atoms: C_1  and  C_2
REMARK    2  A    between atoms: N_4  and  C_5
REMARK    3  A    between atoms: C_7  and  O_9
REMARK    4  A    between atoms: C_11  and  O_12
REMARK    5  A    between atoms: C_11  and  C_48
REMARK    6  A    between atoms: O_12  and  P_13
REMARK    7  A    between atoms: P_13  and  O_14
REMARK    8  A    between atoms: P_13  and  O_16
REMARK    9  A    between atoms: O_16  and  C_17
REMARK   10  A    between atoms: C_17  and  C_18
REMARK   11  A    between atoms: C_21  and  N_29
REMARK   12  A    between atoms: C_23  and  O_25
REMARK   13  A    between atoms: C_26  and  O_28
REMARK   14  A    between atoms: C_38  and  C_40
REMARK   15  A    between atoms: C_40  and  O_42
REMARK   16  A    between atoms: C_40  and  C_43
REMARK   17  A    between atoms: C_43  and  O_45
REMARK   18  A    between atoms: C_43  and  C_46
REMARK   19  A    between atoms: C_46  and  O_47
REMARK   20  A    between atoms: C_48  and  O_49
REMARK                            x       y       z     vdW  Elec       q    Type
REMARK                         _______ _______ _______ _____ _____    ______ ____
ROOT
ATOM      1  C   UNL     1       6.217  -2.650  26.443  0.00  0.00    +0.133 C 
ATOM      2  C   UNL     1       7.395  -3.570  26.798  0.00  0.00    +0.176 C 
ATOM      3  O   UNL     1       8.493  -3.345  25.874  0.00  0.00    -0.332 OA
ATOM      4  C   UNL     1       8.267  -3.500  24.453  0.00  0.00    +0.281 C 
ATOM      5  C   UNL     1       6.973  -2.758  24.044  0.00  0.00    +0.111 C 
ATOM      6  C   UNL     1       5.788  -2.890  24.990  0.00  0.00    +0.143 C 
ENDROOT
BRANCH   1   9
ATOM      7  C   UNL     1       6.520   0.979  27.578  0.00  0.00    +0.109 C 
ATOM      8  C   UNL     1       5.937  -0.406  27.494  0.00  0.00    +0.210 C 
ATOM      9  N   UNL     1       6.615  -1.248  26.644  0.00  0.00    -0.308 N 
ATOM     10  H   UNL     1       7.365  -0.877  26.070  0.00  0.00    +0.149 HD
ATOM     11  O   UNL     1       4.930  -0.734  28.109  0.00  0.00    -0.276 OA
ENDBRANCH   1   9
BRANCH   6  12
ATOM     12  O   UNL     1       5.103  -4.129  24.836  0.00  0.00    -0.390 OA
ATOM     13  H   UNL     1       4.599  -4.179  24.008  0.00  0.00    +0.210 HD
ENDBRANCH   6  12
BRANCH   4  14
ATOM     14  C   UNL     1       8.326  -5.024  24.070  0.00  0.00    +0.366 C 
ATOM     15  O   UNL     1       7.494  -5.593  23.371  0.00  0.00    -0.245 OA
BRANCH  14  16
ATOM     16  O   UNL     1       9.420  -5.705  24.485  0.00  0.00    -0.477 OA
ATOM     17  H   UNL     1      10.260  -5.314  24.132  0.00  0.00    +0.295 HD
ENDBRANCH  14  16
ENDBRANCH   4  14
BRANCH   4  18
ATOM     18  O   UNL     1       9.371  -2.818  23.853  0.00  0.00    -0.242 OA
BRANCH  18  19
ATOM     19  P   UNL     1       9.217  -1.403  23.057  0.00  0.00    +0.478 P 
ATOM     20  O   UNL     1      10.569  -1.088  22.402  0.00  0.00    -0.227 OA
BRANCH  19  21
ATOM     21  O   UNL     1       8.826  -2.284  21.620  0.00  0.00    -0.302 OA
ATOM     22  H   UNL     1       9.230  -3.168  21.702  0.00  0.00    +0.222 HD
ENDBRANCH  19  21
BRANCH  19  23
ATOM     23  O   UNL     1       9.605  -0.522  24.494  0.00  0.00    -0.284 OA
BRANCH  23  24
ATOM     24  C   UNL     1      10.688   0.400  24.306  0.00  0.00    +0.206 C 
BRANCH  24  25
ATOM     25  C   UNL     1      10.206   1.851  24.409  0.00  0.00    +0.178 C 
ATOM     26  C   UNL     1      10.431   2.610  23.098  0.00  0.00    +0.178 C 
ATOM     27  C   UNL     1       9.112   2.481  22.336  0.00  0.00    +0.195 C 
ATOM     28  C   UNL     1       8.146   1.849  23.355  0.00  0.00    +0.255 C 
ATOM     29  O   UNL     1       8.786   1.890  24.637  0.00  0.00    -0.346 OA
BRANCH  28  30
ATOM     30  N   UNL     1       6.846   2.494  23.411  0.00  0.00    -0.270 N 
ATOM     31  C   UNL     1       5.787   1.729  23.903  0.00  0.00    +0.352 A 
ATOM     32  O   UNL     1       5.954   0.533  24.151  0.00  0.00    -0.244 OA
ATOM     33  N   UNL     1       4.572   2.342  24.099  0.00  0.00    -0.178 NA
ATOM     34  C   UNL     1       4.401   3.568  23.709  0.00  0.00    +0.123 A 
ATOM     35  N   UNL     1       3.186   4.149  23.949  0.00  0.00    -0.343 N 
ATOM     36  H   UNL     1       2.645   3.652  24.651  0.00  0.00    +0.144 HD
ATOM     37  H   UNL     1       3.162   5.155  24.061  0.00  0.00    +0.144 HD
ATOM     38  C   UNL     1       5.455   4.358  23.043  0.00  0.00    +0.061 A 
ATOM     39  C   UNL     1       6.648   3.774  22.948  0.00  0.00    +0.096 A 
ENDBRANCH  28  30
BRANCH  27  40
ATOM     40  O   UNL     1       9.277   1.636  21.192  0.00  0.00    -0.385 OA
ATOM     41  H   UNL     1       8.524   1.829  20.593  0.00  0.00    +0.210 HD
ENDBRANCH  27  40
BRANCH  26  42
ATOM     42  O   UNL     1      10.712   3.991  23.363  0.00  0.00    -0.386 OA
ATOM     43  H   UNL     1       9.867   4.473  23.411  0.00  0.00    +0.210 HD
ENDBRANCH  26  42
ENDBRANCH  24  25
ENDBRANCH  23  24
ENDBRANCH  19  23
ENDBRANCH  18  19
ENDBRANCH   4  18
BRANCH   2  44
ATOM     44  C   UNL     1       7.065  -5.074  26.960  0.00  0.00    +0.176 C 
BRANCH  44  45
ATOM     45  O   UNL     1       8.272  -5.758  27.359  0.00  0.00    -0.387 OA
ATOM     46  H   UNL     1       8.173  -6.686  27.052  0.00  0.00    +0.210 HD
ENDBRANCH  44  45
BRANCH  44  47
ATOM     47  C   UNL     1       5.922  -5.415  27.936  0.00  0.00    +0.171 C 
BRANCH  47  48
ATOM     48  O   UNL     1       6.443  -5.635  29.247  0.00  0.00    -0.387 OA
ATOM     49  H   UNL     1       7.304  -5.182  29.299  0.00  0.00    +0.210 HD
ENDBRANCH  47  48
BRANCH  47  50
ATOM     50  C   UNL     1       5.109  -6.626  27.435  0.00  0.00    +0.189 C 
BRANCH  50  51
ATOM     51  O   UNL     1       5.319  -7.784  28.236  0.00  0.00    -0.392 OA
ATOM     52  H   UNL     1       5.799  -7.482  29.041  0.00  0.00    +0.210 HD
ENDBRANCH  50  51
ENDBRANCH  47  50
ENDBRANCH  44  47
ENDBRANCH   2  44
TORSDOF 19
ENDMDL
MODEL 5
REMARK VINA RESULT:      -7.0      2.330      4.143
REMARK  Name = 
REMARK  20 active torsions:
REMARK  status: ('A' for Active; 'I' for Inactive)
REMARK    1  A    between atoms: C_1  and  C_2
REMARK    2  A    between atoms: N_4  and  C_5
REMARK    3  A    between atoms: C_7  and  O_9
REMARK    4  A    between atoms: C_11  and  O_12
REMARK    5  A    between atoms: C_11  and  C_48
REMARK    6  A    between atoms: O_12  and  P_13
REMARK    7  A    between atoms: P_13  and  O_14
REMARK    8  A    between atoms: P_13  and  O_16
REMARK    9  A    between atoms: O_16  and  C_17
REMARK   10  A    between atoms: C_17  and  C_18
REMARK   11  A    between atoms: C_21  and  N_29
REMARK   12  A    between atoms: C_23  and  O_25
REMARK   13  A    between atoms: C_26  and  O_28
REMARK   14  A    between atoms: C_38  and  C_40
REMARK   15  A    between atoms: C_40  and  O_42
REMARK   16  A    between atoms: C_40  and  C_43
REMARK   17  A    between atoms: C_43  and  O_45
REMARK   18  A    between atoms: C_43  and  C_46
REMARK   19  A    between atoms: C_46  and  O_47
REMARK   20  A    between atoms: C_48  and  O_49
REMARK                            x       y       z     vdW  Elec       q    Type
REMARK                         _______ _______ _______ _____ _____    ______ ____
ROOT
ATOM      1  C   UNL     1       8.658   4.948  24.067  0.00  0.00    +0.133 C 
ATOM      2  C   UNL     1       8.462   3.701  24.941  0.00  0.00    +0.176 C 
ATOM      3  O   UNL     1       8.421   2.514  24.104  0.00  0.00    -0.332 OA
ATOM      4  C   UNL     1       7.441   2.427  23.043  0.00  0.00    +0.281 C 
ATOM      5  C   UNL     1       7.436   3.741  22.227  0.00  0.00    +0.111 C 
ATOM      6  C   UNL     1       7.538   5.034  23.023  0.00  0.00    +0.143 C 
ENDROOT
BRANCH   1   9
ATOM      7  C   UNL     1      12.300   5.427  23.041  0.00  0.00    +0.109 C 
ATOM      8  C   UNL     1      11.035   5.661  23.822  0.00  0.00    +0.210 C 
ATOM      9  N   UNL     1       9.975   4.886  23.414  0.00  0.00    -0.308 N 
ATOM     10  H   UNL     1      10.070   4.309  22.585  0.00  0.00    +0.149 HD
ATOM     11  O   UNL     1      10.960   6.492  24.718  0.00  0.00    -0.276 OA
ENDBRANCH   1   9
BRANCH   6  12
ATOM     12  O   UNL     1       6.295   5.415  23.606  0.00  0.00    -0.390 OA
ATOM     13  H   UNL     1       5.531   5.155  23.066  0.00  0.00    +0.210 HD
ENDBRANCH   6  12
BRANCH   4  14
ATOM     14  C   UNL     1       6.052   1.991  23.638  0.00  0.00    +0.366 C 
ATOM     15  O   UNL     1       5.066   2.718  23.691  0.00  0.00    -0.245 OA
BRANCH  14  16
ATOM     16  O   UNL     1       5.947   0.701  24.034  0.00  0.00    -0.477 OA
ATOM     17  H   UNL     1       6.562   0.105  23.533  0.00  0.00    +0.295 HD
ENDBRANCH  14  16
ENDBRANCH   4  14
BRANCH   4  18
ATOM     18  O   UNL     1       7.940   1.388  22.198  0.00  0.00    -0.242 OA
BRANCH  18  19
ATOM     19  P   UNL     1       9.360   0.631  22.464  0.00  0.00    +0.478 P 
ATOM     20  O   UNL     1       9.667  -0.231  21.231  0.00  0.00    -0.227 OA
BRANCH  19  21
ATOM     21  O   UNL     1      10.173   1.924  21.651  0.00  0.00    -0.302 OA
ATOM     22  H   UNL     1       9.728   2.754  21.907  0.00  0.00    +0.222 HD
ENDBRANCH  19  21
BRANCH  19  23
ATOM     23  O   UNL     1       8.549  -0.661  23.278  0.00  0.00    -0.284 OA
BRANCH  23  24
ATOM     24  C   UNL     1       9.423  -1.422  24.125  0.00  0.00    +0.206 C 
BRANCH  24  25
ATOM     25  C   UNL     1       9.353  -2.917  23.793  0.00  0.00    +0.178 C 
ATOM     26  C   UNL     1       9.486  -3.776  25.054  0.00  0.00    +0.178 C 
ATOM     27  C   UNL     1       8.048  -4.055  25.495  0.00  0.00    +0.195 C 
ATOM     28  C   UNL     1       7.187  -3.525  24.333  0.00  0.00    +0.255 C 
ATOM     29  O   UNL     1       8.067  -3.246  23.238  0.00  0.00    -0.346 OA
BRANCH  28  30
ATOM     30  N   UNL     1       6.132  -4.435  23.923  0.00  0.00    -0.270 N 
ATOM     31  C   UNL     1       4.905  -4.309  24.580  0.00  0.00    +0.352 A 
ATOM     32  O   UNL     1       4.796  -3.541  25.538  0.00  0.00    -0.244 OA
ATOM     33  N   UNL     1       3.842  -5.057  24.130  0.00  0.00    -0.178 NA
ATOM     34  C   UNL     1       4.028  -5.943  23.202  0.00  0.00    +0.123 A 
ATOM     35  N   UNL     1       2.938  -6.645  22.764  0.00  0.00    -0.343 N 
ATOM     36  H   UNL     1       2.059  -6.202  23.016  0.00  0.00    +0.144 HD
ATOM     37  H   UNL     1       2.956  -6.991  21.813  0.00  0.00    +0.144 HD
ATOM     38  C   UNL     1       5.346  -6.212  22.593  0.00  0.00    +0.061 A 
ATOM     39  C   UNL     1       6.339  -5.413  22.979  0.00  0.00    +0.096 A 
ENDBRANCH  28  30
BRANCH  27  40
ATOM     40  O   UNL     1       7.756  -3.358  26.711  0.00  0.00    -0.385 OA
ATOM     41  H   UNL     1       7.525  -4.043  27.375  0.00  0.00    +0.210 HD
ENDBRANCH  27  40
BRANCH  26  42
ATOM     42  O   UNL     1      10.154  -5.009  24.750  0.00  0.00    -0.386 OA
ATOM     43  H   UNL     1      10.863  -5.144  25.404  0.00  0.00    +0.210 HD
ENDBRANCH  26  42
ENDBRANCH  24  25
ENDBRANCH  23  24
ENDBRANCH  19  23
ENDBRANCH  18  19
ENDBRANCH   4  18
BRANCH   2  44
ATOM     44  C   UNL     1       7.287   3.747  25.949  0.00  0.00    +0.176 C 
BRANCH  44  45
ATOM     45  O   UNL     1       7.395   2.599  26.818  0.00  0.00    -0.387 OA
ATOM     46  H   UNL     1       7.932   2.890  27.587  0.00  0.00    +0.210 HD
ENDBRANCH  44  45
BRANCH  44  47
ATOM     47  C   UNL     1       7.169   5.032  26.790  0.00  0.00    +0.171 C 
BRANCH  47  48
ATOM     48  O   UNL     1       7.574   4.779  28.136  0.00  0.00    -0.387 OA
ATOM     49  H   UNL     1       7.436   3.830  28.309  0.00  0.00    +0.210 HD
ENDBRANCH  47  48
BRANCH  47  50
ATOM     50  C   UNL     1       5.738   5.606  26.725  0.00  0.00    +0.189 C 
BRANCH  50  51
ATOM     51  O   UNL     1       4.857   4.774  25.979  0.00  0.00    -0.392 OA
ATOM     52  H   UNL     1       3.953   5.145  26.101  0.00  0.00    +0.210 HD
ENDBRANCH  50  51
ENDBRANCH  47  50
ENDBRANCH  44  47
ENDBRANCH   2  44
TORSDOF 19
ENDMDL
MODEL 6
REMARK VINA RESULT:      -7.0      2.813      9.069
REMARK  Name = 
REMARK  20 active torsions:
REMARK  status: ('A' for Active; 'I' for Inactive)
REMARK    1  A    between atoms: C_1  and  C_2
REMARK    2  A    between atoms: N_4  and  C_5
REMARK    3  A    between atoms: C_7  and  O_9
REMARK    4  A    between atoms: C_11  and  O_12
REMARK    5  A    between atoms: C_11  and  C_48
REMARK    6  A    between atoms: O_12  and  P_13
REMARK    7  A    between atoms: P_13  and  O_14
REMARK    8  A    between atoms: P_13  and  O_16
REMARK    9  A    between atoms: O_16  and  C_17
REMARK   10  A    between atoms: C_17  and  C_18
REMARK   11  A    between atoms: C_21  and  N_29
REMARK   12  A    between atoms: C_23  and  O_25
REMARK   13  A    between atoms: C_26  and  O_28
REMARK   14  A    between atoms: C_38  and  C_40
REMARK   15  A    between atoms: C_40  and  O_42
REMARK   16  A    between atoms: C_40  and  C_43
REMARK   17  A    between atoms: C_43  and  O_45
REMARK   18  A    between atoms: C_43  and  C_46
REMARK   19  A    between atoms: C_46  and  O_47
REMARK   20  A    between atoms: C_48  and  O_49
REMARK                            x       y       z     vdW  Elec       q    Type
REMARK                         _______ _______ _______ _____ _____    ______ ____
ROOT
ATOM      1  C   UNL     1       2.781  -5.423  26.579  0.00  0.00    +0.133 C 
ATOM      2  C   UNL     1       3.890  -6.115  25.774  0.00  0.00    +0.176 C 
ATOM      3  O   UNL     1       4.967  -5.177  25.509  0.00  0.00    -0.332 OA
ATOM      4  C   UNL     1       4.675  -3.937  24.821  0.00  0.00    +0.281 C 
ATOM      5  C   UNL     1       3.433  -3.268  25.453  0.00  0.00    +0.111 C 
ATOM      6  C   UNL     1       2.278  -4.189  25.820  0.00  0.00    +0.143 C 
ENDROOT
BRANCH   1   9
ATOM      7  C   UNL     1       3.934  -5.349  30.214  0.00  0.00    +0.109 C 
ATOM      8  C   UNL     1       3.341  -5.925  28.957  0.00  0.00    +0.210 C 
ATOM      9  N   UNL     1       3.301  -5.044  27.902  0.00  0.00    -0.308 N 
ATOM     10  H   UNL     1       3.561  -4.075  28.054  0.00  0.00    +0.149 HD
ATOM     11  O   UNL     1       2.907  -7.069  28.899  0.00  0.00    -0.276 OA
ENDBRANCH   1   9
BRANCH   6  12
ATOM     12  O   UNL     1       1.486  -4.545  24.690  0.00  0.00    -0.390 OA
ATOM     13  H   UNL     1       0.565  -4.744  24.925  0.00  0.00    +0.210 HD
ENDBRANCH   6  12
BRANCH   4  14
ATOM     14  C   UNL     1       4.592  -4.198  23.273  0.00  0.00    +0.366 C 
ATOM     15  O   UNL     1       3.668  -4.785  22.720  0.00  0.00    -0.245 OA
BRANCH  14  16
ATOM     16  O   UNL     1       5.577  -3.656  22.519  0.00  0.00    -0.477 OA
ATOM     17  H   UNL     1       5.682  -4.121  21.649  0.00  0.00    +0.295 HD
ENDBRANCH  14  16
ENDBRANCH   4  14
BRANCH   4  18
ATOM     18  O   UNL     1       5.809  -3.114  25.102  0.00  0.00    -0.242 OA
BRANCH  18  19
ATOM     19  P   UNL     1       7.127  -3.655  25.895  0.00  0.00    +0.478 P 
ATOM     20  O   UNL     1       7.840  -2.437  26.499  0.00  0.00    -0.227 OA
BRANCH  19  21
ATOM     21  O   UNL     1       6.194  -3.718  27.350  0.00  0.00    -0.302 OA
ATOM     22  H   UNL     1       5.492  -3.044  27.276  0.00  0.00    +0.222 HD
ENDBRANCH  19  21
BRANCH  19  23
ATOM     23  O   UNL     1       8.060  -3.594  24.440  0.00  0.00    -0.284 OA
BRANCH  23  24
ATOM     24  C   UNL     1       9.420  -3.196  24.667  0.00  0.00    +0.206 C 
BRANCH  24  25
ATOM     25  C   UNL     1       9.906  -2.237  23.575  0.00  0.00    +0.178 C 
ATOM     26  C   UNL     1       8.831  -2.013  22.508  0.00  0.00    +0.178 C 
ATOM     27  C   UNL     1       8.094  -0.748  22.949  0.00  0.00    +0.195 C 
ATOM     28  C   UNL     1       8.937  -0.207  24.118  0.00  0.00    +0.255 C 
ATOM     29  O   UNL     1      10.170  -0.937  24.133  0.00  0.00    -0.346 OA
BRANCH  28  30
ATOM     30  N   UNL     1       9.189   1.222  24.048  0.00  0.00    -0.270 N 
ATOM     31  C   UNL     1       8.234   2.056  24.633  0.00  0.00    +0.352 A 
ATOM     32  O   UNL     1       7.183   1.580  25.068  0.00  0.00    -0.244 OA
ATOM     33  N   UNL     1       8.499   3.403  24.707  0.00  0.00    -0.178 NA
ATOM     34  C   UNL     1       9.557   3.882  24.128  0.00  0.00    +0.123 A 
ATOM     35  N   UNL     1       9.798   5.223  24.252  0.00  0.00    -0.343 N 
ATOM     36  H   UNL     1       9.274   5.648  25.012  0.00  0.00    +0.144 HD
ATOM     37  H   UNL     1      10.761   5.532  24.205  0.00  0.00    +0.144 HD
ATOM     38  C   UNL     1      10.509   3.049  23.367  0.00  0.00    +0.061 A 
ATOM     39  C   UNL     1      10.280   1.738  23.388  0.00  0.00    +0.096 A 
ENDBRANCH  28  30
BRANCH  27  40
ATOM     40  O   UNL     1       6.766  -1.070  23.380  0.00  0.00    -0.385 OA
ATOM     41  H   UNL     1       6.715  -2.050  23.412  0.00  0.00    +0.210 HD
ENDBRANCH  27  40
BRANCH  26  42
ATOM     42  O   UNL     1       9.438  -1.804  21.225  0.00  0.00    -0.386 OA
ATOM     43  H   UNL     1       8.824  -2.125  20.539  0.00  0.00    +0.210 HD
ENDBRANCH  26  42
ENDBRANCH  24  25
ENDBRANCH  23  24
ENDBRANCH  19  23
ENDBRANCH  18  19
ENDBRANCH   4  18
BRANCH   2  44
ATOM     44  C   UNL     1       3.442  -6.867  24.496  0.00  0.00    +0.176 C 
BRANCH  44  45
ATOM     45  O   UNL     1       4.598  -7.522  23.932  0.00  0.00    -0.387 OA
ATOM     46  H   UNL     1       4.669  -8.389  24.388  0.00  0.00    +0.210 HD
ENDBRANCH  44  45
BRANCH  44  47
ATOM     47  C   UNL     1       2.298  -7.885  24.677  0.00  0.00    +0.171 C 
BRANCH  47  48
ATOM     48  O   UNL     1       2.801  -9.094  25.246  0.00  0.00    -0.387 OA
ATOM     49  H   UNL     1       3.141  -8.880  26.134  0.00  0.00    +0.210 HD
ENDBRANCH  47  48
BRANCH  47  50
ATOM     50  C   UNL     1       1.572  -8.143  23.341  0.00  0.00    +0.189 C 
BRANCH  50  51
ATOM     51  O   UNL     1       2.109  -7.365  22.276  0.00  0.00    -0.392 OA
ATOM     52  H   UNL     1       2.072  -7.932  21.471  0.00  0.00    +0.210 HD
ENDBRANCH  50  51
ENDBRANCH  47  50
ENDBRANCH  44  47
ENDBRANCH   2  44
TORSDOF 19
ENDMDL
MODEL 7
REMARK VINA RESULT:      -7.0      2.782      8.762
REMARK  Name = 
REMARK  20 active torsions:
REMARK  status: ('A' for Active; 'I' for Inactive)
REMARK    1  A    between atoms: C_1  and  C_2
REMARK    2  A    between atoms: N_4  and  C_5
REMARK    3  A    between atoms: C_7  and  O_9
REMARK    4  A    between atoms: C_11  and  O_12
REMARK    5  A    between atoms: C_11  and  C_48
REMARK    6  A    between atoms: O_12  and  P_13
REMARK    7  A    between atoms: P_13  and  O_14
REMARK    8  A    between atoms: P_13  and  O_16
REMARK    9  A    between atoms: O_16  and  C_17
REMARK   10  A    between atoms: C_17  and  C_18
REMARK   11  A    between atoms: C_21  and  N_29
REMARK   12  A    between atoms: C_23  and  O_25
REMARK   13  A    between atoms: C_26  and  O_28
REMARK   14  A    between atoms: C_38  and  C_40
REMARK   15  A    between atoms: C_40  and  O_42
REMARK   16  A    between atoms: C_40  and  C_43
REMARK   17  A    between atoms: C_43  and  O_45
REMARK   18  A    between atoms: C_43  and  C_46
REMARK   19  A    between atoms: C_46  and  O_47
REMARK   20  A    between atoms: C_48  and  O_49
REMARK                            x       y       z     vdW  Elec       q    Type
REMARK                         _______ _______ _______ _____ _____    ______ ____
ROOT
ATOM      1  C   UNL     1       5.285  -6.173  26.051  0.00  0.00    +0.133 C 
ATOM      2  C   UNL     1       5.903  -4.790  26.300  0.00  0.00    +0.176 C 
ATOM      3  O   UNL     1       4.878  -3.766  26.198  0.00  0.00    -0.332 OA
ATOM      4  C   UNL     1       4.103  -3.655  24.980  0.00  0.00    +0.281 C 
ATOM      5  C   UNL     1       3.604  -5.054  24.549  0.00  0.00    +0.111 C 
ATOM      6  C   UNL     1       4.597  -6.199  24.681  0.00  0.00    +0.143 C 
ENDROOT
BRANCH   1   9
ATOM      7  C   UNL     1       3.579  -7.202  29.305  0.00  0.00    +0.109 C 
ATOM      8  C   UNL     1       4.713  -6.986  28.339  0.00  0.00    +0.210 C 
ATOM      9  N   UNL     1       4.323  -6.478  27.122  0.00  0.00    -0.308 N 
ATOM     10  H   UNL     1       3.334  -6.382  26.917  0.00  0.00    +0.149 HD
ATOM     11  O   UNL     1       5.872  -7.272  28.612  0.00  0.00    -0.276 OA
ENDBRANCH   1   9
BRANCH   6  12
ATOM     12  O   UNL     1       5.540  -6.229  23.613  0.00  0.00    -0.390 OA
ATOM     13  H   UNL     1       6.344  -6.726  23.835  0.00  0.00    +0.210 HD
ENDBRANCH   6  12
BRANCH   4  14
ATOM     14  C   UNL     1       4.926  -2.864  23.899  0.00  0.00    +0.366 C 
ATOM     15  O   UNL     1       5.182  -3.291  22.778  0.00  0.00    -0.245 OA
BRANCH  14  16
ATOM     16  O   UNL     1       5.293  -1.603  24.227  0.00  0.00    -0.477 OA
ATOM     17  H   UNL     1       5.916  -1.583  24.998  0.00  0.00    +0.295 HD
ENDBRANCH  14  16
ENDBRANCH   4  14
BRANCH   4  18
ATOM     18  O   UNL     1       2.965  -2.883  25.367  0.00  0.00    -0.242 OA
BRANCH  18  19
ATOM     19  P   UNL     1       2.749  -2.312  26.879  0.00  0.00    +0.478 P 
ATOM     20  O   UNL     1       1.284  -1.871  27.005  0.00  0.00    -0.227 OA
BRANCH  19  21
ATOM     21  O   UNL     1       2.223  -3.886  27.370  0.00  0.00    -0.302 OA
ATOM     22  H   UNL     1       2.782  -4.537  26.906  0.00  0.00    +0.222 HD
ENDBRANCH  19  21
BRANCH  19  23
ATOM     23  O   UNL     1       3.276  -0.739  26.390  0.00  0.00    -0.284 OA
BRANCH  23  24
ATOM     24  C   UNL     1       4.366  -0.245  27.181  0.00  0.00    +0.206 C 
BRANCH  24  25
ATOM     25  C   UNL     1       4.834   1.127  26.685  0.00  0.00    +0.178 C 
ATOM     26  C   UNL     1       5.772   1.797  27.693  0.00  0.00    +0.178 C 
ATOM     27  C   UNL     1       7.181   1.420  27.232  0.00  0.00    +0.195 C 
ATOM     28  C   UNL     1       6.964   0.747  25.864  0.00  0.00    +0.255 C 
ATOM     29  O   UNL     1       5.605   0.986  25.478  0.00  0.00    -0.346 OA
BRANCH  28  30
ATOM     30  N   UNL     1       7.878   1.206  24.833  0.00  0.00    -0.270 N 
ATOM     31  C   UNL     1       8.400   0.232  23.979  0.00  0.00    +0.352 A 
ATOM     32  O   UNL     1       8.175  -0.961  24.195  0.00  0.00    -0.244 OA
ATOM     33  N   UNL     1       9.160   0.640  22.908  0.00  0.00    -0.178 NA
ATOM     34  C   UNL     1       9.478   1.892  22.786  0.00  0.00    +0.123 A 
ATOM     35  N   UNL     1      10.210   2.258  21.691  0.00  0.00    -0.343 N 
ATOM     36  H   UNL     1      10.190   1.561  20.952  0.00  0.00    +0.144 HD
ATOM     37  H   UNL     1      10.102   3.207  21.351  0.00  0.00    +0.144 HD
ATOM     38  C   UNL     1       9.071   2.927  23.757  0.00  0.00    +0.061 A 
ATOM     39  C   UNL     1       8.261   2.523  24.733  0.00  0.00    +0.096 A 
ENDBRANCH  28  30
BRANCH  27  40
ATOM     40  O   UNL     1       7.783   0.513  28.162  0.00  0.00    -0.385 OA
ATOM     41  H   UNL     1       8.754   0.597  28.043  0.00  0.00    +0.210 HD
ENDBRANCH  27  40
BRANCH  26  42
ATOM     42  O   UNL     1       5.608   3.221  27.658  0.00  0.00    -0.386 OA
ATOM     43  H   UNL     1       5.314   3.519  28.537  0.00  0.00    +0.210 HD
ENDBRANCH  26  42
ENDBRANCH  24  25
ENDBRANCH  23  24
ENDBRANCH  19  23
ENDBRANCH  18  19
ENDBRANCH   4  18
BRANCH   2  44
ATOM     44  C   UNL     1       7.162  -4.443  25.467  0.00  0.00    +0.176 C 
BRANCH  44  45
ATOM     45  O   UNL     1       7.529  -3.077  25.757  0.00  0.00    -0.387 OA
ATOM     46  H   UNL     1       8.132  -2.798  25.033  0.00  0.00    +0.210 HD
ENDBRANCH  44  45
BRANCH  44  47
ATOM     47  C   UNL     1       8.379  -5.367  25.663  0.00  0.00    +0.171 C 
BRANCH  47  48
ATOM     48  O   UNL     1       8.363  -5.929  26.976  0.00  0.00    -0.387 OA
ATOM     49  H   UNL     1       9.287  -5.982  27.282  0.00  0.00    +0.210 HD
ENDBRANCH  47  48
BRANCH  47  50
ATOM     50  C   UNL     1       9.696  -4.614  25.383  0.00  0.00    +0.189 C 
BRANCH  50  51
ATOM     51  O   UNL     1       9.625  -3.827  24.199  0.00  0.00    -0.392 OA
ATOM     52  H   UNL     1      10.520  -3.435  24.072  0.00  0.00    +0.210 HD
ENDBRANCH  50  51
ENDBRANCH  47  50
ENDBRANCH  44  47
ENDBRANCH   2  44
TORSDOF 19
ENDMDL
MODEL 8
REMARK VINA RESULT:      -6.9      2.144      3.758
REMARK  Name = 
REMARK  20 active torsions:
REMARK  status: ('A' for Active; 'I' for Inactive)
REMARK    1  A    between atoms: C_1  and  C_2
REMARK    2  A    between atoms: N_4  and  C_5
REMARK    3  A    between atoms: C_7  and  O_9
REMARK    4  A    between atoms: C_11  and  O_12
REMARK    5  A    between atoms: C_11  and  C_48
REMARK    6  A    between atoms: O_12  and  P_13
REMARK    7  A    between atoms: P_13  and  O_14
REMARK    8  A    between atoms: P_13  and  O_16
REMARK    9  A    between atoms: O_16  and  C_17
REMARK   10  A    between atoms: C_17  and  C_18
REMARK   11  A    between atoms: C_21  and  N_29
REMARK   12  A    between atoms: C_23  and  O_25
REMARK   13  A    between atoms: C_26  and  O_28
REMARK   14  A    between atoms: C_38  and  C_40
REMARK   15  A    between atoms: C_40  and  O_42
REMARK   16  A    between atoms: C_40  and  C_43
REMARK   17  A    between atoms: C_43  and  O_45
REMARK   18  A    between atoms: C_43  and  C_46
REMARK   19  A    between atoms: C_46  and  O_47
REMARK   20  A    between atoms: C_48  and  O_49
REMARK                            x       y       z     vdW  Elec       q    Type
REMARK                         _______ _______ _______ _____ _____    ______ ____
ROOT
ATOM      1  C   UNL     1       6.986   3.274  23.806  0.00  0.00    +0.133 C 
ATOM      2  C   UNL     1       8.201   2.935  22.931  0.00  0.00    +0.176 C 
ATOM      3  O   UNL     1       8.202   1.516  22.617  0.00  0.00    -0.332 OA
ATOM      4  C   UNL     1       8.192   0.550  23.695  0.00  0.00    +0.281 C 
ATOM      5  C   UNL     1       7.114   0.937  24.734  0.00  0.00    +0.111 C 
ATOM      6  C   UNL     1       7.002   2.416  25.077  0.00  0.00    +0.143 C 
ENDROOT
BRANCH   1   9
ATOM      7  C   UNL     1       3.501   3.466  22.267  0.00  0.00    +0.109 C 
ATOM      8  C   UNL     1       4.649   3.856  23.158  0.00  0.00    +0.210 C 
ATOM      9  N   UNL     1       5.752   3.044  23.038  0.00  0.00    -0.308 N 
ATOM     10  H   UNL     1       5.694   2.208  22.466  0.00  0.00    +0.149 HD
ATOM     11  O   UNL     1       4.584   4.797  23.940  0.00  0.00    -0.276 OA
ENDBRANCH   1   9
BRANCH   6  12
ATOM     12  O   UNL     1       8.008   2.840  25.992  0.00  0.00    -0.390 OA
ATOM     13  H   UNL     1       8.639   2.135  26.211  0.00  0.00    +0.210 HD
ENDBRANCH   6  12
BRANCH   4  14
ATOM     14  C   UNL     1       9.648   0.372  24.261  0.00  0.00    +0.366 C 
ATOM     15  O   UNL     1      10.660   0.355  23.569  0.00  0.00    -0.245 OA
BRANCH  14  16
ATOM     16  O   UNL     1       9.766   0.319  25.609  0.00  0.00    -0.477 OA
ATOM     17  H   UNL     1      10.701   0.467  25.908  0.00  0.00    +0.295 HD
ENDBRANCH  14  16
ENDBRANCH   4  14
BRANCH   4  18
ATOM     18  O   UNL     1       7.778  -0.664  23.064  0.00  0.00    -0.242 OA
BRANCH  18  19
ATOM     19  P   UNL     1       8.783  -1.924  22.816  0.00  0.00    +0.478 P 
ATOM     20  O   UNL     1       8.030  -2.959  21.967  0.00  0.00    -0.227 OA
BRANCH  19  21
ATOM     21  O   UNL     1       9.284  -1.199  21.328  0.00  0.00    -0.302 OA
ATOM     22  H   UNL     1      10.237  -1.007  21.404  0.00  0.00    +0.222 HD
ENDBRANCH  19  21
BRANCH  19  23
ATOM     23  O   UNL     1       8.283  -2.650  24.305  0.00  0.00    -0.284 OA
BRANCH  23  24
ATOM     24  C   UNL     1       9.260  -3.555  24.839  0.00  0.00    +0.206 C 
BRANCH  24  25
ATOM     25  C   UNL     1       8.606  -4.853  25.325  0.00  0.00    +0.178 C 
ATOM     26  C   UNL     1       7.908  -4.656  26.674  0.00  0.00    +0.178 C 
ATOM     27  C   UNL     1       6.453  -4.340  26.323  0.00  0.00    +0.195 C 
ATOM     28  C   UNL     1       6.365  -4.597  24.807  0.00  0.00    +0.255 C 
ATOM     29  O   UNL     1       7.571  -5.264  24.414  0.00  0.00    -0.346 OA
BRANCH  28  30
ATOM     30  N   UNL     1       5.201  -5.369  24.410  0.00  0.00    -0.270 N 
ATOM     31  C   UNL     1       4.531  -4.946  23.259  0.00  0.00    +0.352 A 
ATOM     32  O   UNL     1       4.863  -3.896  22.705  0.00  0.00    -0.244 OA
ATOM     33  N   UNL     1       3.508  -5.726  22.773  0.00  0.00    -0.178 NA
ATOM     34  C   UNL     1       3.108  -6.755  23.453  0.00  0.00    +0.123 A 
ATOM     35  N   UNL     1       2.107  -7.520  22.918  0.00  0.00    -0.343 N 
ATOM     36  H   UNL     1       1.977  -7.359  21.924  0.00  0.00    +0.144 HD
ATOM     37  H   UNL     1       2.079  -8.500  23.174  0.00  0.00    +0.144 HD
ATOM     38  C   UNL     1       3.691  -7.143  24.753  0.00  0.00    +0.061 A 
ATOM     39  C   UNL     1       4.739  -6.428  25.156  0.00  0.00    +0.096 A 
ENDBRANCH  28  30
BRANCH  27  40
ATOM     40  O   UNL     1       6.151  -2.975  26.631  0.00  0.00    -0.385 OA
ATOM     41  H   UNL     1       5.821  -2.965  27.556  0.00  0.00    +0.210 HD
ENDBRANCH  27  40
BRANCH  26  42
ATOM     42  O   UNL     1       7.975  -5.859  27.452  0.00  0.00    -0.386 OA
ATOM     43  H   UNL     1       7.190  -6.400  27.250  0.00  0.00    +0.210 HD
ENDBRANCH  26  42
ENDBRANCH  24  25
ENDBRANCH  23  24
ENDBRANCH  19  23
ENDBRANCH  18  19
ENDBRANCH   4  18
BRANCH   2  44
ATOM     44  C   UNL     1       9.577   3.420  23.451  0.00  0.00    +0.176 C 
BRANCH  44  45
ATOM     45  O   UNL     1      10.584   3.023  22.495  0.00  0.00    -0.387 OA
ATOM     46  H   UNL     1      10.100   2.617  21.744  0.00  0.00    +0.210 HD
ENDBRANCH  44  45
BRANCH  44  47
ATOM     47  C   UNL     1       9.696   4.928  23.743  0.00  0.00    +0.171 C 
BRANCH  47  48
ATOM     48  O   UNL     1       9.011   5.679  22.740  0.00  0.00    -0.387 OA
ATOM     49  H   UNL     1       9.686   6.115  22.189  0.00  0.00    +0.210 HD
ENDBRANCH  47  48
BRANCH  47  50
ATOM     50  C   UNL     1      11.173   5.354  23.863  0.00  0.00    +0.189 C 
BRANCH  50  51
ATOM     51  O   UNL     1      11.780   5.559  22.592  0.00  0.00    -0.392 OA
ATOM     52  H   UNL     1      11.546   4.776  22.042  0.00  0.00    +0.210 HD
ENDBRANCH  50  51
ENDBRANCH  47  50
ENDBRANCH  44  47
ENDBRANCH   2  44
TORSDOF 19
ENDMDL
MODEL 9
REMARK VINA RESULT:      -6.8      2.445      9.196
REMARK  Name = 
REMARK  20 active torsions:
REMARK  status: ('A' for Active; 'I' for Inactive)
REMARK    1  A    between atoms: C_1  and  C_2
REMARK    2  A    between atoms: N_4  and  C_5
REMARK    3  A    between atoms: C_7  and  O_9
REMARK    4  A    between atoms: C_11  and  O_12
REMARK    5  A    between atoms: C_11  and  C_48
REMARK    6  A    between atoms: O_12  and  P_13
REMARK    7  A    between atoms: P_13  and  O_14
REMARK    8  A    between atoms: P_13  and  O_16
REMARK    9  A    between atoms: O_16  and  C_17
REMARK   10  A    between atoms: C_17  and  C_18
REMARK   11  A    between atoms: C_21  and  N_29
REMARK   12  A    between atoms: C_23  and  O_25
REMARK   13  A    between atoms: C_26  and  O_28
REMARK   14  A    between atoms: C_38  and  C_40
REMARK   15  A    between atoms: C_40  and  O_42
REMARK   16  A    between atoms: C_40  and  C_43
REMARK   17  A    between atoms: C_43  and  O_45
REMARK   18  A    between atoms: C_43  and  C_46
REMARK   19  A    between atoms: C_46  and  O_47
REMARK   20  A    between atoms: C_48  and  O_49
REMARK                            x       y       z     vdW  Elec       q    Type
REMARK                         _______ _______ _______ _____ _____    ______ ____
ROOT
ATOM      1  C   UNL     1       7.762  -4.818  24.869  0.00  0.00    +0.133 C 
ATOM      2  C   UNL     1       6.673  -3.924  25.480  0.00  0.00    +0.176 C 
ATOM      3  O   UNL     1       6.823  -2.562  24.995  0.00  0.00    -0.332 OA
ATOM      4  C   UNL     1       8.079  -1.872  25.195  0.00  0.00    +0.281 C 
ATOM      5  C   UNL     1       9.252  -2.791  24.784  0.00  0.00    +0.111 C 
ATOM      6  C   UNL     1       9.148  -4.252  25.199  0.00  0.00    +0.143 C 
ENDROOT
BRANCH   1   9
ATOM      7  C   UNL     1       6.480  -5.521  21.346  0.00  0.00    +0.109 C 
ATOM      8  C   UNL     1       6.514  -5.582  22.849  0.00  0.00    +0.210 C 
ATOM      9  N   UNL     1       7.566  -4.899  23.412  0.00  0.00    -0.308 N 
ATOM     10  H   UNL     1       8.282  -4.504  22.812  0.00  0.00    +0.149 HD
ATOM     11  O   UNL     1       5.691  -6.213  23.500  0.00  0.00    -0.276 OA
ENDBRANCH   1   9
BRANCH   6  12
ATOM     12  O   UNL     1       9.494  -4.455  26.566  0.00  0.00    -0.390 OA
ATOM     13  H   UNL     1      10.409  -4.758  26.681  0.00  0.00    +0.210 HD
ENDBRANCH   6  12
BRANCH   4  14
ATOM     14  C   UNL     1       8.144  -1.301  26.658  0.00  0.00    +0.366 C 
ATOM     15  O   UNL     1       9.117  -1.404  27.397  0.00  0.00    -0.245 OA
BRANCH  14  16
ATOM     16  O   UNL     1       7.071  -0.586  27.072  0.00  0.00    -0.477 OA
ATOM     17  H   UNL     1       6.746  -0.880  27.962  0.00  0.00    +0.295 HD
ENDBRANCH  14  16
ENDBRANCH   4  14
BRANCH   4  18
ATOM     18  O   UNL     1       8.026  -0.787  24.266  0.00  0.00    -0.242 OA
BRANCH  18  19
ATOM     19  P   UNL     1       6.751  -0.518  23.286  0.00  0.00    +0.478 P 
ATOM     20  O   UNL     1       7.236   0.358  22.121  0.00  0.00    -0.227 OA
BRANCH  19  21
ATOM     21  O   UNL     1       7.224  -1.885  22.337  0.00  0.00    -0.302 OA
ATOM     22  H   UNL     1       7.645  -1.545  21.526  0.00  0.00    +0.222 HD
ENDBRANCH  19  21
BRANCH  19  23
ATOM     23  O   UNL     1       6.276   0.849  24.233  0.00  0.00    -0.284 OA
BRANCH  23  24
ATOM     24  C   UNL     1       5.733   1.915  23.441  0.00  0.00    +0.206 C 
BRANCH  24  25
ATOM     25  C   UNL     1       6.180   3.282  23.970  0.00  0.00    +0.178 C 
ATOM     26  C   UNL     1       6.532   3.219  25.459  0.00  0.00    +0.178 C 
ATOM     27  C   UNL     1       8.042   2.982  25.498  0.00  0.00    +0.195 C 
ATOM     28  C   UNL     1       8.489   3.148  24.033  0.00  0.00    +0.255 C 
ATOM     29  O   UNL     1       7.386   3.704  23.308  0.00  0.00    -0.346 OA
BRANCH  28  30
ATOM     30  N   UNL     1       9.675   3.970  23.872  0.00  0.00    -0.270 N 
ATOM     31  C   UNL     1      10.871   3.300  23.603  0.00  0.00    +0.352 A 
ATOM     32  O   UNL     1      10.906   2.068  23.632  0.00  0.00    -0.244 OA
ATOM     33  N   UNL     1      11.988   4.047  23.310  0.00  0.00    -0.178 NA
ATOM     34  C   UNL     1      11.941   5.339  23.412  0.00  0.00    +0.123 A 
ATOM     35  N   UNL     1      13.066   6.044  23.083  0.00  0.00    -0.343 N 
ATOM     36  H   UNL     1      13.724   5.500  22.532  0.00  0.00    +0.144 HD
ATOM     37  H   UNL     1      12.943   6.991  22.743  0.00  0.00    +0.144 HD
ATOM     38  C   UNL     1      10.735   6.073  23.844  0.00  0.00    +0.061 A 
ATOM     39  C   UNL     1       9.643   5.336  24.033  0.00  0.00    +0.096 A 
ENDBRANCH  28  30
BRANCH  27  40
ATOM     40  O   UNL     1       8.327   1.662  25.975  0.00  0.00    -0.385 OA
ATOM     41  H   UNL     1       7.474   1.290  26.288  0.00  0.00    +0.210 HD
ENDBRANCH  27  40
BRANCH  26  42
ATOM     42  O   UNL     1       6.214   4.461  26.100  0.00  0.00    -0.386 OA
ATOM     43  H   UNL     1       5.504   4.300  26.748  0.00  0.00    +0.210 HD
ENDBRANCH  26  42
ENDBRANCH  24  25
ENDBRANCH  23  24
ENDBRANCH  19  23
ENDBRANCH  18  19
ENDBRANCH   4  18
BRANCH   2  44
ATOM     44  C   UNL     1       6.523  -3.983  27.020  0.00  0.00    +0.176 C 
BRANCH  44  45
ATOM     45  O   UNL     1       5.457  -3.087  27.402  0.00  0.00    -0.387 OA
ATOM     46  H   UNL     1       5.794  -2.573  28.168  0.00  0.00    +0.210 HD
ENDBRANCH  44  45
BRANCH  44  47
ATOM     47  C   UNL     1       6.277  -5.380  27.623  0.00  0.00    +0.171 C 
BRANCH  47  48
ATOM     48  O   UNL     1       7.516  -6.070  27.787  0.00  0.00    -0.387 OA
ATOM     49  H   UNL     1       7.311  -7.018  27.886  0.00  0.00    +0.210 HD
ENDBRANCH  47  48
BRANCH  47  50
ATOM     50  C   UNL     1       5.285  -6.187  26.760  0.00  0.00    +0.189 C 
BRANCH  50  51
ATOM     51  O   UNL     1       3.970  -5.643  26.800  0.00  0.00    -0.392 OA
ATOM     52  H   UNL     1       3.860  -5.123  25.971  0.00  0.00    +0.210 HD
ENDBRANCH  50  51
ENDBRANCH  47  50
ENDBRANCH  44  47
ENDBRANCH   2  44
TORSDOF 19
ENDMDL
