MODEL 1
REMARK VINA RESULT:      -5.8      0.000      0.000
REMARK  Name = 
REMARK  8 active torsions:
REMARK  status: ('A' for Active; 'I' for Inactive)
REMARK    1  A    between atoms: C_1  and  O_2
REMARK    2  A    between atoms: O_2  and  C_3
REMARK    3  A    between atoms: C_3  and  C_4
REMARK    4  A    between atoms: C_4  and  N_6
REMARK    5  A    between atoms: C_4  and  C_10
REMARK    6  A    between atoms: C_7  and  C_8
REMARK    7  A    between atoms: N_12  and  C_13
REMARK    8  A    between atoms: C_13  and  C_14
REMARK                            x       y       z     vdW  Elec       q    Type
REMARK                         _______ _______ _______ _____ _____    ______ ____
ROOT
ATOM      1  C   UNL     1       8.782  -3.806  24.138  0.00  0.00    +0.236 C 
ATOM      2  N   UNL     1       8.948  -2.579  23.537  0.00  0.00    -0.310 N 
ATOM      3  H   UNL     1       8.164  -2.220  22.987  0.00  0.00    +0.149 HD
ATOM      4  O   UNL     1       9.723  -4.469  24.573  0.00  0.00    -0.274 OA
ENDROOT
BRANCH   1   5
ATOM      5  C   UNL     1       7.330  -4.302  24.249  0.00  0.00    +0.185 C 
BRANCH   5   6
ATOM      6  N   UNL     1       7.128  -5.091  25.473  0.00  0.00    -0.302 N 
ATOM      7  H   UNL     1       7.365  -6.073  25.414  0.00  0.00    +0.150 HD
ATOM      8  C   UNL     1       6.814  -4.558  26.693  0.00  0.00    +0.211 C 
ATOM      9  O   UNL     1       6.602  -3.362  26.871  0.00  0.00    -0.276 OA
ATOM     10  C   UNL     1       6.696  -5.562  27.808  0.00  0.00    +0.109 C 
ENDBRANCH   5   6
BRANCH   5  11
ATOM     11  C   UNL     1       6.885  -4.977  22.944  0.00  0.00    +0.191 C 
BRANCH  11  13
ATOM     12  C   UNL     1       5.688  -3.144  22.071  0.00  0.00    +0.194 C 
ATOM     13  O   UNL     1       6.802  -4.011  21.886  0.00  0.00    -0.381 OA
ENDBRANCH  11  13
ENDBRANCH   5  11
ENDBRANCH   1   5
BRANCH   2  14
ATOM     14  C   UNL     1      10.257  -2.059  23.227  0.00  0.00    +0.139 C 
BRANCH  14  15
ATOM     15  C   UNL     1      10.244  -0.560  23.089  0.00  0.00    -0.030 A 
ATOM     16  C   UNL     1      10.625   0.266  24.157  0.00  0.00    +0.005 A 
ATOM     17  C   UNL     1      10.564   1.656  24.035  0.00  0.00    +0.000 A 
ATOM     18  C   UNL     1      10.126   2.236  22.847  0.00  0.00    +0.000 A 
ATOM     19  C   UNL     1       9.748   1.428  21.777  0.00  0.00    +0.000 A 
ATOM     20  C   UNL     1       9.805   0.039  21.897  0.00  0.00    +0.005 A 
ENDBRANCH  14  15
ENDBRANCH   2  14
TORSDOF 6
ENDMDL
MODEL 2
REMARK VINA RESULT:      -5.8      1.436      2.969
REMARK  Name = 
REMARK  8 active torsions:
REMARK  status: ('A' for Active; 'I' for Inactive)
REMARK    1  A    between atoms: C_1  and  O_2
REMARK    2  A    between atoms: O_2  and  C_3
REMARK    3  A    between atoms: C_3  and  C_4
REMARK    4  A    between atoms: C_4  and  N_6
REMARK    5  A    between atoms: C_4  and  C_10
REMARK    6  A    between atoms: C_7  and  C_8
REMARK    7  A    between atoms: N_12  and  C_13
REMARK    8  A    between atoms: C_13  and  C_14
REMARK                            x       y       z     vdW  Elec       q    Type
REMARK                         _______ _______ _______ _____ _____    ______ ____
ROOT
ATOM      1  C   UNL     1       8.947  -3.615  24.178  0.00  0.00    +0.236 C 
ATOM      2  N   UNL     1       8.999  -2.436  23.470  0.00  0.00    -0.310 N 
ATOM      3  H   UNL     1       8.147  -2.146  22.985  0.00  0.00    +0.149 HD
ATOM      4  O   UNL     1       9.954  -4.212  24.556  0.00  0.00    -0.274 OA
ENDROOT
BRANCH   1   5
ATOM      5  C   UNL     1       7.536  -4.143  24.488  0.00  0.00    +0.185 C 
BRANCH   5   6
ATOM      6  N   UNL     1       6.799  -4.455  23.254  0.00  0.00    -0.302 N 
ATOM      7  H   UNL     1       6.067  -3.806  22.996  0.00  0.00    +0.150 HD
ATOM      8  C   UNL     1       7.150  -5.441  22.373  0.00  0.00    +0.211 C 
ATOM      9  O   UNL     1       8.085  -6.213  22.565  0.00  0.00    -0.276 OA
ATOM     10  C   UNL     1       6.267  -5.545  21.159  0.00  0.00    +0.109 C 
ENDBRANCH   5   6
BRANCH   5  11
ATOM     11  C   UNL     1       6.812  -3.214  25.474  0.00  0.00    +0.191 C 
BRANCH  11  13
ATOM     12  C   UNL     1       7.374  -1.247  26.645  0.00  0.00    +0.194 C 
ATOM     13  O   UNL     1       7.758  -2.587  26.353  0.00  0.00    -0.381 OA
ENDBRANCH  11  13
ENDBRANCH   5  11
ENDBRANCH   1   5
BRANCH   2  14
ATOM     14  C   UNL     1      10.246  -1.905  22.977  0.00  0.00    +0.139 C 
BRANCH  14  15
ATOM     15  C   UNL     1      10.249  -0.399  22.975  0.00  0.00    -0.030 A 
ATOM     16  C   UNL     1      10.656   0.322  24.107  0.00  0.00    +0.005 A 
ATOM     17  C   UNL     1      10.611   1.718  24.111  0.00  0.00    +0.000 A 
ATOM     18  C   UNL     1      10.162   2.408  22.987  0.00  0.00    +0.000 A 
ATOM     19  C   UNL     1       9.758   1.704  21.855  0.00  0.00    +0.000 A 
ATOM     20  C   UNL     1       9.800   0.309  21.849  0.00  0.00    +0.005 A 
ENDBRANCH  14  15
ENDBRANCH   2  14
TORSDOF 6
ENDMDL
MODEL 3
REMARK VINA RESULT:      -5.8      1.628      2.669
REMARK  Name = 
REMARK  8 active torsions:
REMARK  status: ('A' for Active; 'I' for Inactive)
REMARK    1  A    between atoms: C_1  and  O_2
REMARK    2  A    between atoms: O_2  and  C_3
REMARK    3  A    between atoms: C_3  and  C_4
REMARK    4  A    between atoms: C_4  and  N_6
REMARK    5  A    between atoms: C_4  and  C_10
REMARK    6  A    between atoms: C_7  and  C_8
REMARK    7  A    between atoms: N_12  and  C_13
REMARK    8  A    between atoms: C_13  and  C_14
REMARK                            x       y       z     vdW  Elec       q    Type
REMARK                         _______ _______ _______ _____ _____    ______ ____
ROOT
ATOM      1  C   UNL     1       8.601  -3.237  23.917  0.00  0.00    +0.236 C 
ATOM      2  N   UNL     1       9.800  -2.565  23.845  0.00  0.00    -0.310 N 
ATOM      3  H   UNL     1      10.212  -2.251  24.726  0.00  0.00    +0.149 HD
ATOM      4  O   UNL     1       7.871  -3.407  22.940  0.00  0.00    -0.274 OA
ENDROOT
BRANCH   1   5
ATOM      5  C   UNL     1       8.228  -3.784  25.305  0.00  0.00    +0.185 C 
BRANCH   5   6
ATOM      6  N   UNL     1       6.949  -4.509  25.267  0.00  0.00    -0.302 N 
ATOM      7  H   UNL     1       6.331  -4.282  24.500  0.00  0.00    +0.150 HD
ATOM      8  C   UNL     1       6.633  -5.562  26.082  0.00  0.00    +0.211 C 
ATOM      9  O   UNL     1       7.369  -5.964  26.979  0.00  0.00    -0.276 OA
ATOM     10  C   UNL     1       5.280  -6.170  25.830  0.00  0.00    +0.109 C 
ENDBRANCH   5   6
BRANCH   5  11
ATOM     11  C   UNL     1       8.334  -2.683  26.370  0.00  0.00    +0.191 C 
BRANCH  11  13
ATOM     12  C   UNL     1       8.096  -0.373  26.773  0.00  0.00    +0.194 C 
ATOM     13  O   UNL     1       7.925  -1.421  25.824  0.00  0.00    -0.381 OA
ENDBRANCH  11  13
ENDBRANCH   5  11
ENDBRANCH   1   5
BRANCH   2  14
ATOM     14  C   UNL     1      10.206  -1.867  22.649  0.00  0.00    +0.139 C 
BRANCH  14  15
ATOM     15  C   UNL     1      10.178  -0.374  22.838  0.00  0.00    -0.030 A 
ATOM     16  C   UNL     1       9.781   0.478  21.796  0.00  0.00    +0.005 A 
ATOM     17  C   UNL     1       9.803   1.864  21.967  0.00  0.00    +0.000 A 
ATOM     18  C   UNL     1      10.218   2.414  23.177  0.00  0.00    +0.000 A 
ATOM     19  C   UNL     1      10.612   1.580  24.221  0.00  0.00    +0.000 A 
ATOM     20  C   UNL     1      10.593   0.194  24.053  0.00  0.00    +0.005 A 
ENDBRANCH  14  15
ENDBRANCH   2  14
TORSDOF 6
ENDMDL
MODEL 4
REMARK VINA RESULT:      -5.8      0.145      1.146
REMARK  Name = 
REMARK  8 active torsions:
REMARK  status: ('A' for Active; 'I' for Inactive)
REMARK    1  A    between atoms: C_1  and  O_2
REMARK    2  A    between atoms: O_2  and  C_3
REMARK    3  A    between atoms: C_3  and  C_4
REMARK    4  A    between atoms: C_4  and  N_6
REMARK    5  A    between atoms: C_4  and  C_10
REMARK    6  A    between atoms: C_7  and  C_8
REMARK    7  A    between atoms: N_12  and  C_13
REMARK    8  A    between atoms: C_13  and  C_14
REMARK                            x       y       z     vdW  Elec       q    Type
REMARK                         _______ _______ _______ _____ _____    ______ ____
ROOT
ATOM      1  C   UNL     1       8.724  -3.894  24.243  0.00  0.00    +0.236 C 
ATOM      2  N   UNL     1       8.894  -2.619  23.753  0.00  0.00    -0.310 N 
ATOM      3  H   UNL     1       8.106  -2.204  23.250  0.00  0.00    +0.149 HD
ATOM      4  O   UNL     1       9.664  -4.602  24.602  0.00  0.00    -0.274 OA
ENDROOT
BRANCH   1   5
ATOM      5  C   UNL     1       7.268  -4.383  24.333  0.00  0.00    +0.185 C 
BRANCH   5   6
ATOM      6  N   UNL     1       7.045  -5.175  25.552  0.00  0.00    -0.302 N 
ATOM      7  H   UNL     1       7.211  -6.169  25.473  0.00  0.00    +0.150 HD
ATOM      8  C   UNL     1       6.805  -4.640  26.788  0.00  0.00    +0.211 C 
ATOM      9  O   UNL     1       6.683  -3.435  26.988  0.00  0.00    -0.276 OA
ATOM     10  C   UNL     1       6.648  -5.651  27.892  0.00  0.00    +0.109 C 
ENDBRANCH   5   6
BRANCH   5  11
ATOM     11  C   UNL     1       6.838  -5.052  23.020  0.00  0.00    +0.191 C 
BRANCH  11  13
ATOM     12  C   UNL     1       5.659  -3.240  22.081  0.00  0.00    +0.194 C 
ATOM     13  O   UNL     1       6.797  -4.087  21.959  0.00  0.00    -0.381 OA
ENDBRANCH  11  13
ENDBRANCH   5  11
ENDBRANCH   1   5
BRANCH   2  14
ATOM     14  C   UNL     1      10.204  -2.086  23.469  0.00  0.00    +0.139 C 
BRANCH  14  15
ATOM     15  C   UNL     1      10.163  -0.599  23.234  0.00  0.00    -0.030 A 
ATOM     16  C   UNL     1       9.761  -0.076  21.997  0.00  0.00    +0.005 A 
ATOM     17  C   UNL     1       9.770   1.303  21.774  0.00  0.00    +0.000 A 
ATOM     18  C   UNL     1      10.179   2.173  22.782  0.00  0.00    +0.000 A 
ATOM     19  C   UNL     1      10.578   1.666  24.017  0.00  0.00    +0.000 A 
ATOM     20  C   UNL     1      10.571   0.288  24.242  0.00  0.00    +0.005 A 
ENDBRANCH  14  15
ENDBRANCH   2  14
TORSDOF 6
ENDMDL
MODEL 5
REMARK VINA RESULT:      -5.5      1.720      2.710
REMARK  Name = 
REMARK  8 active torsions:
REMARK  status: ('A' for Active; 'I' for Inactive)
REMARK    1  A    between atoms: C_1  and  O_2
REMARK    2  A    between atoms: O_2  and  C_3
REMARK    3  A    between atoms: C_3  and  C_4
REMARK    4  A    between atoms: C_4  and  N_6
REMARK    5  A    between atoms: C_4  and  C_10
REMARK    6  A    between atoms: C_7  and  C_8
REMARK    7  A    between atoms: N_12  and  C_13
REMARK    8  A    between atoms: C_13  and  C_14
REMARK                            x       y       z     vdW  Elec       q    Type
REMARK                         _______ _______ _______ _____ _____    ______ ____
ROOT
ATOM      1  C   UNL     1       8.129  -2.804  23.091  0.00  0.00    +0.236 C 
ATOM      2  N   UNL     1       9.358  -2.441  23.590  0.00  0.00    -0.310 N 
ATOM      3  H   UNL     1       9.429  -2.299  24.601  0.00  0.00    +0.149 HD
ATOM      4  O   UNL     1       7.842  -2.724  21.898  0.00  0.00    -0.274 OA
ENDROOT
BRANCH   1   5
ATOM      5  C   UNL     1       7.124  -3.341  24.126  0.00  0.00    +0.185 C 
BRANCH   5   6
ATOM      6  N   UNL     1       7.102  -2.503  25.334  0.00  0.00    -0.302 N 
ATOM      7  H   UNL     1       7.968  -2.449  25.854  0.00  0.00    +0.150 HD
ATOM      8  C   UNL     1       6.067  -1.681  25.685  0.00  0.00    +0.211 C 
ATOM      9  O   UNL     1       5.015  -1.615  25.054  0.00  0.00    -0.276 OA
ATOM     10  C   UNL     1       6.290  -0.889  26.945  0.00  0.00    +0.109 C 
ENDBRANCH   5   6
BRANCH   5  11
ATOM     11  C   UNL     1       7.340  -4.843  24.365  0.00  0.00    +0.191 C 
BRANCH  11  13
ATOM     12  C   UNL     1       9.367  -5.436  25.410  0.00  0.00    +0.194 C 
ATOM     13  O   UNL     1       8.719  -5.185  24.167  0.00  0.00    -0.381 OA
ENDBRANCH  11  13
ENDBRANCH   5  11
ENDBRANCH   1   5
BRANCH   2  14
ATOM     14  C   UNL     1      10.343  -1.780  22.768  0.00  0.00    +0.139 C 
BRANCH  14  15
ATOM     15  C   UNL     1      10.242  -0.281  22.873  0.00  0.00    -0.030 A 
ATOM     16  C   UNL     1       9.741   0.484  21.810  0.00  0.00    +0.005 A 
ATOM     17  C   UNL     1       9.694   1.877  21.899  0.00  0.00    +0.000 A 
ATOM     18  C   UNL     1      10.146   2.520  23.049  0.00  0.00    +0.000 A 
ATOM     19  C   UNL     1      10.644   1.772  24.114  0.00  0.00    +0.000 A 
ATOM     20  C   UNL     1      10.693   0.380  24.027  0.00  0.00    +0.005 A 
ENDBRANCH  14  15
ENDBRANCH   2  14
TORSDOF 6
ENDMDL
MODEL 6
REMARK VINA RESULT:      -5.4      1.794      3.426
REMARK  Name = 
REMARK  8 active torsions:
REMARK  status: ('A' for Active; 'I' for Inactive)
REMARK    1  A    between atoms: C_1  and  O_2
REMARK    2  A    between atoms: O_2  and  C_3
REMARK    3  A    between atoms: C_3  and  C_4
REMARK    4  A    between atoms: C_4  and  N_6
REMARK    5  A    between atoms: C_4  and  C_10
REMARK    6  A    between atoms: C_7  and  C_8
REMARK    7  A    between atoms: N_12  and  C_13
REMARK    8  A    between atoms: C_13  and  C_14
REMARK                            x       y       z     vdW  Elec       q    Type
REMARK                         _______ _______ _______ _____ _____    ______ ____
ROOT
ATOM      1  C   UNL     1       9.903  -2.090  23.616  0.00  0.00    +0.236 C 
ATOM      2  N   UNL     1       9.910  -0.956  24.397  0.00  0.00    -0.310 N 
ATOM      3  H   UNL     1       9.119  -0.822  25.031  0.00  0.00    +0.149 HD
ATOM      4  O   UNL     1      10.623  -2.225  22.628  0.00  0.00    -0.274 OA
ENDROOT
BRANCH   1   5
ATOM      5  C   UNL     1       8.939  -3.201  24.067  0.00  0.00    +0.185 C 
BRANCH   5   6
ATOM      6  N   UNL     1       7.782  -3.303  23.166  0.00  0.00    -0.302 N 
ATOM      7  H   UNL     1       7.412  -2.429  22.815  0.00  0.00    +0.150 HD
ATOM      8  C   UNL     1       7.303  -4.477  22.652  0.00  0.00    +0.211 C 
ATOM      9  O   UNL     1       7.756  -5.577  22.953  0.00  0.00    -0.276 OA
ATOM     10  C   UNL     1       6.132  -4.325  21.719  0.00  0.00    +0.109 C 
ENDBRANCH   5   6
BRANCH   5  11
ATOM     11  C   UNL     1       8.606  -3.060  25.559  0.00  0.00    +0.191 C 
BRANCH  11  13
ATOM     12  C   UNL     1       9.771  -5.104  25.688  0.00  0.00    +0.194 C 
ATOM     13  O   UNL     1       8.693  -4.335  26.212  0.00  0.00    -0.381 OA
ENDBRANCH  11  13
ENDBRANCH   5  11
ENDBRANCH   1   5
BRANCH   2  14
ATOM     14  C   UNL     1      10.645   0.224  24.011  0.00  0.00    +0.139 C 
BRANCH  14  15
ATOM     15  C   UNL     1       9.734   1.304  23.491  0.00  0.00    -0.030 A 
ATOM     16  C   UNL     1       9.385   2.400  24.293  0.00  0.00    +0.005 A 
ATOM     17  C   UNL     1       8.502   3.373  23.817  0.00  0.00    +0.000 A 
ATOM     18  C   UNL     1       7.962   3.263  22.538  0.00  0.00    +0.000 A 
ATOM     19  C   UNL     1       8.303   2.180  21.730  0.00  0.00    +0.000 A 
ATOM     20  C   UNL     1       9.183   1.206  22.203  0.00  0.00    +0.005 A 
ENDBRANCH  14  15
ENDBRANCH   2  14
TORSDOF 6
ENDMDL
MODEL 7
REMARK VINA RESULT:      -5.4      1.331      3.199
REMARK  Name = 
REMARK  8 active torsions:
REMARK  status: ('A' for Active; 'I' for Inactive)
REMARK    1  A    between atoms: C_1  and  O_2
REMARK    2  A    between atoms: O_2  and  C_3
REMARK    3  A    between atoms: C_3  and  C_4
REMARK    4  A    between atoms: C_4  and  N_6
REMARK    5  A    between atoms: C_4  and  C_10
REMARK    6  A    between atoms: C_7  and  C_8
REMARK    7  A    between atoms: N_12  and  C_13
REMARK    8  A    between atoms: C_13  and  C_14
REMARK                            x       y       z     vdW  Elec       q    Type
REMARK                         _______ _______ _______ _____ _____    ______ ____
ROOT
ATOM      1  C   UNL     1       8.919  -3.608  24.614  0.00  0.00    +0.236 C 
ATOM      2  N   UNL     1       8.676  -2.254  24.586  0.00  0.00    -0.310 N 
ATOM      3  H   UNL     1       7.710  -1.956  24.432  0.00  0.00    +0.149 HD
ATOM      4  O   UNL     1      10.047  -4.087  24.501  0.00  0.00    -0.274 OA
ENDROOT
BRANCH   1   5
ATOM      5  C   UNL     1       7.682  -4.501  24.814  0.00  0.00    +0.185 C 
BRANCH   5   6
ATOM      6  N   UNL     1       7.378  -5.272  23.599  0.00  0.00    -0.302 N 
ATOM      7  H   UNL     1       7.212  -6.261  23.729  0.00  0.00    +0.150 HD
ATOM      8  C   UNL     1       7.141  -4.717  22.371  0.00  0.00    +0.211 C 
ATOM      9  O   UNL     1       7.229  -3.513  22.148  0.00  0.00    -0.276 OA
ATOM     10  C   UNL     1       6.811  -5.706  21.286  0.00  0.00    +0.109 C 
ENDBRANCH   5   6
BRANCH   5  11
ATOM     11  C   UNL     1       6.514  -3.690  25.394  0.00  0.00    +0.191 C 
BRANCH  11  13
ATOM     12  C   UNL     1       6.473  -4.612  27.562  0.00  0.00    +0.194 C 
ATOM     13  O   UNL     1       6.726  -3.442  26.791  0.00  0.00    -0.381 OA
ENDBRANCH  11  13
ENDBRANCH   5  11
ENDBRANCH   1   5
BRANCH   2  14
ATOM     14  C   UNL     1       9.713  -1.306  24.253  0.00  0.00    +0.139 C 
BRANCH  14  15
ATOM     15  C   UNL     1       9.206  -0.224  23.338  0.00  0.00    -0.030 A 
ATOM     16  C   UNL     1      10.093   0.549  22.575  0.00  0.00    +0.005 A 
ATOM     17  C   UNL     1       9.616   1.582  21.765  0.00  0.00    +0.000 A 
ATOM     18  C   UNL     1       8.251   1.853  21.706  0.00  0.00    +0.000 A 
ATOM     19  C   UNL     1       7.358   1.090  22.456  0.00  0.00    +0.000 A 
ATOM     20  C   UNL     1       7.832   0.059  23.268  0.00  0.00    +0.005 A 
ENDBRANCH  14  15
ENDBRANCH   2  14
TORSDOF 6
ENDMDL
MODEL 8
REMARK VINA RESULT:      -5.1      2.272      3.398
REMARK  Name = 
REMARK  8 active torsions:
REMARK  status: ('A' for Active; 'I' for Inactive)
REMARK    1  A    between atoms: C_1  and  O_2
REMARK    2  A    between atoms: O_2  and  C_3
REMARK    3  A    between atoms: C_3  and  C_4
REMARK    4  A    between atoms: C_4  and  N_6
REMARK    5  A    between atoms: C_4  and  C_10
REMARK    6  A    between atoms: C_7  and  C_8
REMARK    7  A    between atoms: N_12  and  C_13
REMARK    8  A    between atoms: C_13  and  C_14
REMARK                            x       y       z     vdW  Elec       q    Type
REMARK                         _______ _______ _______ _____ _____    ______ ____
ROOT
ATOM      1  C   UNL     1       8.968  -1.826  23.110  0.00  0.00    +0.236 C 
ATOM      2  N   UNL     1       9.686  -1.016  23.960  0.00  0.00    -0.310 N 
ATOM      3  H   UNL     1       9.352  -0.941  24.924  0.00  0.00    +0.149 HD
ATOM      4  O   UNL     1       9.084  -1.779  21.886  0.00  0.00    -0.274 OA
ENDROOT
BRANCH   1   5
ATOM      5  C   UNL     1       8.011  -2.820  23.789  0.00  0.00    +0.185 C 
BRANCH   5   6
ATOM      6  N   UNL     1       7.359  -3.693  22.801  0.00  0.00    -0.302 N 
ATOM      7  H   UNL     1       6.807  -3.229  22.092  0.00  0.00    +0.150 HD
ATOM      8  C   UNL     1       7.590  -5.037  22.686  0.00  0.00    +0.211 C 
ATOM      9  O   UNL     1       8.320  -5.662  23.449  0.00  0.00    -0.276 OA
ATOM     10  C   UNL     1       6.835  -5.713  21.573  0.00  0.00    +0.109 C 
ENDBRANCH   5   6
BRANCH   5  11
ATOM     11  C   UNL     1       7.065  -2.091  24.755  0.00  0.00    +0.191 C 
BRANCH  11  13
ATOM     12  C   UNL     1       5.679  -0.203  25.017  0.00  0.00    +0.194 C 
ATOM     13  O   UNL     1       6.450  -0.972  24.100  0.00  0.00    -0.381 OA
ENDBRANCH  11  13
ENDBRANCH   5  11
ENDBRANCH   1   5
BRANCH   2  14
ATOM     14  C   UNL     1      10.504   0.064  23.465  0.00  0.00    +0.139 C 
BRANCH  14  15
ATOM     15  C   UNL     1       9.933   1.409  23.829  0.00  0.00    -0.030 A 
ATOM     16  C   UNL     1      10.476   2.589  23.302  0.00  0.00    +0.005 A 
ATOM     17  C   UNL     1       9.969   3.834  23.682  0.00  0.00    +0.000 A 
ATOM     18  C   UNL     1       8.914   3.913  24.589  0.00  0.00    +0.000 A 
ATOM     19  C   UNL     1       8.363   2.748  25.117  0.00  0.00    +0.000 A 
ATOM     20  C   UNL     1       8.869   1.503  24.741  0.00  0.00    +0.005 A 
ENDBRANCH  14  15
ENDBRANCH   2  14
TORSDOF 6
ENDMDL
MODEL 9
REMARK VINA RESULT:      -5.0      1.802      3.133
REMARK  Name = 
REMARK  8 active torsions:
REMARK  status: ('A' for Active; 'I' for Inactive)
REMARK    1  A    between atoms: C_1  and  O_2
REMARK    2  A    between atoms: O_2  and  C_3
REMARK    3  A    between atoms: C_3  and  C_4
REMARK    4  A    between atoms: C_4  and  N_6
REMARK    5  A    between atoms: C_4  and  C_10
REMARK    6  A    between atoms: C_7  and  C_8
REMARK    7  A    between atoms: N_12  and  C_13
REMARK    8  A    between atoms: C_13  and  C_14
REMARK                            x       y       z     vdW  Elec       q    Type
REMARK                         _______ _______ _______ _____ _____    ______ ____
ROOT
ATOM      1  C   UNL     1       7.804  -3.011  22.617  0.00  0.00    +0.236 C 
ATOM      2  N   UNL     1       9.021  -2.434  22.334  0.00  0.00    -0.310 N 
ATOM      3  H   UNL     1       9.818  -2.720  22.908  0.00  0.00    +0.149 HD
ATOM      4  O   UNL     1       6.737  -2.553  22.210  0.00  0.00    -0.274 OA
ENDROOT
BRANCH   1   5
ATOM      5  C   UNL     1       7.857  -4.289  23.472  0.00  0.00    +0.185 C 
BRANCH   5   6
ATOM      6  N   UNL     1       6.508  -4.799  23.754  0.00  0.00    -0.302 N 
ATOM      7  H   UNL     1       5.964  -4.273  24.426  0.00  0.00    +0.150 HD
ATOM      8  C   UNL     1       5.900  -5.807  23.055  0.00  0.00    +0.211 C 
ATOM      9  O   UNL     1       6.457  -6.434  22.159  0.00  0.00    -0.276 OA
ATOM     10  C   UNL     1       4.500  -6.129  23.502  0.00  0.00    +0.109 C 
ENDBRANCH   5   6
BRANCH   5  11
ATOM     11  C   UNL     1       8.758  -4.085  24.699  0.00  0.00    +0.191 C 
BRANCH  11  13
ATOM     12  C   UNL     1       7.974  -2.560  26.315  0.00  0.00    +0.194 C 
ATOM     13  O   UNL     1       8.728  -2.713  25.117  0.00  0.00    -0.381 OA
ENDBRANCH  11  13
ENDBRANCH   5  11
ENDBRANCH   1   5
BRANCH   2  14
ATOM     14  C   UNL     1       9.116  -1.153  21.676  0.00  0.00    +0.139 C 
BRANCH  14  15
ATOM     15  C   UNL     1       9.280  -0.029  22.665  0.00  0.00    -0.030 A 
ATOM     16  C   UNL     1       8.276   0.936  22.831  0.00  0.00    +0.005 A 
ATOM     17  C   UNL     1       8.457   2.001  23.717  0.00  0.00    +0.000 A 
ATOM     18  C   UNL     1       9.639   2.113  24.446  0.00  0.00    +0.000 A 
ATOM     19  C   UNL     1      10.643   1.159  24.292  0.00  0.00    +0.000 A 
ATOM     20  C   UNL     1      10.465   0.095  23.407  0.00  0.00    +0.005 A 
ENDBRANCH  14  15
ENDBRANCH   2  14
TORSDOF 6
ENDMDL
