MODEL 1
REMARK VINA RESULT:      -6.9      0.000      0.000
REMARK  Name = 
REMARK  9 active torsions:
REMARK  status: ('A' for Active; 'I' for Inactive)
REMARK    1  A    between atoms: C_2  and  O_3
REMARK    2  A    between atoms: C_2  and  C_4
REMARK    3  A    between atoms: C_2  and  C_6
REMARK    4  A    between atoms: C_4  and  O_5
REMARK    5  A    between atoms: C_6  and  O_7
REMARK    6  A    between atoms: O_7  and  N_8
REMARK    7  A    between atoms: C_9  and  C_11
REMARK    8  A    between atoms: C_12  and  N_13
REMARK    9  A    between atoms: N_13  and  C_14
REMARK                            x       y       z     vdW  Elec       q    Type
REMARK                         _______ _______ _______ _____ _____    ______ ____
ROOT
ATOM      1  C   UNL     1       6.475  -4.625  24.060  0.00  0.00    +0.063 A 
ATOM      2  C   UNL     1       6.379  -5.375  25.258  0.00  0.00    +0.018 A 
ATOM      3  C   UNL     1       7.436  -5.437  26.165  0.00  0.00    +0.042 A 
ATOM      4  C   UNL     1       8.583  -4.710  25.906  0.00  0.00    +0.160 A 
ATOM      5  F   UNL     1       9.586  -4.721  26.793  0.00  0.00    -0.202 F 
ATOM      6  C   UNL     1       8.698  -3.974  24.735  0.00  0.00    +0.180 A 
ATOM      7  F   UNL     1       9.810  -3.239  24.563  0.00  0.00    -0.201 F 
ATOM      8  C   UNL     1       7.689  -3.982  23.740  0.00  0.00    +0.082 A 
ENDROOT
BRANCH   1  11
ATOM      9  N   UNL     1       4.078  -5.050  23.886  0.00  0.00    -0.190 N 
ATOM     10  H   UNL     1       3.937  -4.829  24.863  0.00  0.00    +0.183 HD
ATOM     11  C   UNL     1       5.210  -4.557  23.268  0.00  0.00    +0.269 C 
ATOM     12  O   UNL     1       5.254  -4.204  22.090  0.00  0.00    -0.268 OA
BRANCH   9  13
ATOM     13  O   UNL     1       2.901  -5.004  23.095  0.00  0.00    -0.277 OA
BRANCH  13  14
ATOM     14  C   UNL     1       2.356  -6.328  23.022  0.00  0.00    +0.223 C 
BRANCH  14  15
ATOM     15  C   UNL     1       2.747  -7.134  24.258  0.00  0.00    +0.168 C 
BRANCH  15  16
ATOM     16  O   UNL     1       3.981  -7.830  24.019  0.00  0.00    -0.387 OA
ATOM     17  H   UNL     1       3.790  -8.753  24.283  0.00  0.00    +0.210 HD
ENDBRANCH  15  16
BRANCH  15  18
ATOM     18  C   UNL     1       1.685  -8.161  24.649  0.00  0.00    +0.189 C 
BRANCH  18  19
ATOM     19  O   UNL     1       2.370  -9.333  25.113  0.00  0.00    -0.392 OA
ATOM     20  H   UNL     1       3.313  -9.100  25.176  0.00  0.00    +0.210 HD
ENDBRANCH  18  19
ENDBRANCH  15  18
ENDBRANCH  14  15
ENDBRANCH  13  14
ENDBRANCH   9  13
ENDBRANCH   1  11
BRANCH   8  21
ATOM     21  N   UNL     1       7.893  -3.288  22.501  0.00  0.00    -0.309 N 
ATOM     22  H   UNL     1       7.038  -3.371  21.939  0.00  0.00    +0.152 HD
BRANCH  21  23
ATOM     23  C   UNL     1       8.219  -1.888  22.446  0.00  0.00    +0.067 A 
ATOM     24  C   UNL     1       7.304  -0.943  22.927  0.00  0.00    +0.145 A 
ATOM     25  F   UNL     1       6.109  -1.361  23.376  0.00  0.00    -0.204 F 
ATOM     26  C   UNL     1       7.625   0.409  23.021  0.00  0.00    +0.054 A 
ATOM     27  C   UNL     1       8.884   0.836  22.601  0.00  0.00    +0.016 A 
ATOM     28  I   UNL     1       9.449   2.816  22.879  0.00  0.00    -0.044 I 
ATOM     29  C   UNL     1       9.774  -0.065  22.020  0.00  0.00    +0.016 A 
ATOM     30  C   UNL     1       9.425  -1.416  21.903  0.00  0.00    +0.027 A 
ENDBRANCH  21  23
ENDBRANCH   8  21
TORSDOF 9
ENDMDL
MODEL 2
REMARK VINA RESULT:      -6.8      3.036      4.103
REMARK  Name = 
REMARK  9 active torsions:
REMARK  status: ('A' for Active; 'I' for Inactive)
REMARK    1  A    between atoms: C_2  and  O_3
REMARK    2  A    between atoms: C_2  and  C_4
REMARK    3  A    between atoms: C_2  and  C_6
REMARK    4  A    between atoms: C_4  and  O_5
REMARK    5  A    between atoms: C_6  and  O_7
REMARK    6  A    between atoms: O_7  and  N_8
REMARK    7  A    between atoms: C_9  and  C_11
REMARK    8  A    between atoms: C_12  and  N_13
REMARK    9  A    between atoms: N_13  and  C_14
REMARK                            x       y       z     vdW  Elec       q    Type
REMARK                         _______ _______ _______ _____ _____    ______ ____
ROOT
ATOM      1  C   UNL     1       7.267  -4.565  24.852  0.00  0.00    +0.063 A 
ATOM      2  C   UNL     1       6.034  -5.099  24.405  0.00  0.00    +0.018 A 
ATOM      3  C   UNL     1       5.567  -4.869  23.111  0.00  0.00    +0.042 A 
ATOM      4  C   UNL     1       6.351  -4.142  22.237  0.00  0.00    +0.160 A 
ATOM      5  F   UNL     1       5.938  -3.955  20.977  0.00  0.00    -0.202 F 
ATOM      6  C   UNL     1       7.560  -3.604  22.658  0.00  0.00    +0.180 A 
ATOM      7  F   UNL     1       8.309  -2.957  21.749  0.00  0.00    -0.201 F 
ATOM      8  C   UNL     1       8.008  -3.722  23.997  0.00  0.00    +0.082 A 
ENDROOT
BRANCH   1  11
ATOM      9  N   UNL     1       6.764  -5.780  26.908  0.00  0.00    -0.190 N 
ATOM     10  H   UNL     1       6.261  -6.494  26.398  0.00  0.00    +0.183 HD
ATOM     11  C   UNL     1       7.681  -5.015  26.215  0.00  0.00    +0.269 C 
ATOM     12  O   UNL     1       8.727  -4.587  26.701  0.00  0.00    -0.268 OA
BRANCH   9  13
ATOM     13  O   UNL     1       7.171  -6.162  28.211  0.00  0.00    -0.277 OA
BRANCH  13  14
ATOM     14  C   UNL     1       6.163  -5.739  29.140  0.00  0.00    +0.223 C 
BRANCH  14  15
ATOM     15  C   UNL     1       4.984  -6.708  29.122  0.00  0.00    +0.168 C 
BRANCH  15  16
ATOM     16  O   UNL     1       5.299  -7.848  28.307  0.00  0.00    -0.387 OA
ATOM     17  H   UNL     1       6.162  -7.622  27.903  0.00  0.00    +0.210 HD
ENDBRANCH  15  16
BRANCH  15  18
ATOM     18  C   UNL     1       3.706  -6.068  28.578  0.00  0.00    +0.189 C 
BRANCH  18  19
ATOM     19  O   UNL     1       4.089  -5.173  27.524  0.00  0.00    -0.392 OA
ATOM     20  H   UNL     1       4.113  -5.699  26.705  0.00  0.00    +0.210 HD
ENDBRANCH  18  19
ENDBRANCH  15  18
ENDBRANCH  14  15
ENDBRANCH  13  14
ENDBRANCH   9  13
ENDBRANCH   1  11
BRANCH   8  21
ATOM     21  N   UNL     1       9.214  -3.065  24.413  0.00  0.00    -0.309 N 
ATOM     22  H   UNL     1       9.986  -3.408  23.830  0.00  0.00    +0.152 HD
BRANCH  21  23
ATOM     23  C   UNL     1       9.361  -1.634  24.391  0.00  0.00    +0.067 A 
ATOM     24  C   UNL     1      10.177  -1.035  23.423  0.00  0.00    +0.145 A 
ATOM     25  F   UNL     1      10.859  -1.817  22.571  0.00  0.00    -0.204 F 
ATOM     26  C   UNL     1      10.246   0.348  23.274  0.00  0.00    +0.054 A 
ATOM     27  C   UNL     1       9.499   1.158  24.129  0.00  0.00    +0.016 A 
ATOM     28  I   UNL     1       9.455   3.213  23.827  0.00  0.00    -0.044 I 
ATOM     29  C   UNL     1       8.762   0.592  25.167  0.00  0.00    +0.016 A 
ATOM     30  C   UNL     1       8.728  -0.798  25.325  0.00  0.00    +0.027 A 
ENDBRANCH  21  23
ENDBRANCH   8  21
TORSDOF 9
ENDMDL
MODEL 3
REMARK VINA RESULT:      -6.8      3.268      4.111
REMARK  Name = 
REMARK  9 active torsions:
REMARK  status: ('A' for Active; 'I' for Inactive)
REMARK    1  A    between atoms: C_2  and  O_3
REMARK    2  A    between atoms: C_2  and  C_4
REMARK    3  A    between atoms: C_2  and  C_6
REMARK    4  A    between atoms: C_4  and  O_5
REMARK    5  A    between atoms: C_6  and  O_7
REMARK    6  A    between atoms: O_7  and  N_8
REMARK    7  A    between atoms: C_9  and  C_11
REMARK    8  A    between atoms: C_12  and  N_13
REMARK    9  A    between atoms: N_13  and  C_14
REMARK                            x       y       z     vdW  Elec       q    Type
REMARK                         _______ _______ _______ _____ _____    ______ ____
ROOT
ATOM      1  C   UNL     1       6.222  -5.229  24.682  0.00  0.00    +0.063 A 
ATOM      2  C   UNL     1       4.957  -5.716  24.269  0.00  0.00    +0.018 A 
ATOM      3  C   UNL     1       4.702  -6.043  22.938  0.00  0.00    +0.042 A 
ATOM      4  C   UNL     1       5.723  -5.931  22.014  0.00  0.00    +0.160 A 
ATOM      5  F   UNL     1       5.506  -6.288  20.742  0.00  0.00    -0.202 F 
ATOM      6  C   UNL     1       6.968  -5.451  22.398  0.00  0.00    +0.180 A 
ATOM      7  F   UNL     1       7.941  -5.420  21.471  0.00  0.00    -0.201 F 
ATOM      8  C   UNL     1       7.225  -5.002  23.716  0.00  0.00    +0.082 A 
ENDROOT
BRANCH   1  11
ATOM      9  N   UNL     1       5.620  -4.043  26.728  0.00  0.00    -0.190 N 
ATOM     10  H   UNL     1       4.666  -3.926  26.415  0.00  0.00    +0.183 HD
ATOM     11  C   UNL     1       6.368  -5.055  26.158  0.00  0.00    +0.269 C 
ATOM     12  O   UNL     1       7.221  -5.705  26.761  0.00  0.00    -0.268 OA
BRANCH   9  13
ATOM     13  O   UNL     1       5.807  -3.879  28.124  0.00  0.00    -0.277 OA
BRANCH  13  14
ATOM     14  C   UNL     1       4.641  -4.372  28.796  0.00  0.00    +0.223 C 
BRANCH  14  15
ATOM     15  C   UNL     1       4.976  -5.632  29.590  0.00  0.00    +0.168 C 
BRANCH  15  16
ATOM     16  O   UNL     1       6.400  -5.819  29.632  0.00  0.00    -0.387 OA
ATOM     17  H   UNL     1       6.516  -6.789  29.572  0.00  0.00    +0.210 HD
ENDBRANCH  15  16
BRANCH  15  18
ATOM     18  C   UNL     1       4.346  -6.889  28.990  0.00  0.00    +0.189 C 
BRANCH  18  19
ATOM     19  O   UNL     1       5.391  -7.626  28.339  0.00  0.00    -0.392 OA
ATOM     20  H   UNL     1       4.996  -8.031  27.548  0.00  0.00    +0.210 HD
ENDBRANCH  18  19
ENDBRANCH  15  18
ENDBRANCH  14  15
ENDBRANCH  13  14
ENDBRANCH   9  13
ENDBRANCH   1  11
BRANCH   8  21
ATOM     21  N   UNL     1       8.495  -4.419  24.044  0.00  0.00    -0.309 N 
ATOM     22  H   UNL     1       9.208  -4.830  23.430  0.00  0.00    +0.152 HD
BRANCH  21  23
ATOM     23  C   UNL     1       8.737  -3.003  23.969  0.00  0.00    +0.067 A 
ATOM     24  C   UNL     1       8.879  -2.260  25.148  0.00  0.00    +0.145 A 
ATOM     25  F   UNL     1       8.723  -2.876  26.330  0.00  0.00    -0.204 F 
ATOM     26  C   UNL     1       9.248  -0.917  25.129  0.00  0.00    +0.054 A 
ATOM     27  C   UNL     1       9.458  -0.290  23.901  0.00  0.00    +0.016 A 
ATOM     28  I   UNL     1      10.164   1.663  23.846  0.00  0.00    -0.044 I 
ATOM     29  C   UNL     1       9.221  -0.977  22.712  0.00  0.00    +0.016 A 
ATOM     30  C   UNL     1       8.820  -2.317  22.747  0.00  0.00    +0.027 A 
ENDBRANCH  21  23
ENDBRANCH   8  21
TORSDOF 9
ENDMDL
MODEL 4
REMARK VINA RESULT:      -6.8      3.846      5.534
REMARK  Name = 
REMARK  9 active torsions:
REMARK  status: ('A' for Active; 'I' for Inactive)
REMARK    1  A    between atoms: C_2  and  O_3
REMARK    2  A    between atoms: C_2  and  C_4
REMARK    3  A    between atoms: C_2  and  C_6
REMARK    4  A    between atoms: C_4  and  O_5
REMARK    5  A    between atoms: C_6  and  O_7
REMARK    6  A    between atoms: O_7  and  N_8
REMARK    7  A    between atoms: C_9  and  C_11
REMARK    8  A    between atoms: C_12  and  N_13
REMARK    9  A    between atoms: N_13  and  C_14
REMARK                            x       y       z     vdW  Elec       q    Type
REMARK                         _______ _______ _______ _____ _____    ______ ____
ROOT
ATOM      1  C   UNL     1       9.511  -2.028  23.894  0.00  0.00    +0.063 A 
ATOM      2  C   UNL     1      10.242  -0.969  24.484  0.00  0.00    +0.018 A 
ATOM      3  C   UNL     1      10.508   0.209  23.787  0.00  0.00    +0.042 A 
ATOM      4  C   UNL     1      10.004   0.358  22.509  0.00  0.00    +0.160 A 
ATOM      5  F   UNL     1      10.210   1.504  21.846  0.00  0.00    -0.202 F 
ATOM      6  C   UNL     1       9.290  -0.671  21.911  0.00  0.00    +0.180 A 
ATOM      7  F   UNL     1       8.773  -0.449  20.691  0.00  0.00    -0.201 F 
ATOM      8  C   UNL     1       9.102  -1.922  22.548  0.00  0.00    +0.082 A 
ENDROOT
BRANCH   1  11
ATOM      9  N   UNL     1       8.435  -2.849  25.925  0.00  0.00    -0.190 N 
ATOM     10  H   UNL     1       7.650  -2.224  25.798  0.00  0.00    +0.183 HD
ATOM     11  C   UNL     1       9.201  -3.160  24.819  0.00  0.00    +0.269 C 
ATOM     12  O   UNL     1       9.736  -4.252  24.636  0.00  0.00    -0.268 OA
BRANCH   9  13
ATOM     13  O   UNL     1       8.189  -3.935  26.802  0.00  0.00    -0.277 OA
BRANCH  13  14
ATOM     14  C   UNL     1       6.841  -4.381  26.599  0.00  0.00    +0.223 C 
BRANCH  14  15
ATOM     15  C   UNL     1       6.447  -5.390  27.675  0.00  0.00    +0.168 C 
BRANCH  15  16
ATOM     16  O   UNL     1       7.577  -6.209  28.015  0.00  0.00    -0.387 OA
ATOM     17  H   UNL     1       8.180  -6.116  27.249  0.00  0.00    +0.210 HD
ENDBRANCH  15  16
BRANCH  15  18
ATOM     18  C   UNL     1       5.307  -6.306  27.231  0.00  0.00    +0.189 C 
BRANCH  18  19
ATOM     19  O   UNL     1       5.320  -7.456  28.089  0.00  0.00    -0.392 OA
ATOM     20  H   UNL     1       5.789  -8.159  27.607  0.00  0.00    +0.210 HD
ENDBRANCH  18  19
ENDBRANCH  15  18
ENDBRANCH  14  15
ENDBRANCH  13  14
ENDBRANCH   9  13
ENDBRANCH   1  11
BRANCH   8  21
ATOM     21  N   UNL     1       8.445  -2.992  21.853  0.00  0.00    -0.309 N 
ATOM     22  H   UNL     1       9.040  -3.827  21.906  0.00  0.00    +0.152 HD
BRANCH  21  23
ATOM     23  C   UNL     1       7.138  -3.466  22.223  0.00  0.00    +0.067 A 
ATOM     24  C   UNL     1       6.776  -4.791  21.950  0.00  0.00    +0.145 A 
ATOM     25  F   UNL     1       7.639  -5.579  21.288  0.00  0.00    -0.204 F 
ATOM     26  C   UNL     1       5.579  -5.336  22.408  0.00  0.00    +0.054 A 
ATOM     27  C   UNL     1       4.706  -4.530  23.138  0.00  0.00    +0.016 A 
ATOM     28  I   UNL     1       2.992  -5.357  23.972  0.00  0.00    -0.044 I 
ATOM     29  C   UNL     1       4.992  -3.180  23.334  0.00  0.00    +0.016 A 
ATOM     30  C   UNL     1       6.185  -2.640  22.840  0.00  0.00    +0.027 A 
ENDBRANCH  21  23
ENDBRANCH   8  21
TORSDOF 9
ENDMDL
MODEL 5
REMARK VINA RESULT:      -6.8      3.495      5.357
REMARK  Name = 
REMARK  9 active torsions:
REMARK  status: ('A' for Active; 'I' for Inactive)
REMARK    1  A    between atoms: C_2  and  O_3
REMARK    2  A    between atoms: C_2  and  C_4
REMARK    3  A    between atoms: C_2  and  C_6
REMARK    4  A    between atoms: C_4  and  O_5
REMARK    5  A    between atoms: C_6  and  O_7
REMARK    6  A    between atoms: O_7  and  N_8
REMARK    7  A    between atoms: C_9  and  C_11
REMARK    8  A    between atoms: C_12  and  N_13
REMARK    9  A    between atoms: N_13  and  C_14
REMARK                            x       y       z     vdW  Elec       q    Type
REMARK                         _______ _______ _______ _____ _____    ______ ____
ROOT
ATOM      1  C   UNL     1       9.114  -1.697  23.212  0.00  0.00    +0.063 A 
ATOM      2  C   UNL     1       9.205  -1.434  21.823  0.00  0.00    +0.018 A 
ATOM      3  C   UNL     1       9.598  -0.186  21.343  0.00  0.00    +0.042 A 
ATOM      4  C   UNL     1       9.950   0.798  22.247  0.00  0.00    +0.160 A 
ATOM      5  F   UNL     1      10.377   1.986  21.799  0.00  0.00    -0.202 F 
ATOM      6  C   UNL     1       9.862   0.561  23.612  0.00  0.00    +0.180 A 
ATOM      7  F   UNL     1      10.274   1.533  24.444  0.00  0.00    -0.201 F 
ATOM      8  C   UNL     1       9.357  -0.655  24.132  0.00  0.00    +0.082 A 
ENDROOT
BRANCH   1  11
ATOM      9  N   UNL     1       7.583  -3.596  23.135  0.00  0.00    -0.190 N 
ATOM     10  H   UNL     1       7.270  -3.344  22.207  0.00  0.00    +0.183 HD
ATOM     11  C   UNL     1       8.809  -3.119  23.556  0.00  0.00    +0.269 C 
ATOM     12  O   UNL     1       9.575  -3.740  24.291  0.00  0.00    -0.268 OA
BRANCH   9  13
ATOM     13  O   UNL     1       7.308  -4.936  23.507  0.00  0.00    -0.277 OA
BRANCH  13  14
ATOM     14  C   UNL     1       7.375  -5.753  22.331  0.00  0.00    +0.223 C 
BRANCH  14  15
ATOM     15  C   UNL     1       6.010  -5.817  21.649  0.00  0.00    +0.168 C 
BRANCH  15  16
ATOM     16  O   UNL     1       5.894  -4.755  20.688  0.00  0.00    -0.387 OA
ATOM     17  H   UNL     1       6.750  -4.767  20.213  0.00  0.00    +0.210 HD
ENDBRANCH  15  16
BRANCH  15  18
ATOM     18  C   UNL     1       4.852  -5.696  22.640  0.00  0.00    +0.189 C 
BRANCH  18  19
ATOM     19  O   UNL     1       4.484  -4.311  22.705  0.00  0.00    -0.392 OA
ATOM     20  H   UNL     1       4.858  -3.885  21.914  0.00  0.00    +0.210 HD
ENDBRANCH  18  19
ENDBRANCH  15  18
ENDBRANCH  14  15
ENDBRANCH  13  14
ENDBRANCH   9  13
ENDBRANCH   1  11
BRANCH   8  21
ATOM     21  N   UNL     1       9.189  -0.819  25.548  0.00  0.00    -0.309 N 
ATOM     22  H   UNL     1       9.710  -0.074  26.023  0.00  0.00    +0.152 HD
BRANCH  21  23
ATOM     23  C   UNL     1       7.896  -0.806  26.178  0.00  0.00    +0.067 A 
ATOM     24  C   UNL     1       7.268   0.417  26.448  0.00  0.00    +0.145 A 
ATOM     25  F   UNL     1       7.917   1.558  26.168  0.00  0.00    -0.204 F 
ATOM     26  C   UNL     1       5.963   0.481  26.930  0.00  0.00    +0.054 A 
ATOM     27  C   UNL     1       5.273  -0.705  27.174  0.00  0.00    +0.016 A 
ATOM     28  I   UNL     1       3.274  -0.640  27.739  0.00  0.00    -0.044 I 
ATOM     29  C   UNL     1       5.910  -1.934  27.015  0.00  0.00    +0.016 A 
ATOM     30  C   UNL     1       7.233  -1.983  26.560  0.00  0.00    +0.027 A 
ENDBRANCH  21  23
ENDBRANCH   8  21
TORSDOF 9
ENDMDL
MODEL 6
REMARK VINA RESULT:      -6.7      4.943      7.461
REMARK  Name = 
REMARK  9 active torsions:
REMARK  status: ('A' for Active; 'I' for Inactive)
REMARK    1  A    between atoms: C_2  and  O_3
REMARK    2  A    between atoms: C_2  and  C_4
REMARK    3  A    between atoms: C_2  and  C_6
REMARK    4  A    between atoms: C_4  and  O_5
REMARK    5  A    between atoms: C_6  and  O_7
REMARK    6  A    between atoms: O_7  and  N_8
REMARK    7  A    between atoms: C_9  and  C_11
REMARK    8  A    between atoms: C_12  and  N_13
REMARK    9  A    between atoms: N_13  and  C_14
REMARK                            x       y       z     vdW  Elec       q    Type
REMARK                         _______ _______ _______ _____ _____    ______ ____
ROOT
ATOM      1  C   UNL     1       9.080   0.305  24.983  0.00  0.00    +0.063 A 
ATOM      2  C   UNL     1       9.072   1.709  24.802  0.00  0.00    +0.018 A 
ATOM      3  C   UNL     1       9.570   2.297  23.640  0.00  0.00    +0.042 A 
ATOM      4  C   UNL     1      10.038   1.483  22.627  0.00  0.00    +0.160 A 
ATOM      5  F   UNL     1      10.474   2.031  21.485  0.00  0.00    -0.202 F 
ATOM      6  C   UNL     1      10.060   0.104  22.787  0.00  0.00    +0.180 A 
ATOM      7  F   UNL     1      10.469  -0.642  21.747  0.00  0.00    -0.201 F 
ATOM      8  C   UNL     1       9.669  -0.517  23.998  0.00  0.00    +0.082 A 
ENDROOT
BRANCH   1  11
ATOM      9  N   UNL     1       7.257   0.532  26.590  0.00  0.00    -0.190 N 
ATOM     10  H   UNL     1       6.609   0.800  25.861  0.00  0.00    +0.183 HD
ATOM     11  C   UNL     1       8.390  -0.166  26.222  0.00  0.00    +0.269 C 
ATOM     12  O   UNL     1       8.918  -1.036  26.913  0.00  0.00    -0.268 OA
BRANCH   9  13
ATOM     13  O   UNL     1       6.646   0.084  27.788  0.00  0.00    -0.277 OA
BRANCH  13  14
ATOM     14  C   UNL     1       5.795   1.130  28.277  0.00  0.00    +0.223 C 
BRANCH  14  15
ATOM     15  C   UNL     1       6.589   2.095  29.154  0.00  0.00    +0.168 C 
BRANCH  15  16
ATOM     16  O   UNL     1       7.458   2.895  28.336  0.00  0.00    -0.387 OA
ATOM     17  H   UNL     1       8.016   2.241  27.868  0.00  0.00    +0.210 HD
ENDBRANCH  15  16
BRANCH  15  18
ATOM     18  C   UNL     1       7.442   1.374  30.198  0.00  0.00    +0.189 C 
BRANCH  18  19
ATOM     19  O   UNL     1       8.585   0.833  29.520  0.00  0.00    -0.392 OA
ATOM     20  H   UNL     1       8.915   0.101  30.069  0.00  0.00    +0.210 HD
ENDBRANCH  18  19
ENDBRANCH  15  18
ENDBRANCH  14  15
ENDBRANCH  13  14
ENDBRANCH   9  13
ENDBRANCH   1  11
BRANCH   8  21
ATOM     21  N   UNL     1       9.802  -1.937  24.156  0.00  0.00    -0.309 N 
ATOM     22  H   UNL     1      10.014  -2.135  25.141  0.00  0.00    +0.152 HD
BRANCH  21  23
ATOM     23  C   UNL     1       8.742  -2.853  23.831  0.00  0.00    +0.067 A 
ATOM     24  C   UNL     1       8.501  -3.958  24.657  0.00  0.00    +0.145 A 
ATOM     25  F   UNL     1       9.309  -4.176  25.707  0.00  0.00    -0.204 F 
ATOM     26  C   UNL     1       7.405  -4.796  24.464  0.00  0.00    +0.054 A 
ATOM     27  C   UNL     1       6.538  -4.540  23.402  0.00  0.00    +0.016 A 
ATOM     28  I   UNL     1       4.809  -5.672  23.184  0.00  0.00    -0.044 I 
ATOM     29  C   UNL     1       6.813  -3.512  22.502  0.00  0.00    +0.016 A 
ATOM     30  C   UNL     1       7.936  -2.698  22.692  0.00  0.00    +0.027 A 
ENDBRANCH  21  23
ENDBRANCH   8  21
TORSDOF 9
ENDMDL
MODEL 7
REMARK VINA RESULT:      -6.5      4.010      6.220
REMARK  Name = 
REMARK  9 active torsions:
REMARK  status: ('A' for Active; 'I' for Inactive)
REMARK    1  A    between atoms: C_2  and  O_3
REMARK    2  A    between atoms: C_2  and  C_4
REMARK    3  A    between atoms: C_2  and  C_6
REMARK    4  A    between atoms: C_4  and  O_5
REMARK    5  A    between atoms: C_6  and  O_7
REMARK    6  A    between atoms: O_7  and  N_8
REMARK    7  A    between atoms: C_9  and  C_11
REMARK    8  A    between atoms: C_12  and  N_13
REMARK    9  A    between atoms: N_13  and  C_14
REMARK                            x       y       z     vdW  Elec       q    Type
REMARK                         _______ _______ _______ _____ _____    ______ ____
ROOT
ATOM      1  C   UNL     1       9.075   0.183  24.939  0.00  0.00    +0.063 A 
ATOM      2  C   UNL     1       9.064   1.596  24.829  0.00  0.00    +0.018 A 
ATOM      3  C   UNL     1       9.554   2.241  23.695  0.00  0.00    +0.042 A 
ATOM      4  C   UNL     1      10.016   1.479  22.638  0.00  0.00    +0.160 A 
ATOM      5  F   UNL     1      10.443   2.085  21.523  0.00  0.00    -0.202 F 
ATOM      6  C   UNL     1      10.040   0.094  22.730  0.00  0.00    +0.180 A 
ATOM      7  F   UNL     1      10.443  -0.598  21.650  0.00  0.00    -0.201 F 
ATOM      8  C   UNL     1       9.657  -0.587  23.911  0.00  0.00    +0.082 A 
ENDROOT
BRANCH   1  11
ATOM      9  N   UNL     1       7.172   0.215  26.468  0.00  0.00    -0.190 N 
ATOM     10  H   UNL     1       6.528   0.396  25.709  0.00  0.00    +0.183 HD
ATOM     11  C   UNL     1       8.394  -0.350  26.157  0.00  0.00    +0.269 C 
ATOM     12  O   UNL     1       8.990  -1.143  26.884  0.00  0.00    -0.268 OA
BRANCH   9  13
ATOM     13  O   UNL     1       6.568  -0.286  27.648  0.00  0.00    -0.277 OA
BRANCH  13  14
ATOM     14  C   UNL     1       5.202  -0.608  27.354  0.00  0.00    +0.223 C 
BRANCH  14  15
ATOM     15  C   UNL     1       5.074  -2.081  26.970  0.00  0.00    +0.168 C 
BRANCH  15  16
ATOM     16  O   UNL     1       6.340  -2.740  27.130  0.00  0.00    -0.387 OA
ATOM     17  H   UNL     1       6.169  -3.660  26.841  0.00  0.00    +0.210 HD
ENDBRANCH  15  16
BRANCH  15  18
ATOM     18  C   UNL     1       4.613  -2.273  25.525  0.00  0.00    +0.189 C 
BRANCH  18  19
ATOM     19  O   UNL     1       5.327  -1.327  24.716  0.00  0.00    -0.392 OA
ATOM     20  H   UNL     1       4.844  -0.485  24.777  0.00  0.00    +0.210 HD
ENDBRANCH  18  19
ENDBRANCH  15  18
ENDBRANCH  14  15
ENDBRANCH  13  14
ENDBRANCH   9  13
ENDBRANCH   1  11
BRANCH   8  21
ATOM     21  N   UNL     1       9.794  -2.013  23.996  0.00  0.00    -0.309 N 
ATOM     22  H   UNL     1      10.069  -2.255  24.955  0.00  0.00    +0.152 HD
BRANCH  21  23
ATOM     23  C   UNL     1       8.709  -2.911  23.702  0.00  0.00    +0.067 A 
ATOM     24  C   UNL     1       8.443  -3.984  24.563  0.00  0.00    +0.145 A 
ATOM     25  F   UNL     1       9.250  -4.190  25.617  0.00  0.00    -0.204 F 
ATOM     26  C   UNL     1       7.325  -4.798  24.399  0.00  0.00    +0.054 A 
ATOM     27  C   UNL     1       6.461  -4.553  23.332  0.00  0.00    +0.016 A 
ATOM     28  I   UNL     1       4.703  -5.646  23.155  0.00  0.00    -0.044 I 
ATOM     29  C   UNL     1       6.759  -3.560  22.400  0.00  0.00    +0.016 A 
ATOM     30  C   UNL     1       7.903  -2.770  22.562  0.00  0.00    +0.027 A 
ENDBRANCH  21  23
ENDBRANCH   8  21
TORSDOF 9
ENDMDL
MODEL 8
REMARK VINA RESULT:      -6.2      3.187      5.477
REMARK  Name = 
REMARK  9 active torsions:
REMARK  status: ('A' for Active; 'I' for Inactive)
REMARK    1  A    between atoms: C_2  and  O_3
REMARK    2  A    between atoms: C_2  and  C_4
REMARK    3  A    between atoms: C_2  and  C_6
REMARK    4  A    between atoms: C_4  and  O_5
REMARK    5  A    between atoms: C_6  and  O_7
REMARK    6  A    between atoms: O_7  and  N_8
REMARK    7  A    between atoms: C_9  and  C_11
REMARK    8  A    between atoms: C_12  and  N_13
REMARK    9  A    between atoms: N_13  and  C_14
REMARK                            x       y       z     vdW  Elec       q    Type
REMARK                         _______ _______ _______ _____ _____    ______ ____
ROOT
ATOM      1  C   UNL     1       8.675  -0.598  22.952  0.00  0.00    +0.063 A 
ATOM      2  C   UNL     1       8.493   0.587  22.198  0.00  0.00    +0.018 A 
ATOM      3  C   UNL     1       9.235   1.738  22.461  0.00  0.00    +0.042 A 
ATOM      4  C   UNL     1      10.199   1.701  23.451  0.00  0.00    +0.160 A 
ATOM      5  F   UNL     1      10.952   2.784  23.681  0.00  0.00    -0.202 F 
ATOM      6  C   UNL     1      10.387   0.550  24.205  0.00  0.00    +0.180 A 
ATOM      7  F   UNL     1      11.378   0.551  25.113  0.00  0.00    -0.201 F 
ATOM      8  C   UNL     1       9.573  -0.597  24.040  0.00  0.00    +0.082 A 
ENDROOT
BRANCH   1  11
ATOM      9  N   UNL     1       6.528  -1.708  22.609  0.00  0.00    -0.190 N 
ATOM     10  H   UNL     1       6.071  -0.828  22.410  0.00  0.00    +0.183 HD
ATOM     11  C   UNL     1       7.899  -1.775  22.455  0.00  0.00    +0.269 C 
ATOM     12  O   UNL     1       8.501  -2.776  22.070  0.00  0.00    -0.268 OA
BRANCH   9  13
ATOM     13  O   UNL     1       5.823  -2.854  22.162  0.00  0.00    -0.277 OA
BRANCH  13  14
ATOM     14  C   UNL     1       5.164  -3.446  23.288  0.00  0.00    +0.223 C 
BRANCH  14  15
ATOM     15  C   UNL     1       5.658  -4.874  23.504  0.00  0.00    +0.168 C 
BRANCH  15  16
ATOM     16  O   UNL     1       7.003  -5.005  23.016  0.00  0.00    -0.387 OA
ATOM     17  H   UNL     1       6.905  -5.005  22.041  0.00  0.00    +0.210 HD
ENDBRANCH  15  16
BRANCH  15  18
ATOM     18  C   UNL     1       4.787  -5.910  22.793  0.00  0.00    +0.189 C 
BRANCH  18  19
ATOM     19  O   UNL     1       5.200  -5.950  21.419  0.00  0.00    -0.392 OA
ATOM     20  H   UNL     1       4.418  -5.726  20.885  0.00  0.00    +0.210 HD
ENDBRANCH  18  19
ENDBRANCH  15  18
ENDBRANCH  14  15
ENDBRANCH  13  14
ENDBRANCH   9  13
ENDBRANCH   1  11
BRANCH   8  21
ATOM     21  N   UNL     1       9.737  -1.727  24.909  0.00  0.00    -0.309 N 
ATOM     22  H   UNL     1      10.352  -1.453  25.683  0.00  0.00    +0.152 HD
BRANCH  21  23
ATOM     23  C   UNL     1       8.624  -2.374  25.552  0.00  0.00    +0.067 A 
ATOM     24  C   UNL     1       8.629  -3.765  25.715  0.00  0.00    +0.145 A 
ATOM     25  F   UNL     1       9.649  -4.477  25.209  0.00  0.00    -0.204 F 
ATOM     26  C   UNL     1       7.645  -4.422  26.449  0.00  0.00    +0.054 A 
ATOM     27  C   UNL     1       6.613  -3.676  27.015  0.00  0.00    +0.016 A 
ATOM     28  I   UNL     1       5.222  -4.606  28.248  0.00  0.00    -0.044 I 
ATOM     29  C   UNL     1       6.525  -2.305  26.780  0.00  0.00    +0.016 A 
ATOM     30  C   UNL     1       7.505  -1.663  26.014  0.00  0.00    +0.027 A 
ENDBRANCH  21  23
ENDBRANCH   8  21
TORSDOF 9
ENDMDL
MODEL 9
REMARK VINA RESULT:      -6.2      3.712      5.472
REMARK  Name = 
REMARK  9 active torsions:
REMARK  status: ('A' for Active; 'I' for Inactive)
REMARK    1  A    between atoms: C_2  and  O_3
REMARK    2  A    between atoms: C_2  and  C_4
REMARK    3  A    between atoms: C_2  and  C_6
REMARK    4  A    between atoms: C_4  and  O_5
REMARK    5  A    between atoms: C_6  and  O_7
REMARK    6  A    between atoms: O_7  and  N_8
REMARK    7  A    between atoms: C_9  and  C_11
REMARK    8  A    between atoms: C_12  and  N_13
REMARK    9  A    between atoms: N_13  and  C_14
REMARK                            x       y       z     vdW  Elec       q    Type
REMARK                         _______ _______ _______ _____ _____    ______ ____
ROOT
ATOM      1  C   UNL     1       9.191  -1.731  23.351  0.00  0.00    +0.063 A 
ATOM      2  C   UNL     1       9.433  -1.528  21.970  0.00  0.00    +0.018 A 
ATOM      3  C   UNL     1       9.696  -0.259  21.456  0.00  0.00    +0.042 A 
ATOM      4  C   UNL     1       9.768   0.813  22.324  0.00  0.00    +0.160 A 
ATOM      5  F   UNL     1      10.069   2.029  21.851  0.00  0.00    -0.202 F 
ATOM      6  C   UNL     1       9.527   0.635  23.680  0.00  0.00    +0.180 A 
ATOM      7  F   UNL     1       9.669   1.701  24.487  0.00  0.00    -0.201 F 
ATOM      8  C   UNL     1       9.144  -0.618  24.217  0.00  0.00    +0.082 A 
ENDROOT
BRANCH   1  11
ATOM      9  N   UNL     1       7.874  -3.785  23.408  0.00  0.00    -0.190 N 
ATOM     10  H   UNL     1       7.494  -3.602  22.488  0.00  0.00    +0.183 HD
ATOM     11  C   UNL     1       9.057  -3.164  23.754  0.00  0.00    +0.269 C 
ATOM     12  O   UNL     1       9.919  -3.671  24.470  0.00  0.00    -0.268 OA
BRANCH   9  13
ATOM     13  O   UNL     1       7.763  -5.132  23.835  0.00  0.00    -0.277 OA
BRANCH  13  14
ATOM     14  C   UNL     1       6.735  -5.206  24.831  0.00  0.00    +0.223 C 
BRANCH  14  15
ATOM     15  C   UNL     1       7.343  -5.136  26.230  0.00  0.00    +0.168 C 
BRANCH  15  16
ATOM     16  O   UNL     1       8.584  -5.860  26.260  0.00  0.00    -0.387 OA
ATOM     17  H   UNL     1       8.921  -5.720  27.168  0.00  0.00    +0.210 HD
ENDBRANCH  15  16
BRANCH  15  18
ATOM     18  C   UNL     1       6.422  -5.720  27.301  0.00  0.00    +0.189 C 
BRANCH  18  19
ATOM     19  O   UNL     1       7.254  -6.320  28.304  0.00  0.00    -0.392 OA
ATOM     20  H   UNL     1       7.136  -5.796  29.115  0.00  0.00    +0.210 HD
ENDBRANCH  18  19
ENDBRANCH  15  18
ENDBRANCH  14  15
ENDBRANCH  13  14
ENDBRANCH   9  13
ENDBRANCH   1  11
BRANCH   8  21
ATOM     21  N   UNL     1       8.808  -0.734  25.607  0.00  0.00    -0.309 N 
ATOM     22  H   UNL     1       9.553  -0.294  26.158  0.00  0.00    +0.152 HD
BRANCH  21  23
ATOM     23  C   UNL     1       7.594  -0.191  26.156  0.00  0.00    +0.067 A 
ATOM     24  C   UNL     1       6.385  -0.875  25.977  0.00  0.00    +0.145 A 
ATOM     25  F   UNL     1       6.373  -1.997  25.239  0.00  0.00    -0.204 F 
ATOM     26  C   UNL     1       5.209  -0.464  26.601  0.00  0.00    +0.054 A 
ATOM     27  C   UNL     1       5.234   0.674  27.406  0.00  0.00    +0.016 A 
ATOM     28  I   UNL     1       3.538   1.218  28.477  0.00  0.00    -0.044 I 
ATOM     29  C   UNL     1       6.397   1.433  27.516  0.00  0.00    +0.016 A 
ATOM     30  C   UNL     1       7.563   1.024  26.858  0.00  0.00    +0.027 A 
ENDBRANCH  21  23
ENDBRANCH   8  21
TORSDOF 9
ENDMDL
