MODEL 1
REMARK VINA RESULT:      -7.2      0.000      0.000
REMARK  Name = 
REMARK  10 active torsions:
REMARK  status: ('A' for Active; 'I' for Inactive)
REMARK    1  A    between atoms: C_1  and  O_2
REMARK    2  A    between atoms: O_2  and  C_3
REMARK    3  A    between atoms: C_6  and  S_9
REMARK    4  A    between atoms: S_9  and  N_12
REMARK    5  A    between atoms: N_12  and  C_13
REMARK    6  A    between atoms: N_12  and  C_20
REMARK    7  A    between atoms: C_13  and  C_14
REMARK    8  A    between atoms: C_21  and  C_27
REMARK    9  A    between atoms: C_25  and  C_26
REMARK   10  A    between atoms: N_29  and  O_30
REMARK                            x       y       z     vdW  Elec       q    Type
REMARK                         _______ _______ _______ _____ _____    ______ ____
ROOT
ATOM      1  N   UNL     1       8.106  -0.282  24.622  0.00  0.00    -0.198 N 
ENDROOT
BRANCH   1   2
ATOM      2  C   UNL     1       7.947   1.047  25.207  0.00  0.00    +0.067 A 
ATOM      3  C   UNL     1       6.962   1.192  26.228  0.00  0.00    -0.027 A 
ATOM      4  C   UNL     1       6.219   0.028  26.836  0.00  0.00    +0.046 C 
ATOM      5  C   UNL     1       6.644   2.468  26.732  0.00  0.00    +0.005 A 
ATOM      6  C   UNL     1       7.326   3.594  26.304  0.00  0.00    +0.001 A 
ATOM      7  C   UNL     1       8.339   3.462  25.363  0.00  0.00    +0.015 A 
ATOM      8  C   UNL     1       8.647   2.211  24.782  0.00  0.00    +0.061 A 
BRANCH   8   9
ATOM      9  C   UNL     1       9.727   2.233  23.735  0.00  0.00    +0.268 C 
ATOM     10  N   UNL     1       9.312   2.453  22.435  0.00  0.00    -0.193 N 
ATOM     11  H   UNL     1       8.370   2.257  22.135  0.00  0.00    +0.183 HD
ATOM     12  O   UNL     1      10.915   2.039  23.966  0.00  0.00    -0.268 OA
BRANCH  10  13
ATOM     13  O   UNL     1      10.314   2.275  21.443  0.00  0.00    -0.295 OA
ATOM     14  H   UNL     1      11.071   2.769  21.831  0.00  0.00    +0.241 HD
ENDBRANCH  10  13
ENDBRANCH   8   9
ENDBRANCH   1   2
BRANCH   1  15
ATOM     15  S   UNL     1       7.610  -0.505  22.992  0.00  0.00    +0.075 S 
ATOM     16  O   UNL     1       6.771   0.623  22.635  0.00  0.00    -0.150 OA
ATOM     17  O   UNL     1       8.777  -0.821  22.189  0.00  0.00    -0.150 OA
BRANCH  15  21
ATOM     18  C   UNL     1       5.026  -4.314  22.886  0.00  0.00    +0.120 A 
ATOM     19  C   UNL     1       4.803  -3.332  23.848  0.00  0.00    +0.047 A 
ATOM     20  C   UNL     1       5.608  -2.185  23.891  0.00  0.00    +0.032 A 
ATOM     21  C   UNL     1       6.579  -1.966  22.911  0.00  0.00    +0.109 A 
ATOM     22  C   UNL     1       6.845  -2.971  21.978  0.00  0.00    +0.032 A 
ATOM     23  C   UNL     1       6.068  -4.139  21.970  0.00  0.00    +0.047 A 
BRANCH  18  25
ATOM     24  C   UNL     1       3.056  -5.529  23.427  0.00  0.00    +0.277 C 
ATOM     25  O   UNL     1       4.298  -5.461  22.734  0.00  0.00    -0.495 OA
ENDBRANCH  18  25
ENDBRANCH  15  21
ENDBRANCH   1  15
BRANCH   1  26
ATOM     26  C   UNL     1       9.209  -1.144  25.124  0.00  0.00    +0.168 C 
BRANCH  26  27
ATOM     27  C   UNL     1       8.935  -2.609  25.353  0.00  0.00    -0.010 A 
ATOM     28  C   UNL     1       9.516  -3.526  24.468  0.00  0.00    +0.116 A 
ATOM     29  N   UNL     1       9.424  -4.871  24.576  0.00  0.00    -0.263 NA
ATOM     30  C   UNL     1       8.702  -5.338  25.613  0.00  0.00    +0.111 A 
ATOM     31  C   UNL     1       8.049  -4.522  26.525  0.00  0.00    +0.020 A 
ATOM     32  C   UNL     1       8.163  -3.139  26.384  0.00  0.00    +0.008 A 
ENDBRANCH  26  27
ENDBRANCH   1  26
TORSDOF 8
ENDMDL
MODEL 2
REMARK VINA RESULT:      -6.9      2.069      6.860
REMARK  Name = 
REMARK  10 active torsions:
REMARK  status: ('A' for Active; 'I' for Inactive)
REMARK    1  A    between atoms: C_1  and  O_2
REMARK    2  A    between atoms: O_2  and  C_3
REMARK    3  A    between atoms: C_6  and  S_9
REMARK    4  A    between atoms: S_9  and  N_12
REMARK    5  A    between atoms: N_12  and  C_13
REMARK    6  A    between atoms: N_12  and  C_20
REMARK    7  A    between atoms: C_13  and  C_14
REMARK    8  A    between atoms: C_21  and  C_27
REMARK    9  A    between atoms: C_25  and  C_26
REMARK   10  A    between atoms: N_29  and  O_30
REMARK                            x       y       z     vdW  Elec       q    Type
REMARK                         _______ _______ _______ _____ _____    ______ ____
ROOT
ATOM      1  N   UNL     1       7.484  -1.997  24.032  0.00  0.00    -0.198 N 
ENDROOT
BRANCH   1   2
ATOM      2  C   UNL     1       7.172  -3.218  24.770  0.00  0.00    +0.067 A 
ATOM      3  C   UNL     1       7.732  -3.348  26.075  0.00  0.00    -0.027 A 
ATOM      4  C   UNL     1       8.470  -2.234  26.776  0.00  0.00    +0.046 C 
ATOM      5  C   UNL     1       7.604  -4.557  26.785  0.00  0.00    +0.005 A 
ATOM      6  C   UNL     1       6.875  -5.615  26.268  0.00  0.00    +0.001 A 
ATOM      7  C   UNL     1       6.261  -5.479  25.031  0.00  0.00    +0.015 A 
ATOM      8  C   UNL     1       6.418  -4.309  24.254  0.00  0.00    +0.061 A 
BRANCH   8   9
ATOM      9  C   UNL     1       5.742  -4.330  22.910  0.00  0.00    +0.268 C 
ATOM     10  N   UNL     1       6.545  -4.647  21.829  0.00  0.00    -0.193 N 
ATOM     11  H   UNL     1       7.544  -4.522  21.852  0.00  0.00    +0.183 HD
ATOM     12  O   UNL     1       4.561  -4.056  22.726  0.00  0.00    -0.268 OA
BRANCH  10  13
ATOM     13  O   UNL     1       5.939  -4.471  20.556  0.00  0.00    -0.295 OA
ATOM     14  H   UNL     1       6.283  -5.247  20.060  0.00  0.00    +0.241 HD
ENDBRANCH  10  13
ENDBRANCH   8   9
ENDBRANCH   1   2
BRANCH   1  15
ATOM     15  S   UNL     1       8.889  -1.994  23.043  0.00  0.00    +0.075 S 
ATOM     16  O   UNL     1       9.841  -2.912  23.638  0.00  0.00    -0.150 OA
ATOM     17  O   UNL     1       8.485  -2.167  21.659  0.00  0.00    -0.150 OA
BRANCH  15  21
ATOM     18  C   UNL     1      10.673   2.243  23.285  0.00  0.00    +0.120 A 
ATOM     19  C   UNL     1      10.665   1.412  24.403  0.00  0.00    +0.047 A 
ATOM     20  C   UNL     1      10.099   0.131  24.330  0.00  0.00    +0.032 A 
ATOM     21  C   UNL     1       9.625  -0.364  23.114  0.00  0.00    +0.109 A 
ATOM     22  C   UNL     1       9.579   0.484  22.003  0.00  0.00    +0.032 A 
ATOM     23  C   UNL     1      10.103   1.782  22.095  0.00  0.00    +0.047 A 
BRANCH  18  25
ATOM     24  C   UNL     1      10.386   4.570  23.678  0.00  0.00    +0.277 C 
ATOM     25  O   UNL     1      11.211   3.499  23.230  0.00  0.00    -0.495 OA
ENDBRANCH  18  25
ENDBRANCH  15  21
ENDBRANCH   1  15
BRANCH   1  26
ATOM     26  C   UNL     1       6.358  -1.116  23.621  0.00  0.00    +0.168 C 
BRANCH  26  27
ATOM     27  C   UNL     1       6.267   0.267  24.215  0.00  0.00    -0.010 A 
ATOM     28  C   UNL     1       6.022   0.369  25.591  0.00  0.00    +0.116 A 
ATOM     29  N   UNL     1       5.981   1.529  26.285  0.00  0.00    -0.263 NA
ATOM     30  C   UNL     1       6.179   2.656  25.575  0.00  0.00    +0.111 A 
ATOM     31  C   UNL     1       6.388   2.675  24.204  0.00  0.00    +0.020 A 
ATOM     32  C   UNL     1       6.423   1.462  23.518  0.00  0.00    +0.008 A 
ENDBRANCH  26  27
ENDBRANCH   1  26
TORSDOF 8
ENDMDL
MODEL 3
REMARK VINA RESULT:      -6.8      2.706      4.193
REMARK  Name = 
REMARK  10 active torsions:
REMARK  status: ('A' for Active; 'I' for Inactive)
REMARK    1  A    between atoms: C_1  and  O_2
REMARK    2  A    between atoms: O_2  and  C_3
REMARK    3  A    between atoms: C_6  and  S_9
REMARK    4  A    between atoms: S_9  and  N_12
REMARK    5  A    between atoms: N_12  and  C_13
REMARK    6  A    between atoms: N_12  and  C_20
REMARK    7  A    between atoms: C_13  and  C_14
REMARK    8  A    between atoms: C_21  and  C_27
REMARK    9  A    between atoms: C_25  and  C_26
REMARK   10  A    between atoms: N_29  and  O_30
REMARK                            x       y       z     vdW  Elec       q    Type
REMARK                         _______ _______ _______ _____ _____    ______ ____
ROOT
ATOM      1  N   UNL     1       7.162  -1.260  24.205  0.00  0.00    -0.198 N 
ENDROOT
BRANCH   1   2
ATOM      2  C   UNL     1       8.210  -0.252  24.067  0.00  0.00    +0.067 A 
ATOM      3  C   UNL     1       9.559  -0.710  24.113  0.00  0.00    -0.027 A 
ATOM      4  C   UNL     1       9.941  -2.170  24.124  0.00  0.00    +0.046 C 
ATOM      5  C   UNL     1      10.622   0.214  24.140  0.00  0.00    +0.005 A 
ATOM      6  C   UNL     1      10.387   1.575  24.049  0.00  0.00    +0.001 A 
ATOM      7  C   UNL     1       9.082   2.035  23.928  0.00  0.00    +0.015 A 
ATOM      8  C   UNL     1       7.982   1.148  23.964  0.00  0.00    +0.061 A 
BRANCH   8   9
ATOM      9  C   UNL     1       6.627   1.798  23.882  0.00  0.00    +0.268 C 
ATOM     10  N   UNL     1       6.033   1.814  22.633  0.00  0.00    -0.193 N 
ATOM     11  H   UNL     1       6.571   1.740  21.785  0.00  0.00    +0.183 HD
ATOM     12  O   UNL     1       6.057   2.327  24.830  0.00  0.00    -0.268 OA
BRANCH  10  13
ATOM     13  O   UNL     1       4.852   2.599  22.537  0.00  0.00    -0.295 OA
ATOM     14  H   UNL     1       4.744   2.915  23.462  0.00  0.00    +0.241 HD
ENDBRANCH  10  13
ENDBRANCH   8   9
ENDBRANCH   1   2
BRANCH   1  15
ATOM     15  S   UNL     1       6.250  -1.274  25.662  0.00  0.00    +0.075 S 
ATOM     16  O   UNL     1       7.012  -0.546  26.658  0.00  0.00    -0.150 OA
ATOM     17  O   UNL     1       4.887  -0.876  25.362  0.00  0.00    -0.150 OA
BRANCH  15  21
ATOM     18  C   UNL     1       5.962  -5.665  27.012  0.00  0.00    +0.120 A 
ATOM     19  C   UNL     1       7.203  -5.060  26.827  0.00  0.00    +0.047 A 
ATOM     20  C   UNL     1       7.286  -3.729  26.393  0.00  0.00    +0.032 A 
ATOM     21  C   UNL     1       6.128  -2.965  26.234  0.00  0.00    +0.109 A 
ATOM     22  C   UNL     1       4.880  -3.581  26.363  0.00  0.00    +0.032 A 
ATOM     23  C   UNL     1       4.804  -4.927  26.752  0.00  0.00    +0.047 A 
BRANCH  18  25
ATOM     24  C   UNL     1       4.919  -7.107  28.588  0.00  0.00    +0.277 C 
ATOM     25  O   UNL     1       5.757  -6.945  27.449  0.00  0.00    -0.495 OA
ENDBRANCH  18  25
ENDBRANCH  15  21
ENDBRANCH   1  15
BRANCH   1  26
ATOM     26  C   UNL     1       6.487  -1.747  22.972  0.00  0.00    +0.168 C 
BRANCH  26  27
ATOM     27  C   UNL     1       6.336  -3.234  22.770  0.00  0.00    -0.010 A 
ATOM     28  C   UNL     1       5.037  -3.752  22.695  0.00  0.00    +0.116 A 
ATOM     29  N   UNL     1       4.734  -5.047  22.449  0.00  0.00    -0.263 NA
ATOM     30  C   UNL     1       5.776  -5.883  22.281  0.00  0.00    +0.111 A 
ATOM     31  C   UNL     1       7.102  -5.486  22.376  0.00  0.00    +0.020 A 
ATOM     32  C   UNL     1       7.381  -4.144  22.633  0.00  0.00    +0.008 A 
ENDBRANCH  26  27
ENDBRANCH   1  26
TORSDOF 8
ENDMDL
MODEL 4
REMARK VINA RESULT:      -6.8      3.497      6.201
REMARK  Name = 
REMARK  10 active torsions:
REMARK  status: ('A' for Active; 'I' for Inactive)
REMARK    1  A    between atoms: C_1  and  O_2
REMARK    2  A    between atoms: O_2  and  C_3
REMARK    3  A    between atoms: C_6  and  S_9
REMARK    4  A    between atoms: S_9  and  N_12
REMARK    5  A    between atoms: N_12  and  C_13
REMARK    6  A    between atoms: N_12  and  C_20
REMARK    7  A    between atoms: C_13  and  C_14
REMARK    8  A    between atoms: C_21  and  C_27
REMARK    9  A    between atoms: C_25  and  C_26
REMARK   10  A    between atoms: N_29  and  O_30
REMARK                            x       y       z     vdW  Elec       q    Type
REMARK                         _______ _______ _______ _____ _____    ______ ____
ROOT
ATOM      1  N   UNL     1       6.293  -2.915  24.504  0.00  0.00    -0.198 N 
ENDROOT
BRANCH   1   2
ATOM      2  C   UNL     1       6.811  -3.999  23.672  0.00  0.00    +0.067 A 
ATOM      3  C   UNL     1       6.359  -4.049  22.320  0.00  0.00    -0.027 A 
ATOM      4  C   UNL     1       5.530  -2.963  21.681  0.00  0.00    +0.046 C 
ATOM      5  C   UNL     1       6.691  -5.146  21.501  0.00  0.00    +0.005 A 
ATOM      6  C   UNL     1       7.517  -6.157  21.963  0.00  0.00    +0.001 A 
ATOM      7  C   UNL     1       8.026  -6.086  23.253  0.00  0.00    +0.015 A 
ATOM      8  C   UNL     1       7.666  -5.038  24.131  0.00  0.00    +0.061 A 
BRANCH   8   9
ATOM      9  C   UNL     1       8.249  -5.127  25.515  0.00  0.00    +0.268 C 
ATOM     10  N   UNL     1       7.582  -5.948  26.406  0.00  0.00    -0.193 N 
ATOM     11  H   UNL     1       6.610  -6.184  26.289  0.00  0.00    +0.183 HD
ATOM     12  O   UNL     1       9.235  -4.502  25.890  0.00  0.00    -0.268 OA
BRANCH  10  13
ATOM     13  O   UNL     1       8.029  -5.866  27.753  0.00  0.00    -0.295 OA
ATOM     14  H   UNL     1       7.185  -5.732  28.238  0.00  0.00    +0.241 HD
ENDBRANCH  10  13
ENDBRANCH   8   9
ENDBRANCH   1   2
BRANCH   1  15
ATOM     15  S   UNL     1       5.001  -3.276  25.577  0.00  0.00    +0.075 S 
ATOM     16  O   UNL     1       5.579  -3.545  26.880  0.00  0.00    -0.150 OA
ATOM     17  O   UNL     1       3.980  -2.254  25.436  0.00  0.00    -0.150 OA
BRANCH  15  21
ATOM     18  C   UNL     1       2.887  -7.139  24.238  0.00  0.00    +0.120 A 
ATOM     19  C   UNL     1       2.638  -5.933  23.587  0.00  0.00    +0.047 A 
ATOM     20  C   UNL     1       3.267  -4.755  24.014  0.00  0.00    +0.032 A 
ATOM     21  C   UNL     1       4.222  -4.792  25.032  0.00  0.00    +0.109 A 
ATOM     22  C   UNL     1       4.434  -5.987  25.726  0.00  0.00    +0.032 A 
ATOM     23  C   UNL     1       3.765  -7.154  25.325  0.00  0.00    +0.047 A 
BRANCH  18  25
ATOM     24  C   UNL     1       1.748  -9.100  24.953  0.00  0.00    +0.277 C 
ATOM     25  O   UNL     1       2.350  -8.352  23.902  0.00  0.00    -0.495 OA
ENDBRANCH  18  25
ENDBRANCH  15  21
ENDBRANCH   1  15
BRANCH   1  26
ATOM     26  C   UNL     1       7.226  -1.826  24.900  0.00  0.00    +0.168 C 
BRANCH  26  27
ATOM     27  C   UNL     1       8.202  -1.303  23.877  0.00  0.00    -0.010 A 
ATOM     28  C   UNL     1       7.760  -0.295  23.011  0.00  0.00    +0.116 A 
ATOM     29  N   UNL     1       8.529   0.325  22.088  0.00  0.00    -0.263 NA
ATOM     30  C   UNL     1       9.810  -0.085  22.006  0.00  0.00    +0.111 A 
ATOM     31  C   UNL     1      10.343  -1.102  22.785  0.00  0.00    +0.020 A 
ATOM     32  C   UNL     1       9.521  -1.722  23.726  0.00  0.00    +0.008 A 
ENDBRANCH  26  27
ENDBRANCH   1  26
TORSDOF 8
ENDMDL
MODEL 5
REMARK VINA RESULT:      -6.7      2.801      6.531
REMARK  Name = 
REMARK  10 active torsions:
REMARK  status: ('A' for Active; 'I' for Inactive)
REMARK    1  A    between atoms: C_1  and  O_2
REMARK    2  A    between atoms: O_2  and  C_3
REMARK    3  A    between atoms: C_6  and  S_9
REMARK    4  A    between atoms: S_9  and  N_12
REMARK    5  A    between atoms: N_12  and  C_13
REMARK    6  A    between atoms: N_12  and  C_20
REMARK    7  A    between atoms: C_13  and  C_14
REMARK    8  A    between atoms: C_21  and  C_27
REMARK    9  A    between atoms: C_25  and  C_26
REMARK   10  A    between atoms: N_29  and  O_30
REMARK                            x       y       z     vdW  Elec       q    Type
REMARK                         _______ _______ _______ _____ _____    ______ ____
ROOT
ATOM      1  N   UNL     1       6.183  -2.770  25.057  0.00  0.00    -0.198 N 
ENDROOT
BRANCH   1   2
ATOM      2  C   UNL     1       5.841  -3.942  25.858  0.00  0.00    +0.067 A 
ATOM      3  C   UNL     1       4.456  -4.249  25.999  0.00  0.00    -0.027 A 
ATOM      4  C   UNL     1       3.366  -3.539  25.235  0.00  0.00    +0.046 C 
ATOM      5  C   UNL     1       4.040  -5.269  26.877  0.00  0.00    +0.005 A 
ATOM      6  C   UNL     1       4.963  -6.040  27.564  0.00  0.00    +0.001 A 
ATOM      7  C   UNL     1       6.319  -5.802  27.382  0.00  0.00    +0.015 A 
ATOM      8  C   UNL     1       6.780  -4.747  26.562  0.00  0.00    +0.061 A 
BRANCH   8   9
ATOM      9  C   UNL     1       8.274  -4.575  26.509  0.00  0.00    +0.268 C 
ATOM     10  N   UNL     1       8.976  -5.552  25.826  0.00  0.00    -0.193 N 
ATOM     11  H   UNL     1       8.603  -6.478  25.686  0.00  0.00    +0.183 HD
ATOM     12  O   UNL     1       8.883  -3.661  27.052  0.00  0.00    -0.268 OA
BRANCH  10  13
ATOM     13  O   UNL     1      10.389  -5.480  25.955  0.00  0.00    -0.295 OA
ATOM     14  H   UNL     1      10.652  -6.419  25.827  0.00  0.00    +0.241 HD
ENDBRANCH  10  13
ENDBRANCH   8   9
ENDBRANCH   1   2
BRANCH   1  15
ATOM     15  S   UNL     1       6.145  -1.234  25.826  0.00  0.00    +0.075 S 
ATOM     16  O   UNL     1       4.965  -0.538  25.350  0.00  0.00    -0.150 OA
ATOM     17  O   UNL     1       6.349  -1.421  27.251  0.00  0.00    -0.150 OA
BRANCH  15  21
ATOM     18  C   UNL     1       9.795   1.116  24.293  0.00  0.00    +0.120 A 
ATOM     19  C   UNL     1       8.525   1.364  23.778  0.00  0.00    +0.047 A 
ATOM     20  C   UNL     1       7.420   0.630  24.232  0.00  0.00    +0.032 A 
ATOM     21  C   UNL     1       7.563  -0.291  25.272  0.00  0.00    +0.109 A 
ATOM     22  C   UNL     1       8.841  -0.585  25.753  0.00  0.00    +0.032 A 
ATOM     23  C   UNL     1       9.950   0.120  25.261  0.00  0.00    +0.047 A 
BRANCH  18  25
ATOM     24  C   UNL     1      10.784   3.076  23.381  0.00  0.00    +0.277 C 
ATOM     25  O   UNL     1      10.940   1.778  23.944  0.00  0.00    -0.495 OA
ENDBRANCH  18  25
ENDBRANCH  15  21
ENDBRANCH   1  15
BRANCH   1  26
ATOM     26  C   UNL     1       7.133  -2.943  23.925  0.00  0.00    +0.168 C 
BRANCH  26  27
ATOM     27  C   UNL     1       6.835  -3.995  22.887  0.00  0.00    -0.010 A 
ATOM     28  C   UNL     1       6.084  -3.611  21.769  0.00  0.00    +0.116 A 
ATOM     29  N   UNL     1       5.792  -4.413  20.720  0.00  0.00    -0.263 NA
ATOM     30  C   UNL     1       6.257  -5.675  20.787  0.00  0.00    +0.111 A 
ATOM     31  C   UNL     1       6.975  -6.174  21.864  0.00  0.00    +0.020 A 
ATOM     32  C   UNL     1       7.258  -5.321  22.930  0.00  0.00    +0.008 A 
ENDBRANCH  26  27
ENDBRANCH   1  26
TORSDOF 8
ENDMDL
MODEL 6
REMARK VINA RESULT:      -6.6      2.512      7.084
REMARK  Name = 
REMARK  10 active torsions:
REMARK  status: ('A' for Active; 'I' for Inactive)
REMARK    1  A    between atoms: C_1  and  O_2
REMARK    2  A    between atoms: O_2  and  C_3
REMARK    3  A    between atoms: C_6  and  S_9
REMARK    4  A    between atoms: S_9  and  N_12
REMARK    5  A    between atoms: N_12  and  C_13
REMARK    6  A    between atoms: N_12  and  C_20
REMARK    7  A    between atoms: C_13  and  C_14
REMARK    8  A    between atoms: C_21  and  C_27
REMARK    9  A    between atoms: C_25  and  C_26
REMARK   10  A    between atoms: N_29  and  O_30
REMARK                            x       y       z     vdW  Elec       q    Type
REMARK                         _______ _______ _______ _____ _____    ______ ____
ROOT
ATOM      1  N   UNL     1       6.419  -3.579  24.464  0.00  0.00    -0.198 N 
ENDROOT
BRANCH   1   2
ATOM      2  C   UNL     1       5.803  -4.726  25.127  0.00  0.00    +0.067 A 
ATOM      3  C   UNL     1       6.009  -4.849  26.533  0.00  0.00    -0.027 A 
ATOM      4  C   UNL     1       6.670  -3.784  27.372  0.00  0.00    +0.046 C 
ATOM      5  C   UNL     1       5.578  -6.004  27.215  0.00  0.00    +0.005 A 
ATOM      6  C   UNL     1       4.885  -7.006  26.555  0.00  0.00    +0.001 A 
ATOM      7  C   UNL     1       4.612  -6.867  25.201  0.00  0.00    +0.015 A 
ATOM      8  C   UNL     1       5.082  -5.757  24.463  0.00  0.00    +0.061 A 
BRANCH   8   9
ATOM      9  C   UNL     1       4.758  -5.774  22.994  0.00  0.00    +0.268 C 
ATOM     10  N   UNL     1       5.689  -6.382  22.171  0.00  0.00    -0.193 N 
ATOM     11  H   UNL     1       6.654  -6.485  22.442  0.00  0.00    +0.183 HD
ATOM     12  O   UNL     1       3.759  -5.262  22.501  0.00  0.00    -0.268 OA
BRANCH  10  13
ATOM     13  O   UNL     1       5.463  -6.216  20.778  0.00  0.00    -0.295 OA
ATOM     14  H   UNL     1       4.682  -6.794  20.630  0.00  0.00    +0.241 HD
ENDBRANCH  10  13
ENDBRANCH   8   9
ENDBRANCH   1   2
BRANCH   1  15
ATOM     15  S   UNL     1       7.865  -3.848  23.575  0.00  0.00    +0.075 S 
ATOM     16  O   UNL     1       8.689  -4.755  24.351  0.00  0.00    -0.150 OA
ATOM     17  O   UNL     1       7.515  -4.179  22.206  0.00  0.00    -0.150 OA
BRANCH  15  21
ATOM     18  C   UNL     1      10.265   0.068  23.260  0.00  0.00    +0.120 A 
ATOM     19  C   UNL     1       9.743  -0.537  22.119  0.00  0.00    +0.047 A 
ATOM     20  C   UNL     1       9.032  -1.742  22.218  0.00  0.00    +0.032 A 
ATOM     21  C   UNL     1       8.756  -2.299  23.468  0.00  0.00    +0.109 A 
ATOM     22  C   UNL     1       9.325  -1.728  24.610  0.00  0.00    +0.032 A 
ATOM     23  C   UNL     1      10.076  -0.548  24.500  0.00  0.00    +0.047 A 
BRANCH  18  25
ATOM     24  C   UNL     1      10.236   2.401  23.713  0.00  0.00    +0.277 C 
ATOM     25  O   UNL     1      10.956   1.248  23.290  0.00  0.00    -0.495 OA
ENDBRANCH  18  25
ENDBRANCH  15  21
ENDBRANCH   1  15
BRANCH   1  26
ATOM     26  C   UNL     1       5.537  -2.469  24.014  0.00  0.00    +0.168 C 
BRANCH  26  27
ATOM     27  C   UNL     1       5.588  -1.158  24.756  0.00  0.00    -0.010 A 
ATOM     28  C   UNL     1       4.976  -1.098  26.014  0.00  0.00    +0.116 A 
ATOM     29  N   UNL     1       4.993  -0.021  26.832  0.00  0.00    -0.263 NA
ATOM     30  C   UNL     1       5.641   1.067  26.373  0.00  0.00    +0.111 A 
ATOM     31  C   UNL     1       6.246   1.132  25.126  0.00  0.00    +0.020 A 
ATOM     32  C   UNL     1       6.209   0.005  24.306  0.00  0.00    +0.008 A 
ENDBRANCH  26  27
ENDBRANCH   1  26
TORSDOF 8
ENDMDL
MODEL 7
REMARK VINA RESULT:      -6.4      2.808      6.866
REMARK  Name = 
REMARK  10 active torsions:
REMARK  status: ('A' for Active; 'I' for Inactive)
REMARK    1  A    between atoms: C_1  and  O_2
REMARK    2  A    between atoms: O_2  and  C_3
REMARK    3  A    between atoms: C_6  and  S_9
REMARK    4  A    between atoms: S_9  and  N_12
REMARK    5  A    between atoms: N_12  and  C_13
REMARK    6  A    between atoms: N_12  and  C_20
REMARK    7  A    between atoms: C_13  and  C_14
REMARK    8  A    between atoms: C_21  and  C_27
REMARK    9  A    between atoms: C_25  and  C_26
REMARK   10  A    between atoms: N_29  and  O_30
REMARK                            x       y       z     vdW  Elec       q    Type
REMARK                         _______ _______ _______ _____ _____    ______ ____
ROOT
ATOM      1  N   UNL     1       6.733  -2.830  24.923  0.00  0.00    -0.198 N 
ENDROOT
BRANCH   1   2
ATOM      2  C   UNL     1       6.124  -4.066  24.436  0.00  0.00    +0.067 A 
ATOM      3  C   UNL     1       5.757  -4.109  23.059  0.00  0.00    -0.027 A 
ATOM      4  C   UNL     1       6.117  -3.029  22.070  0.00  0.00    +0.046 C 
ATOM      5  C   UNL     1       5.029  -5.203  22.552  0.00  0.00    +0.005 A 
ATOM      6  C   UNL     1       4.719  -6.288  23.356  0.00  0.00    +0.001 A 
ATOM      7  C   UNL     1       5.134  -6.295  24.681  0.00  0.00    +0.015 A 
ATOM      8  C   UNL     1       5.808  -5.191  25.249  0.00  0.00    +0.061 A 
BRANCH   8   9
ATOM      9  C   UNL     1       6.142  -5.319  26.710  0.00  0.00    +0.268 C 
ATOM     10  N   UNL     1       7.280  -6.044  27.015  0.00  0.00    -0.193 N 
ATOM     11  H   UNL     1       7.660  -6.731  26.383  0.00  0.00    +0.183 HD
ATOM     12  O   UNL     1       5.458  -4.858  27.618  0.00  0.00    -0.268 OA
BRANCH  10  13
ATOM     13  O   UNL     1       7.467  -6.320  28.396  0.00  0.00    -0.295 OA
ATOM     14  H   UNL     1       7.498  -5.415  28.780  0.00  0.00    +0.241 HD
ENDBRANCH  10  13
ENDBRANCH   8   9
ENDBRANCH   1   2
BRANCH   1  15
ATOM     15  S   UNL     1       5.716  -1.693  25.713  0.00  0.00    +0.075 S 
ATOM     16  O   UNL     1       4.349  -1.998  25.338  0.00  0.00    -0.150 OA
ATOM     17  O   UNL     1       6.085  -1.633  27.115  0.00  0.00    -0.150 OA
BRANCH  15  21
ATOM     18  C   UNL     1       6.782   2.461  24.038  0.00  0.00    +0.120 A 
ATOM     19  C   UNL     1       6.685   1.358  23.192  0.00  0.00    +0.047 A 
ATOM     20  C   UNL     1       6.384   0.091  23.710  0.00  0.00    +0.032 A 
ATOM     21  C   UNL     1       6.081  -0.065  25.064  0.00  0.00    +0.109 A 
ATOM     22  C   UNL     1       6.230   1.025  25.927  0.00  0.00    +0.032 A 
ATOM     23  C   UNL     1       6.580   2.281  25.409  0.00  0.00    +0.047 A 
BRANCH  18  25
ATOM     24  C   UNL     1       7.047   4.002  22.248  0.00  0.00    +0.277 C 
ATOM     25  O   UNL     1       7.050   3.744  23.648  0.00  0.00    -0.495 OA
ENDBRANCH  18  25
ENDBRANCH  15  21
ENDBRANCH   1  15
BRANCH   1  26
ATOM     26  C   UNL     1       8.164  -2.862  25.326  0.00  0.00    +0.168 C 
BRANCH  26  27
ATOM     27  C   UNL     1       9.088  -1.794  24.798  0.00  0.00    -0.010 A 
ATOM     28  C   UNL     1       9.563  -1.933  23.488  0.00  0.00    +0.116 A 
ATOM     29  N   UNL     1      10.341  -1.031  22.847  0.00  0.00    -0.263 NA
ATOM     30  C   UNL     1      10.681   0.068  23.547  0.00  0.00    +0.111 A 
ATOM     31  C   UNL     1      10.302   0.289  24.863  0.00  0.00    +0.020 A 
ATOM     32  C   UNL     1       9.502  -0.662  25.496  0.00  0.00    +0.008 A 
ENDBRANCH  26  27
ENDBRANCH   1  26
TORSDOF 8
ENDMDL
MODEL 8
REMARK VINA RESULT:      -6.1      2.643      7.207
REMARK  Name = 
REMARK  10 active torsions:
REMARK  status: ('A' for Active; 'I' for Inactive)
REMARK    1  A    between atoms: C_1  and  O_2
REMARK    2  A    between atoms: O_2  and  C_3
REMARK    3  A    between atoms: C_6  and  S_9
REMARK    4  A    between atoms: S_9  and  N_12
REMARK    5  A    between atoms: N_12  and  C_13
REMARK    6  A    between atoms: N_12  and  C_20
REMARK    7  A    between atoms: C_13  and  C_14
REMARK    8  A    between atoms: C_21  and  C_27
REMARK    9  A    between atoms: C_25  and  C_26
REMARK   10  A    between atoms: N_29  and  O_30
REMARK                            x       y       z     vdW  Elec       q    Type
REMARK                         _______ _______ _______ _____ _____    ______ ____
ROOT
ATOM      1  N   UNL     1       6.676  -2.979  24.718  0.00  0.00    -0.198 N 
ENDROOT
BRANCH   1   2
ATOM      2  C   UNL     1       6.024  -4.197  24.243  0.00  0.00    +0.067 A 
ATOM      3  C   UNL     1       5.662  -4.243  22.865  0.00  0.00    -0.027 A 
ATOM      4  C   UNL     1       6.067  -3.188  21.865  0.00  0.00    +0.046 C 
ATOM      5  C   UNL     1       4.896  -5.315  22.368  0.00  0.00    +0.005 A 
ATOM      6  C   UNL     1       4.543  -6.378  23.182  0.00  0.00    +0.001 A 
ATOM      7  C   UNL     1       4.950  -6.385  24.509  0.00  0.00    +0.015 A 
ATOM      8  C   UNL     1       5.663  -5.299  25.068  0.00  0.00    +0.061 A 
BRANCH   8   9
ATOM      9  C   UNL     1       5.985  -5.422  26.532  0.00  0.00    +0.268 C 
ATOM     10  N   UNL     1       7.273  -5.818  26.842  0.00  0.00    -0.193 N 
ATOM     11  H   UNL     1       7.846  -6.329  26.190  0.00  0.00    +0.183 HD
ATOM     12  O   UNL     1       5.178  -5.229  27.435  0.00  0.00    -0.268 OA
BRANCH  10  13
ATOM     13  O   UNL     1       7.498  -6.118  28.213  0.00  0.00    -0.295 OA
ATOM     14  H   UNL     1       6.599  -6.005  28.594  0.00  0.00    +0.241 HD
ENDBRANCH  10  13
ENDBRANCH   8   9
ENDBRANCH   1   2
BRANCH   1  15
ATOM     15  S   UNL     1       8.393  -2.952  24.760  0.00  0.00    +0.075 S 
ATOM     16  O   UNL     1       8.794  -2.924  26.154  0.00  0.00    -0.150 OA
ATOM     17  O   UNL     1       8.897  -3.993  23.883  0.00  0.00    -0.150 OA
BRANCH  15  21
ATOM     18  C   UNL     1       9.949   0.946  22.867  0.00  0.00    +0.120 A 
ATOM     19  C   UNL     1       9.649  -0.158  22.072  0.00  0.00    +0.047 A 
ATOM     20  C   UNL     1       9.198  -1.351  22.656  0.00  0.00    +0.032 A 
ATOM     21  C   UNL     1       8.951  -1.416  24.029  0.00  0.00    +0.109 A 
ATOM     22  C   UNL     1       9.303  -0.332  24.838  0.00  0.00    +0.032 A 
ATOM     23  C   UNL     1       9.799   0.842  24.253  0.00  0.00    +0.047 A 
BRANCH  18  25
ATOM     24  C   UNL     1      10.886   3.068  23.386  0.00  0.00    +0.277 C 
ATOM     25  O   UNL     1      10.376   2.163  22.413  0.00  0.00    -0.495 OA
ENDBRANCH  18  25
ENDBRANCH  15  21
ENDBRANCH   1  15
BRANCH   1  26
ATOM     26  C   UNL     1       5.978  -1.681  24.513  0.00  0.00    +0.168 C 
BRANCH  26  27
ATOM     27  C   UNL     1       5.682  -0.821  25.716  0.00  0.00    -0.010 A 
ATOM     28  C   UNL     1       5.259  -1.463  26.887  0.00  0.00    +0.116 A 
ATOM     29  N   UNL     1       5.021  -0.845  28.065  0.00  0.00    -0.263 NA
ATOM     30  C   UNL     1       5.197   0.491  28.085  0.00  0.00    +0.111 A 
ATOM     31  C   UNL     1       5.573   1.233  26.975  0.00  0.00    +0.020 A 
ATOM     32  C   UNL     1       5.809   0.564  25.774  0.00  0.00    +0.008 A 
ENDBRANCH  26  27
ENDBRANCH   1  26
TORSDOF 8
ENDMDL
MODEL 9
REMARK VINA RESULT:      -6.0      2.491      6.023
REMARK  Name = 
REMARK  10 active torsions:
REMARK  status: ('A' for Active; 'I' for Inactive)
REMARK    1  A    between atoms: C_1  and  O_2
REMARK    2  A    between atoms: O_2  and  C_3
REMARK    3  A    between atoms: C_6  and  S_9
REMARK    4  A    between atoms: S_9  and  N_12
REMARK    5  A    between atoms: N_12  and  C_13
REMARK    6  A    between atoms: N_12  and  C_20
REMARK    7  A    between atoms: C_13  and  C_14
REMARK    8  A    between atoms: C_21  and  C_27
REMARK    9  A    between atoms: C_25  and  C_26
REMARK   10  A    between atoms: N_29  and  O_30
REMARK                            x       y       z     vdW  Elec       q    Type
REMARK                         _______ _______ _______ _____ _____    ______ ____
ROOT
ATOM      1  N   UNL     1       8.022  -2.290  24.236  0.00  0.00    -0.198 N 
ENDROOT
BRANCH   1   2
ATOM      2  C   UNL     1       7.558  -3.070  25.381  0.00  0.00    +0.067 A 
ATOM      3  C   UNL     1       8.389  -4.145  25.812  0.00  0.00    -0.027 A 
ATOM      4  C   UNL     1       9.771  -4.398  25.262  0.00  0.00    +0.046 C 
ATOM      5  C   UNL     1       7.940  -5.035  26.807  0.00  0.00    +0.005 A 
ATOM      6  C   UNL     1       6.722  -4.844  27.437  0.00  0.00    +0.001 A 
ATOM      7  C   UNL     1       5.932  -3.759  27.082  0.00  0.00    +0.015 A 
ATOM      8  C   UNL     1       6.313  -2.879  26.042  0.00  0.00    +0.061 A 
BRANCH   8   9
ATOM      9  C   UNL     1       5.329  -1.785  25.730  0.00  0.00    +0.268 C 
ATOM     10  N   UNL     1       5.787  -0.490  25.888  0.00  0.00    -0.193 N 
ATOM     11  H   UNL     1       6.561  -0.268  26.493  0.00  0.00    +0.183 HD
ATOM     12  O   UNL     1       4.168  -1.978  25.386  0.00  0.00    -0.268 OA
BRANCH  10  13
ATOM     13  O   UNL     1       4.791   0.519  25.780  0.00  0.00    -0.295 OA
ATOM     14  H   UNL     1       5.264   1.307  26.130  0.00  0.00    +0.241 HD
ENDBRANCH  10  13
ENDBRANCH   8   9
ENDBRANCH   1   2
BRANCH   1  15
ATOM     15  S   UNL     1       9.151  -1.029  24.528  0.00  0.00    +0.075 S 
ATOM     16  O   UNL     1       9.148  -0.765  25.955  0.00  0.00    -0.150 OA
ATOM     17  O   UNL     1      10.396  -1.353  23.856  0.00  0.00    -0.150 OA
BRANCH  15  21
ATOM     18  C   UNL     1       7.565   2.824  22.572  0.00  0.00    +0.120 A 
ATOM     19  C   UNL     1       8.649   2.867  23.445  0.00  0.00    +0.047 A 
ATOM     20  C   UNL     1       9.114   1.694  24.057  0.00  0.00    +0.032 A 
ATOM     21  C   UNL     1       8.559   0.456  23.724  0.00  0.00    +0.109 A 
ATOM     22  C   UNL     1       7.436   0.413  22.893  0.00  0.00    +0.032 A 
ATOM     23  C   UNL     1       6.946   1.597  22.322  0.00  0.00    +0.047 A 
BRANCH  18  25
ATOM     24  C   UNL     1       6.878   5.099  22.647  0.00  0.00    +0.277 C 
ATOM     25  O   UNL     1       7.037   3.894  21.904  0.00  0.00    -0.495 OA
ENDBRANCH  18  25
ENDBRANCH  15  21
ENDBRANCH   1  15
BRANCH   1  26
ATOM     26  C   UNL     1       8.069  -2.954  22.905  0.00  0.00    +0.168 C 
BRANCH  26  27
ATOM     27  C   UNL     1       7.111  -4.085  22.627  0.00  0.00    -0.010 A 
ATOM     28  C   UNL     1       5.752  -3.770  22.503  0.00  0.00    +0.116 A 
ATOM     29  N   UNL     1       4.778  -4.654  22.188  0.00  0.00    -0.263 NA
ATOM     30  C   UNL     1       5.169  -5.929  21.998  0.00  0.00    +0.111 A 
ATOM     31  C   UNL     1       6.481  -6.360  22.136  0.00  0.00    +0.020 A 
ATOM     32  C   UNL     1       7.460  -5.423  22.464  0.00  0.00    +0.008 A 
ENDBRANCH  26  27
ENDBRANCH   1  26
TORSDOF 8
ENDMDL
