MODEL 1
REMARK VINA RESULT:      -6.4      0.000      0.000
REMARK  Name = 
REMARK  9 active torsions:
REMARK  status: ('A' for Active; 'I' for Inactive)
REMARK    1  A    between atoms: C_2  and  C_3
REMARK    2  A    between atoms: C_2  and  N_7
REMARK    3  A    between atoms: C_2  and  C_19
REMARK    4  A    between atoms: C_3  and  C_4
REMARK    5  A    between atoms: C_4  and  S_5
REMARK    6  A    between atoms: S_5  and  C_6
REMARK    7  A    between atoms: C_8  and  C_10
REMARK    8  A    between atoms: C_14  and  C_16
REMARK    9  A    between atoms: N_21  and  C_22
REMARK                            x       y       z     vdW  Elec       q    Type
REMARK                         _______ _______ _______ _____ _____    ______ ____
ROOT
ATOM      1  C   UNL     1       9.803   0.678  22.399  0.00  0.00    +0.160 C 
ENDROOT
BRANCH   1   2
ATOM      2  C   UNL     1      10.326   1.780  23.342  0.00  0.00    +0.238 C 
ATOM      3  N   UNL     1      10.478   3.015  22.727  0.00  0.00    -0.284 N 
ATOM      4  H   UNL     1      10.363   3.029  21.711  0.00  0.00    +0.155 HD
ATOM      5  O   UNL     1      10.627   1.517  24.506  0.00  0.00    -0.273 OA
BRANCH   3   6
ATOM      6  C   UNL     1      10.885   4.218  23.347  0.00  0.00    +0.036 A 
ATOM      7  C   UNL     1       9.922   4.983  24.006  0.00  0.00    +0.043 A 
ATOM      8  C   UNL     1      10.318   6.168  24.612  0.00  0.00    +0.112 A 
ATOM      9  N   UNL     1      11.585   6.633  24.606  0.00  0.00    -0.263 NA
ATOM     10  C   UNL     1      12.497   5.873  23.969  0.00  0.00    +0.112 A 
ATOM     11  C   UNL     1      12.200   4.675  23.343  0.00  0.00    +0.043 A 
ENDBRANCH   3   6
ENDBRANCH   1   2
BRANCH   1  12
ATOM     12  N   UNL     1       9.324  -0.420  23.240  0.00  0.00    -0.304 N 
ATOM     13  H   UNL     1       8.887  -0.168  24.119  0.00  0.00    +0.149 HD
ATOM     14  C   UNL     1       9.856  -1.683  23.130  0.00  0.00    +0.217 C 
ATOM     15  O   UNL     1      10.765  -1.923  22.337  0.00  0.00    -0.275 OA
BRANCH  14  16
ATOM     16  C   UNL     1       9.268  -2.712  24.103  0.00  0.00    +0.075 C 
ATOM     17  C   UNL     1       8.747  -2.036  25.382  0.00  0.00    +0.013 C 
ATOM     18  C   UNL     1       7.988  -3.000  26.296  0.00  0.00    +0.004 C 
ATOM     19  C   UNL     1       6.865  -3.753  25.574  0.00  0.00    -0.014 C 
ATOM     20  C   UNL     1       5.700  -2.825  25.218  0.00  0.00    +0.007 C 
ATOM     21  C   UNL     1       7.429  -4.464  24.339  0.00  0.00    +0.004 C 
ATOM     22  C   UNL     1       8.166  -3.518  23.399  0.00  0.00    +0.013 C 
ENDBRANCH  14  16
ENDBRANCH   1  12
BRANCH   1  23
ATOM     23  C   UNL     1       8.652   1.186  21.522  0.00  0.00    +0.042 C 
BRANCH  23  24
ATOM     24  C   UNL     1       7.329   1.280  22.282  0.00  0.00    +0.071 C 
BRANCH  24  25
ATOM     25  S   UNL     1       6.736   3.003  22.247  0.00  0.00    -0.164 S 
ATOM     26  C   UNL     1       5.296   2.825  23.326  0.00  0.00    +0.084 C 
ENDBRANCH  24  25
ENDBRANCH  23  24
ENDBRANCH   1  23
TORSDOF 7
ENDMDL
MODEL 2
REMARK VINA RESULT:      -6.0      3.855      8.836
REMARK  Name = 
REMARK  9 active torsions:
REMARK  status: ('A' for Active; 'I' for Inactive)
REMARK    1  A    between atoms: C_2  and  C_3
REMARK    2  A    between atoms: C_2  and  N_7
REMARK    3  A    between atoms: C_2  and  C_19
REMARK    4  A    between atoms: C_3  and  C_4
REMARK    5  A    between atoms: C_4  and  S_5
REMARK    6  A    between atoms: S_5  and  C_6
REMARK    7  A    between atoms: C_8  and  C_10
REMARK    8  A    between atoms: C_14  and  C_16
REMARK    9  A    between atoms: N_21  and  C_22
REMARK                            x       y       z     vdW  Elec       q    Type
REMARK                         _______ _______ _______ _____ _____    ______ ____
ROOT
ATOM      1  C   UNL     1       8.311  -3.810  23.790  0.00  0.00    +0.160 C 
ENDROOT
BRANCH   1   2
ATOM      2  C   UNL     1       6.787  -4.040  23.834  0.00  0.00    +0.238 C 
ATOM      3  N   UNL     1       6.423  -5.378  23.768  0.00  0.00    -0.284 N 
ATOM      4  H   UNL     1       7.174  -6.039  23.563  0.00  0.00    +0.155 HD
ATOM      5  O   UNL     1       6.010  -3.085  23.858  0.00  0.00    -0.273 OA
BRANCH   3   6
ATOM      6  C   UNL     1       5.109  -5.895  23.841  0.00  0.00    +0.036 A 
ATOM      7  C   UNL     1       4.780  -6.722  24.914  0.00  0.00    +0.043 A 
ATOM      8  C   UNL     1       3.492  -7.235  24.986  0.00  0.00    +0.112 A 
ATOM      9  N   UNL     1       2.528  -6.984  24.076  0.00  0.00    -0.263 NA
ATOM     10  C   UNL     1       2.867  -6.177  23.052  0.00  0.00    +0.112 A 
ATOM     11  C   UNL     1       4.122  -5.612  22.900  0.00  0.00    +0.043 A 
ENDBRANCH   3   6
ENDBRANCH   1   2
BRANCH   1  12
ATOM     12  N   UNL     1       8.534  -2.366  23.871  0.00  0.00    -0.304 N 
ATOM     13  H   UNL     1       7.713  -1.780  23.972  0.00  0.00    +0.149 HD
ATOM     14  C   UNL     1       9.668  -1.792  23.347  0.00  0.00    +0.217 C 
ATOM     15  O   UNL     1      10.518  -2.472  22.775  0.00  0.00    -0.275 OA
BRANCH  14  16
ATOM     16  C   UNL     1       9.735  -0.267  23.483  0.00  0.00    +0.075 C 
ATOM     17  C   UNL     1      10.029   0.404  22.131  0.00  0.00    +0.013 C 
ATOM     18  C   UNL     1       9.921   1.928  22.187  0.00  0.00    +0.004 C 
ATOM     19  C   UNL     1       8.587   2.414  22.763  0.00  0.00    -0.014 C 
ATOM     20  C   UNL     1       7.424   2.147  21.802  0.00  0.00    +0.007 C 
ATOM     21  C   UNL     1       8.352   1.776  24.136  0.00  0.00    +0.004 C 
ATOM     22  C   UNL     1       8.428   0.254  24.100  0.00  0.00    +0.013 C 
ENDBRANCH  14  16
ENDBRANCH   1  12
BRANCH   1  23
ATOM     23  C   UNL     1       9.019  -4.500  24.964  0.00  0.00    +0.042 C 
BRANCH  23  24
ATOM     24  C   UNL     1       8.569  -3.961  26.322  0.00  0.00    +0.071 C 
BRANCH  24  25
ATOM     25  S   UNL     1       7.563  -5.225  27.167  0.00  0.00    -0.164 S 
ATOM     26  C   UNL     1       6.067  -4.249  27.448  0.00  0.00    +0.084 C 
ENDBRANCH  24  25
ENDBRANCH  23  24
ENDBRANCH   1  23
TORSDOF 7
ENDMDL
MODEL 3
REMARK VINA RESULT:      -6.0      3.465      8.413
REMARK  Name = 
REMARK  9 active torsions:
REMARK  status: ('A' for Active; 'I' for Inactive)
REMARK    1  A    between atoms: C_2  and  C_3
REMARK    2  A    between atoms: C_2  and  N_7
REMARK    3  A    between atoms: C_2  and  C_19
REMARK    4  A    between atoms: C_3  and  C_4
REMARK    5  A    between atoms: C_4  and  S_5
REMARK    6  A    between atoms: S_5  and  C_6
REMARK    7  A    between atoms: C_8  and  C_10
REMARK    8  A    between atoms: C_14  and  C_16
REMARK    9  A    between atoms: N_21  and  C_22
REMARK                            x       y       z     vdW  Elec       q    Type
REMARK                         _______ _______ _______ _____ _____    ______ ____
ROOT
ATOM      1  C   UNL     1       8.735  -3.630  24.593  0.00  0.00    +0.160 C 
ENDROOT
BRANCH   1   2
ATOM      2  C   UNL     1       7.716  -4.661  24.073  0.00  0.00    +0.238 C 
ATOM      3  N   UNL     1       6.486  -4.603  24.715  0.00  0.00    -0.284 N 
ATOM      4  H   UNL     1       6.435  -3.995  25.534  0.00  0.00    +0.155 HD
ATOM      5  O   UNL     1       8.037  -5.481  23.212  0.00  0.00    -0.273 OA
BRANCH   3   6
ATOM      6  C   UNL     1       5.346  -5.384  24.417  0.00  0.00    +0.036 A 
ATOM      7  C   UNL     1       5.024  -6.440  25.270  0.00  0.00    +0.043 A 
ATOM      8  C   UNL     1       3.907  -7.212  24.977  0.00  0.00    +0.112 A 
ATOM      9  N   UNL     1       3.106  -7.006  23.911  0.00  0.00    -0.263 NA
ATOM     10  C   UNL     1       3.433  -5.977  23.106  0.00  0.00    +0.112 A 
ATOM     11  C   UNL     1       4.521  -5.147  23.320  0.00  0.00    +0.043 A 
ENDBRANCH   3   6
ENDBRANCH   1   2
BRANCH   1  12
ATOM     12  N   UNL     1       8.511  -2.388  23.853  0.00  0.00    -0.304 N 
ATOM     13  H   UNL     1       7.548  -2.130  23.669  0.00  0.00    +0.149 HD
ATOM     14  C   UNL     1       9.480  -1.867  23.028  0.00  0.00    +0.217 C 
ATOM     15  O   UNL     1      10.556  -2.442  22.870  0.00  0.00    -0.275 OA
BRANCH  14  16
ATOM     16  C   UNL     1       9.077  -0.580  22.300  0.00  0.00    +0.075 C 
ATOM     17  C   UNL     1       7.727  -0.048  22.810  0.00  0.00    +0.013 C 
ATOM     18  C   UNL     1       7.379   1.329  22.243  0.00  0.00    +0.004 C 
ATOM     19  C   UNL     1       8.491   2.363  22.451  0.00  0.00    -0.014 C 
ATOM     20  C   UNL     1       8.627   2.759  23.924  0.00  0.00    +0.007 C 
ATOM     21  C   UNL     1       9.808   1.828  21.878  0.00  0.00    +0.004 C 
ATOM     22  C   UNL     1      10.191   0.468  22.449  0.00  0.00    +0.013 C 
ENDBRANCH  14  16
ENDBRANCH   1  12
BRANCH   1  23
ATOM     23  C   UNL     1       8.555  -3.366  26.094  0.00  0.00    +0.042 C 
BRANCH  23  24
ATOM     24  C   UNL     1       8.412  -1.879  26.418  0.00  0.00    +0.071 C 
BRANCH  24  25
ATOM     25  S   UNL     1       6.663  -1.506  26.771  0.00  0.00    -0.164 S 
ATOM     26  C   UNL     1       6.677   0.266  26.408  0.00  0.00    +0.084 C 
ENDBRANCH  24  25
ENDBRANCH  23  24
ENDBRANCH   1  23
TORSDOF 7
ENDMDL
MODEL 4
REMARK VINA RESULT:      -5.9      3.795      8.416
REMARK  Name = 
REMARK  9 active torsions:
REMARK  status: ('A' for Active; 'I' for Inactive)
REMARK    1  A    between atoms: C_2  and  C_3
REMARK    2  A    between atoms: C_2  and  N_7
REMARK    3  A    between atoms: C_2  and  C_19
REMARK    4  A    between atoms: C_3  and  C_4
REMARK    5  A    between atoms: C_4  and  S_5
REMARK    6  A    between atoms: S_5  and  C_6
REMARK    7  A    between atoms: C_8  and  C_10
REMARK    8  A    between atoms: C_14  and  C_16
REMARK    9  A    between atoms: N_21  and  C_22
REMARK                            x       y       z     vdW  Elec       q    Type
REMARK                         _______ _______ _______ _____ _____    ______ ____
ROOT
ATOM      1  C   UNL     1       7.517  -3.781  24.372  0.00  0.00    +0.160 C 
ENDROOT
BRANCH   1   2
ATOM      2  C   UNL     1       7.362  -3.895  25.902  0.00  0.00    +0.238 C 
ATOM      3  N   UNL     1       6.183  -4.513  26.298  0.00  0.00    -0.284 N 
ATOM      4  H   UNL     1       5.501  -4.695  25.560  0.00  0.00    +0.155 HD
ATOM      5  O   UNL     1       8.204  -3.407  26.655  0.00  0.00    -0.273 OA
BRANCH   3   6
ATOM      6  C   UNL     1       5.793  -4.804  27.625  0.00  0.00    +0.036 A 
ATOM      7  C   UNL     1       4.858  -3.972  28.239  0.00  0.00    +0.043 A 
ATOM      8  C   UNL     1       4.477  -4.253  29.545  0.00  0.00    +0.112 A 
ATOM      9  N   UNL     1       4.957  -5.288  30.266  0.00  0.00    -0.263 NA
ATOM     10  C   UNL     1       5.854  -6.081  29.649  0.00  0.00    +0.112 A 
ATOM     11  C   UNL     1       6.289  -5.886  28.348  0.00  0.00    +0.043 A 
ENDBRANCH   3   6
ENDBRANCH   1   2
BRANCH   1  12
ATOM     12  N   UNL     1       8.522  -2.750  24.115  0.00  0.00    -0.304 N 
ATOM     13  H   UNL     1       9.159  -2.530  24.872  0.00  0.00    +0.149 HD
ATOM     14  C   UNL     1       8.326  -1.792  23.147  0.00  0.00    +0.217 C 
ATOM     15  O   UNL     1       7.291  -1.761  22.485  0.00  0.00    -0.275 OA
BRANCH  14  16
ATOM     16  C   UNL     1       9.457  -0.765  23.025  0.00  0.00    +0.075 C 
ATOM     17  C   UNL     1       9.040   0.423  22.142  0.00  0.00    +0.013 C 
ATOM     18  C   UNL     1      10.069   1.555  22.144  0.00  0.00    +0.004 C 
ATOM     19  C   UNL     1      10.443   2.023  23.555  0.00  0.00    -0.014 C 
ATOM     20  C   UNL     1       9.290   2.773  24.228  0.00  0.00    +0.007 C 
ATOM     21  C   UNL     1      10.912   0.826  24.390  0.00  0.00    +0.004 C 
ATOM     22  C   UNL     1       9.890  -0.305  24.425  0.00  0.00    +0.013 C 
ENDBRANCH  14  16
ENDBRANCH   1  12
BRANCH   1  23
ATOM     23  C   UNL     1       7.979  -5.107  23.752  0.00  0.00    +0.042 C 
BRANCH  23  24
ATOM     24  C   UNL     1       7.249  -5.433  22.450  0.00  0.00    +0.071 C 
BRANCH  24  25
ATOM     25  S   UNL     1       5.494  -4.968  22.611  0.00  0.00    -0.164 S 
ATOM     26  C   UNL     1       4.917  -6.387  23.573  0.00  0.00    +0.084 C 
ENDBRANCH  24  25
ENDBRANCH  23  24
ENDBRANCH   1  23
TORSDOF 7
ENDMDL
MODEL 5
REMARK VINA RESULT:      -5.9      3.185      5.215
REMARK  Name = 
REMARK  9 active torsions:
REMARK  status: ('A' for Active; 'I' for Inactive)
REMARK    1  A    between atoms: C_2  and  C_3
REMARK    2  A    between atoms: C_2  and  N_7
REMARK    3  A    between atoms: C_2  and  C_19
REMARK    4  A    between atoms: C_3  and  C_4
REMARK    5  A    between atoms: C_4  and  S_5
REMARK    6  A    between atoms: S_5  and  C_6
REMARK    7  A    between atoms: C_8  and  C_10
REMARK    8  A    between atoms: C_14  and  C_16
REMARK    9  A    between atoms: N_21  and  C_22
REMARK                            x       y       z     vdW  Elec       q    Type
REMARK                         _______ _______ _______ _____ _____    ______ ____
ROOT
ATOM      1  C   UNL     1       8.004  -3.743  23.587  0.00  0.00    +0.160 C 
ENDROOT
BRANCH   1   2
ATOM      2  C   UNL     1       9.040  -2.602  23.570  0.00  0.00    +0.238 C 
ATOM      3  N   UNL     1       8.493  -1.358  23.285  0.00  0.00    -0.284 N 
ATOM      4  H   UNL     1       7.516  -1.352  22.989  0.00  0.00    +0.155 HD
ATOM      5  O   UNL     1      10.236  -2.839  23.734  0.00  0.00    -0.273 OA
BRANCH   3   6
ATOM      6  C   UNL     1       9.185  -0.125  23.253  0.00  0.00    +0.036 A 
ATOM      7  C   UNL     1       9.329   0.523  22.026  0.00  0.00    +0.043 A 
ATOM      8  C   UNL     1      10.012   1.732  21.991  0.00  0.00    +0.112 A 
ATOM      9  N   UNL     1      10.551   2.326  23.077  0.00  0.00    -0.263 NA
ATOM     10  C   UNL     1      10.393   1.685  24.250  0.00  0.00    +0.112 A 
ATOM     11  C   UNL     1       9.722   0.481  24.386  0.00  0.00    +0.043 A 
ENDBRANCH   3   6
ENDBRANCH   1   2
BRANCH   1  12
ATOM     12  N   UNL     1       7.317  -3.684  24.878  0.00  0.00    -0.304 N 
ATOM     13  H   UNL     1       6.909  -2.794  25.141  0.00  0.00    +0.149 HD
ATOM     14  C   UNL     1       7.619  -4.571  25.885  0.00  0.00    +0.217 C 
ATOM     15  O   UNL     1       8.491  -5.426  25.739  0.00  0.00    -0.275 OA
BRANCH  14  16
ATOM     16  C   UNL     1       6.834  -4.355  27.184  0.00  0.00    +0.075 C 
ATOM     17  C   UNL     1       5.546  -3.554  26.933  0.00  0.00    +0.013 C 
ATOM     18  C   UNL     1       4.644  -3.477  28.166  0.00  0.00    +0.004 C 
ATOM     19  C   UNL     1       4.329  -4.851  28.766  0.00  0.00    -0.014 C 
ATOM     20  C   UNL     1       3.396  -5.663  27.863  0.00  0.00    +0.007 C 
ATOM     21  C   UNL     1       5.634  -5.599  29.061  0.00  0.00    +0.004 C 
ATOM     22  C   UNL     1       6.538  -5.713  27.839  0.00  0.00    +0.013 C 
ENDBRANCH  14  16
ENDBRANCH   1  12
BRANCH   1  23
ATOM     23  C   UNL     1       6.977  -3.590  22.457  0.00  0.00    +0.042 C 
BRANCH  23  24
ATOM     24  C   UNL     1       5.550  -3.894  22.913  0.00  0.00    +0.071 C 
BRANCH  24  25
ATOM     25  S   UNL     1       5.180  -5.651  22.598  0.00  0.00    -0.164 S 
ATOM     26  C   UNL     1       6.153  -5.875  21.090  0.00  0.00    +0.084 C 
ENDBRANCH  24  25
ENDBRANCH  23  24
ENDBRANCH   1  23
TORSDOF 7
ENDMDL
MODEL 6
REMARK VINA RESULT:      -5.6      3.667      5.846
REMARK  Name = 
REMARK  9 active torsions:
REMARK  status: ('A' for Active; 'I' for Inactive)
REMARK    1  A    between atoms: C_2  and  C_3
REMARK    2  A    between atoms: C_2  and  N_7
REMARK    3  A    between atoms: C_2  and  C_19
REMARK    4  A    between atoms: C_3  and  C_4
REMARK    5  A    between atoms: C_4  and  S_5
REMARK    6  A    between atoms: S_5  and  C_6
REMARK    7  A    between atoms: C_8  and  C_10
REMARK    8  A    between atoms: C_14  and  C_16
REMARK    9  A    between atoms: N_21  and  C_22
REMARK                            x       y       z     vdW  Elec       q    Type
REMARK                         _______ _______ _______ _____ _____    ______ ____
ROOT
ATOM      1  C   UNL     1       8.188  -4.056  25.395  0.00  0.00    +0.160 C 
ENDROOT
BRANCH   1   2
ATOM      2  C   UNL     1       8.285  -2.559  25.043  0.00  0.00    +0.238 C 
ATOM      3  N   UNL     1       9.407  -2.235  24.292  0.00  0.00    -0.284 N 
ATOM      4  H   UNL     1      10.100  -2.977  24.175  0.00  0.00    +0.155 HD
ATOM      5  O   UNL     1       7.453  -1.759  25.470  0.00  0.00    -0.273 OA
BRANCH   3   6
ATOM      6  C   UNL     1       9.734  -0.959  23.778  0.00  0.00    +0.036 A 
ATOM      7  C   UNL     1      10.318  -0.028  24.637  0.00  0.00    +0.043 A 
ATOM      8  C   UNL     1      10.635   1.228  24.137  0.00  0.00    +0.112 A 
ATOM      9  N   UNL     1      10.413   1.611  22.862  0.00  0.00    -0.263 NA
ATOM     10  C   UNL     1       9.854   0.693  22.051  0.00  0.00    +0.112 A 
ATOM     11  C   UNL     1       9.510  -0.586  22.456  0.00  0.00    +0.043 A 
ENDBRANCH   3   6
ENDBRANCH   1   2
BRANCH   1  12
ATOM     12  N   UNL     1       6.898  -4.263  26.054  0.00  0.00    -0.304 N 
ATOM     13  H   UNL     1       6.211  -3.522  25.963  0.00  0.00    +0.149 HD
ATOM     14  C   UNL     1       6.775  -5.120  27.123  0.00  0.00    +0.217 C 
ATOM     15  O   UNL     1       7.749  -5.721  27.570  0.00  0.00    -0.275 OA
BRANCH  14  16
ATOM     16  C   UNL     1       5.365  -5.199  27.720  0.00  0.00    +0.075 C 
ATOM     17  C   UNL     1       4.319  -4.599  26.766  0.00  0.00    +0.013 C 
ATOM     18  C   UNL     1       2.883  -4.825  27.241  0.00  0.00    +0.004 C 
ATOM     19  C   UNL     1       2.574  -6.296  27.541  0.00  0.00    -0.014 C 
ATOM     20  C   UNL     1       2.516  -7.134  26.260  0.00  0.00    +0.007 C 
ATOM     21  C   UNL     1       3.597  -6.846  28.540  0.00  0.00    +0.004 C 
ATOM     22  C   UNL     1       5.037  -6.658  28.075  0.00  0.00    +0.013 C 
ENDBRANCH  14  16
ENDBRANCH   1  12
BRANCH   1  23
ATOM     23  C   UNL     1       8.264  -4.937  24.141  0.00  0.00    +0.042 C 
BRANCH  23  24
ATOM     24  C   UNL     1       6.888  -5.241  23.549  0.00  0.00    +0.071 C 
BRANCH  24  25
ATOM     25  S   UNL     1       6.703  -4.350  21.969  0.00  0.00    -0.164 S 
ATOM     26  C   UNL     1       5.584  -3.039  22.517  0.00  0.00    +0.084 C 
ENDBRANCH  24  25
ENDBRANCH  23  24
ENDBRANCH   1  23
TORSDOF 7
ENDMDL
MODEL 7
REMARK VINA RESULT:      -5.6      2.735      7.534
REMARK  Name = 
REMARK  9 active torsions:
REMARK  status: ('A' for Active; 'I' for Inactive)
REMARK    1  A    between atoms: C_2  and  C_3
REMARK    2  A    between atoms: C_2  and  N_7
REMARK    3  A    between atoms: C_2  and  C_19
REMARK    4  A    between atoms: C_3  and  C_4
REMARK    5  A    between atoms: C_4  and  S_5
REMARK    6  A    between atoms: S_5  and  C_6
REMARK    7  A    between atoms: C_8  and  C_10
REMARK    8  A    between atoms: C_14  and  C_16
REMARK    9  A    between atoms: N_21  and  C_22
REMARK                            x       y       z     vdW  Elec       q    Type
REMARK                         _______ _______ _______ _____ _____    ______ ____
ROOT
ATOM      1  C   UNL     1       9.416  -1.320  25.292  0.00  0.00    +0.160 C 
ENDROOT
BRANCH   1   2
ATOM      2  C   UNL     1       9.032  -2.565  24.467  0.00  0.00    +0.238 C 
ATOM      3  N   UNL     1       7.663  -2.726  24.307  0.00  0.00    -0.284 N 
ATOM      4  H   UNL     1       7.068  -2.100  24.852  0.00  0.00    +0.155 HD
ATOM      5  O   UNL     1       9.898  -3.344  24.070  0.00  0.00    -0.273 OA
BRANCH   3   6
ATOM      6  C   UNL     1       7.019  -3.739  23.558  0.00  0.00    +0.036 A 
ATOM      7  C   UNL     1       6.387  -4.773  24.248  0.00  0.00    +0.043 A 
ATOM      8  C   UNL     1       5.759  -5.771  23.516  0.00  0.00    +0.112 A 
ATOM      9  N   UNL     1       5.718  -5.807  22.167  0.00  0.00    -0.263 NA
ATOM     10  C   UNL     1       6.329  -4.794  21.524  0.00  0.00    +0.112 A 
ATOM     11  C   UNL     1       6.975  -3.751  22.166  0.00  0.00    +0.043 A 
ENDBRANCH   3   6
ENDBRANCH   1   2
BRANCH   1  12
ATOM     12  N   UNL     1       9.046  -0.146  24.501  0.00  0.00    -0.304 N 
ATOM     13  H   UNL     1       8.242  -0.239  23.890  0.00  0.00    +0.149 HD
ATOM     14  C   UNL     1       9.969   0.828  24.200  0.00  0.00    +0.217 C 
ATOM     15  O   UNL     1      11.138   0.730  24.567  0.00  0.00    -0.275 OA
BRANCH  14  16
ATOM     16  C   UNL     1       9.431   1.975  23.337  0.00  0.00    +0.075 C 
ATOM     17  C   UNL     1       8.106   1.589  22.657  0.00  0.00    +0.013 C 
ATOM     18  C   UNL     1       7.443   2.765  21.937  0.00  0.00    +0.004 C 
ATOM     19  C   UNL     1       7.262   3.993  22.836  0.00  0.00    -0.014 C 
ATOM     20  C   UNL     1       6.192   3.758  23.906  0.00  0.00    +0.007 C 
ATOM     21  C   UNL     1       8.610   4.388  23.450  0.00  0.00    +0.004 C 
ATOM     22  C   UNL     1       9.278   3.239  24.196  0.00  0.00    +0.013 C 
ENDBRANCH  14  16
ENDBRANCH   1  12
BRANCH   1  23
ATOM     23  C   UNL     1       8.674  -1.283  26.635  0.00  0.00    +0.042 C 
BRANCH  23  24
ATOM     24  C   UNL     1       7.802  -0.038  26.792  0.00  0.00    +0.071 C 
BRANCH  24  25
ATOM     25  S   UNL     1       6.047  -0.530  26.808  0.00  0.00    -0.164 S 
ATOM     26  C   UNL     1       5.498   0.341  25.322  0.00  0.00    +0.084 C 
ENDBRANCH  24  25
ENDBRANCH  23  24
ENDBRANCH   1  23
TORSDOF 7
ENDMDL
MODEL 8
REMARK VINA RESULT:      -5.5      3.272      7.649
REMARK  Name = 
REMARK  9 active torsions:
REMARK  status: ('A' for Active; 'I' for Inactive)
REMARK    1  A    between atoms: C_2  and  C_3
REMARK    2  A    between atoms: C_2  and  N_7
REMARK    3  A    between atoms: C_2  and  C_19
REMARK    4  A    between atoms: C_3  and  C_4
REMARK    5  A    between atoms: C_4  and  S_5
REMARK    6  A    between atoms: S_5  and  C_6
REMARK    7  A    between atoms: C_8  and  C_10
REMARK    8  A    between atoms: C_14  and  C_16
REMARK    9  A    between atoms: N_21  and  C_22
REMARK                            x       y       z     vdW  Elec       q    Type
REMARK                         _______ _______ _______ _____ _____    ______ ____
ROOT
ATOM      1  C   UNL     1       6.506  -1.318  26.297  0.00  0.00    +0.160 C 
ENDROOT
BRANCH   1   2
ATOM      2  C   UNL     1       6.281  -2.735  25.733  0.00  0.00    +0.238 C 
ATOM      3  N   UNL     1       6.486  -2.829  24.363  0.00  0.00    -0.284 N 
ATOM      4  H   UNL     1       6.625  -1.946  23.867  0.00  0.00    +0.155 HD
ATOM      5  O   UNL     1       5.890  -3.645  26.464  0.00  0.00    -0.273 OA
BRANCH   3   6
ATOM      6  C   UNL     1       6.408  -4.004  23.581  0.00  0.00    +0.036 A 
ATOM      7  C   UNL     1       5.146  -4.491  23.241  0.00  0.00    +0.043 A 
ATOM      8  C   UNL     1       5.065  -5.647  22.477  0.00  0.00    +0.112 A 
ATOM      9  N   UNL     1       6.138  -6.340  22.039  0.00  0.00    -0.263 NA
ATOM     10  C   UNL     1       7.345  -5.846  22.375  0.00  0.00    +0.112 A 
ATOM     11  C   UNL     1       7.526  -4.697  23.126  0.00  0.00    +0.043 A 
ENDBRANCH   3   6
ENDBRANCH   1   2
BRANCH   1  12
ATOM     12  N   UNL     1       7.442  -0.639  25.400  0.00  0.00    -0.304 N 
ATOM     13  H   UNL     1       7.240  -0.682  24.407  0.00  0.00    +0.149 HD
ATOM     14  C   UNL     1       8.743  -0.402  25.778  0.00  0.00    +0.217 C 
ATOM     15  O   UNL     1       9.165  -0.773  26.871  0.00  0.00    -0.275 OA
BRANCH  14  16
ATOM     16  C   UNL     1       9.602   0.289  24.713  0.00  0.00    +0.075 C 
ATOM     17  C   UNL     1       9.442  -0.387  23.340  0.00  0.00    +0.013 C 
ATOM     18  C   UNL     1      10.137   0.383  22.215  0.00  0.00    +0.004 C 
ATOM     19  C   UNL     1       9.726   1.858  22.154  0.00  0.00    -0.014 C 
ATOM     20  C   UNL     1       8.281   2.023  21.674  0.00  0.00    +0.007 C 
ATOM     21  C   UNL     1       9.954   2.516  23.519  0.00  0.00    +0.004 C 
ATOM     22  C   UNL     1       9.249   1.783  24.654  0.00  0.00    +0.013 C 
ENDBRANCH  14  16
ENDBRANCH   1  12
BRANCH   1  23
ATOM     23  C   UNL     1       5.195  -0.522  26.361  0.00  0.00    +0.042 C 
BRANCH  23  24
ATOM     24  C   UNL     1       5.310   0.855  25.706  0.00  0.00    +0.071 C 
BRANCH  24  25
ATOM     25  S   UNL     1       5.096   2.144  26.977  0.00  0.00    -0.164 S 
ATOM     26  C   UNL     1       6.827   2.353  27.457  0.00  0.00    +0.084 C 
ENDBRANCH  24  25
ENDBRANCH  23  24
ENDBRANCH   1  23
TORSDOF 7
ENDMDL
MODEL 9
REMARK VINA RESULT:      -5.5      3.372      4.478
REMARK  Name = 
REMARK  9 active torsions:
REMARK  status: ('A' for Active; 'I' for Inactive)
REMARK    1  A    between atoms: C_2  and  C_3
REMARK    2  A    between atoms: C_2  and  N_7
REMARK    3  A    between atoms: C_2  and  C_19
REMARK    4  A    between atoms: C_3  and  C_4
REMARK    5  A    between atoms: C_4  and  S_5
REMARK    6  A    between atoms: S_5  and  C_6
REMARK    7  A    between atoms: C_8  and  C_10
REMARK    8  A    between atoms: C_14  and  C_16
REMARK    9  A    between atoms: N_21  and  C_22
REMARK                            x       y       z     vdW  Elec       q    Type
REMARK                         _______ _______ _______ _____ _____    ______ ____
ROOT
ATOM      1  C   UNL     1       9.621  -1.363  24.446  0.00  0.00    +0.160 C 
ENDROOT
BRANCH   1   2
ATOM      2  C   UNL     1       8.935  -0.523  25.541  0.00  0.00    +0.238 C 
ATOM      3  N   UNL     1       7.999   0.377  25.049  0.00  0.00    -0.284 N 
ATOM      4  H   UNL     1       7.966   0.482  24.034  0.00  0.00    +0.155 HD
ATOM      5  O   UNL     1       9.273  -0.634  26.720  0.00  0.00    -0.273 OA
BRANCH   3   6
ATOM      6  C   UNL     1       7.179   1.238  25.815  0.00  0.00    +0.036 A 
ATOM      7  C   UNL     1       7.547   2.578  25.927  0.00  0.00    +0.043 A 
ATOM      8  C   UNL     1       6.746   3.425  26.682  0.00  0.00    +0.112 A 
ATOM      9  N   UNL     1       5.624   3.032  27.322  0.00  0.00    -0.263 NA
ATOM     10  C   UNL     1       5.287   1.734  27.193  0.00  0.00    +0.112 A 
ATOM     11  C   UNL     1       6.017   0.817  26.456  0.00  0.00    +0.043 A 
ENDBRANCH   3   6
ENDBRANCH   1   2
BRANCH   1  12
ATOM     12  N   UNL     1       8.562  -2.023  23.681  0.00  0.00    -0.304 N 
ATOM     13  H   UNL     1       7.720  -1.486  23.505  0.00  0.00    +0.149 HD
ATOM     14  C   UNL     1       8.468  -3.394  23.635  0.00  0.00    +0.217 C 
ATOM     15  O   UNL     1       9.256  -4.106  24.253  0.00  0.00    -0.275 OA
BRANCH  14  16
ATOM     16  C   UNL     1       7.286  -3.927  22.817  0.00  0.00    +0.075 C 
ATOM     17  C   UNL     1       7.423  -5.436  22.553  0.00  0.00    +0.013 C 
ATOM     18  C   UNL     1       6.178  -6.041  21.903  0.00  0.00    +0.004 C 
ATOM     19  C   UNL     1       4.889  -5.732  22.672  0.00  0.00    -0.014 C 
ATOM     20  C   UNL     1       4.829  -6.486  24.004  0.00  0.00    +0.007 C 
ATOM     21  C   UNL     1       4.751  -4.218  22.865  0.00  0.00    +0.004 C 
ATOM     22  C   UNL     1       5.969  -3.596  23.537  0.00  0.00    +0.013 C 
ENDBRANCH  14  16
ENDBRANCH   1  12
BRANCH   1  23
ATOM     23  C   UNL     1      10.458  -0.487  23.505  0.00  0.00    +0.042 C 
BRANCH  23  24
ATOM     24  C   UNL     1       9.749  -0.200  22.182  0.00  0.00    +0.071 C 
BRANCH  24  25
ATOM     25  S   UNL     1       9.649   1.603  21.933  0.00  0.00    -0.164 S 
ATOM     26  C   UNL     1       7.859   1.758  21.726  0.00  0.00    +0.084 C 
ENDBRANCH  24  25
ENDBRANCH  23  24
ENDBRANCH   1  23
TORSDOF 7
ENDMDL
