MODEL 1
REMARK VINA RESULT:      -5.6      0.000      0.000
REMARK  Name = 
REMARK  6 active torsions:
REMARK  status: ('A' for Active; 'I' for Inactive)
REMARK    1  A    between atoms: O_1  and  C_2
REMARK    2  A    between atoms: C_2  and  C_4
REMARK    3  A    between atoms: C_4  and  C_5
REMARK    4  A    between atoms: C_5  and  C_6
REMARK    5  A    between atoms: C_6  and  N_7
REMARK    6  A    between atoms: N_10  and  C_11
REMARK                            x       y       z     vdW  Elec       q    Type
REMARK                         _______ _______ _______ _____ _____    ______ ____
ROOT
ATOM      1  N   UNL     1       7.965  -3.220  23.875  0.00  0.00    -0.299 N 
ATOM      2  H   UNL     1       7.131  -2.661  23.774  0.00  0.00    +0.150 HD
ATOM      3  C   UNL     1       9.185  -2.621  23.688  0.00  0.00    +0.300 C 
ATOM      4  N   UNL     1       9.029  -1.361  23.184  0.00  0.00    -0.297 N 
ATOM      5  H   UNL     1       8.116  -0.953  23.295  0.00  0.00    +0.151 HD
ATOM      6  O   UNL     1      10.261  -3.164  23.901  0.00  0.00    -0.253 OA
ENDROOT
BRANCH   4   7
ATOM      7  C   UNL     1      10.128  -0.458  22.866  0.00  0.00    +0.074 C 
ATOM      8  C   UNL     1      10.548   0.372  24.084  0.00  0.00    +0.022 C 
ATOM      9  C   UNL     1       9.445   1.331  24.536  0.00  0.00    +0.002 C 
ATOM     10  C   UNL     1       8.940   2.215  23.395  0.00  0.00    +0.000 C 
ATOM     11  C   UNL     1       8.588   1.429  22.136  0.00  0.00    +0.002 C 
ATOM     12  C   UNL     1       9.707   0.471  21.720  0.00  0.00    +0.022 C 
ENDBRANCH   4   7
BRANCH   1  13
ATOM     13  C   UNL     1       7.821  -4.587  24.309  0.00  0.00    +0.106 C 
BRANCH  13  14
ATOM     14  C   UNL     1       6.617  -5.253  23.661  0.00  0.00    +0.030 C 
BRANCH  14  15
ATOM     15  C   UNL     1       6.985  -5.814  22.295  0.00  0.00    +0.122 C 
BRANCH  15  16
ATOM     16  C   UNL     1       6.180  -5.143  21.218  0.00  0.00    +0.305 C 
ATOM     17  O   UNL     1       5.987  -5.628  20.114  0.00  0.00    -0.251 OA
BRANCH  16  18
ATOM     18  O   UNL     1       5.713  -3.927  21.574  0.00  0.00    -0.481 OA
ATOM     19  H   UNL     1       6.298  -3.438  22.186  0.00  0.00    +0.295 HD
ENDBRANCH  16  18
ENDBRANCH  15  16
ENDBRANCH  14  15
ENDBRANCH  13  14
ENDBRANCH   1  13
TORSDOF 6
ENDMDL
MODEL 2
REMARK VINA RESULT:      -5.5      2.256      3.085
REMARK  Name = 
REMARK  6 active torsions:
REMARK  status: ('A' for Active; 'I' for Inactive)
REMARK    1  A    between atoms: O_1  and  C_2
REMARK    2  A    between atoms: C_2  and  C_4
REMARK    3  A    between atoms: C_4  and  C_5
REMARK    4  A    between atoms: C_5  and  C_6
REMARK    5  A    between atoms: C_6  and  N_7
REMARK    6  A    between atoms: N_10  and  C_11
REMARK                            x       y       z     vdW  Elec       q    Type
REMARK                         _______ _______ _______ _____ _____    ______ ____
ROOT
ATOM      1  N   UNL     1       7.986  -3.168  23.490  0.00  0.00    -0.299 N 
ATOM      2  H   UNL     1       7.159  -2.613  23.332  0.00  0.00    +0.150 HD
ATOM      3  C   UNL     1       9.203  -2.536  23.548  0.00  0.00    +0.300 C 
ATOM      4  N   UNL     1       9.082  -1.230  23.167  0.00  0.00    -0.297 N 
ATOM      5  H   UNL     1       8.151  -0.849  23.189  0.00  0.00    +0.151 HD
ATOM      6  O   UNL     1      10.253  -3.085  23.852  0.00  0.00    -0.253 OA
ENDROOT
BRANCH   4   7
ATOM      7  C   UNL     1      10.188  -0.282  23.110  0.00  0.00    +0.074 C 
ATOM      8  C   UNL     1      10.355   0.472  24.435  0.00  0.00    +0.022 C 
ATOM      9  C   UNL     1       9.156   1.372  24.739  0.00  0.00    +0.002 C 
ATOM     10  C   UNL     1       8.833   2.321  23.584  0.00  0.00    +0.000 C 
ATOM     11  C   UNL     1       8.740   1.615  22.234  0.00  0.00    +0.002 C 
ATOM     12  C   UNL     1       9.948   0.713  21.968  0.00  0.00    +0.022 C 
ENDBRANCH   4   7
BRANCH   1  13
ATOM     13  C   UNL     1       7.822  -4.577  23.748  0.00  0.00    +0.106 C 
BRANCH  13  14
ATOM     14  C   UNL     1       6.673  -4.836  24.711  0.00  0.00    +0.030 C 
BRANCH  14  15
ATOM     15  C   UNL     1       6.934  -4.161  26.050  0.00  0.00    +0.122 C 
BRANCH  15  16
ATOM     16  C   UNL     1       8.068  -4.839  26.767  0.00  0.00    +0.305 C 
ATOM     17  O   UNL     1       9.180  -4.351  26.891  0.00  0.00    -0.251 OA
BRANCH  16  18
ATOM     18  O   UNL     1       7.751  -6.065  27.236  0.00  0.00    -0.481 OA
ATOM     19  H   UNL     1       6.898  -6.103  27.710  0.00  0.00    +0.295 HD
ENDBRANCH  16  18
ENDBRANCH  15  16
ENDBRANCH  14  15
ENDBRANCH  13  14
ENDBRANCH   1  13
TORSDOF 6
ENDMDL
MODEL 3
REMARK VINA RESULT:      -5.5      2.460      5.966
REMARK  Name = 
REMARK  6 active torsions:
REMARK  status: ('A' for Active; 'I' for Inactive)
REMARK    1  A    between atoms: O_1  and  C_2
REMARK    2  A    between atoms: C_2  and  C_4
REMARK    3  A    between atoms: C_4  and  C_5
REMARK    4  A    between atoms: C_5  and  C_6
REMARK    5  A    between atoms: C_6  and  N_7
REMARK    6  A    between atoms: N_10  and  C_11
REMARK                            x       y       z     vdW  Elec       q    Type
REMARK                         _______ _______ _______ _____ _____    ______ ____
ROOT
ATOM      1  N   UNL     1       9.799  -0.747  24.645  0.00  0.00    -0.299 N 
ATOM      2  H   UNL     1       9.125  -0.574  25.375  0.00  0.00    +0.150 HD
ATOM      3  C   UNL     1       9.754  -1.946  23.978  0.00  0.00    +0.300 C 
ATOM      4  N   UNL     1       8.884  -2.802  24.592  0.00  0.00    -0.297 N 
ATOM      5  H   UNL     1       8.215  -2.380  25.214  0.00  0.00    +0.151 HD
ATOM      6  O   UNL     1      10.437  -2.219  23.000  0.00  0.00    -0.253 OA
ENDROOT
BRANCH   4   7
ATOM      7  C   UNL     1       8.608  -4.160  24.140  0.00  0.00    +0.074 C 
ATOM      8  C   UNL     1       7.105  -4.399  23.950  0.00  0.00    +0.022 C 
ATOM      9  C   UNL     1       6.340  -4.322  25.272  0.00  0.00    +0.002 C 
ATOM     10  C   UNL     1       6.929  -5.244  26.340  0.00  0.00    +0.000 C 
ATOM     11  C   UNL     1       8.439  -5.091  26.500  0.00  0.00    +0.002 C 
ATOM     12  C   UNL     1       9.172  -5.160  25.158  0.00  0.00    +0.022 C 
ENDBRANCH   4   7
BRANCH   1  13
ATOM     13  C   UNL     1      10.699   0.318  24.280  0.00  0.00    +0.106 C 
BRANCH  13  14
ATOM     14  C   UNL     1       9.947   1.514  23.716  0.00  0.00    +0.030 C 
BRANCH  14  15
ATOM     15  C   UNL     1      10.199   1.649  22.222  0.00  0.00    +0.122 C 
BRANCH  15  16
ATOM     16  C   UNL     1       9.107   0.971  21.442  0.00  0.00    +0.305 C 
ATOM     17  O   UNL     1       8.005   1.461  21.251  0.00  0.00    -0.251 OA
BRANCH  16  18
ATOM     18  O   UNL     1       9.448  -0.257  20.997  0.00  0.00    -0.481 OA
ATOM     19  H   UNL     1      10.400  -0.461  21.075  0.00  0.00    +0.295 HD
ENDBRANCH  16  18
ENDBRANCH  15  16
ENDBRANCH  14  15
ENDBRANCH  13  14
ENDBRANCH   1  13
TORSDOF 6
ENDMDL
MODEL 4
REMARK VINA RESULT:      -5.4      2.295      6.239
REMARK  Name = 
REMARK  6 active torsions:
REMARK  status: ('A' for Active; 'I' for Inactive)
REMARK    1  A    between atoms: O_1  and  C_2
REMARK    2  A    between atoms: C_2  and  C_4
REMARK    3  A    between atoms: C_4  and  C_5
REMARK    4  A    between atoms: C_5  and  C_6
REMARK    5  A    between atoms: C_6  and  N_7
REMARK    6  A    between atoms: N_10  and  C_11
REMARK                            x       y       z     vdW  Elec       q    Type
REMARK                         _______ _______ _______ _____ _____    ______ ____
ROOT
ATOM      1  N   UNL     1       8.584  -1.715  23.445  0.00  0.00    -0.299 N 
ATOM      2  H   UNL     1       7.781  -1.463  22.888  0.00  0.00    +0.150 HD
ATOM      3  C   UNL     1       8.792  -3.040  23.735  0.00  0.00    +0.300 C 
ATOM      4  N   UNL     1       7.713  -3.788  23.361  0.00  0.00    -0.297 N 
ATOM      5  H   UNL     1       7.089  -3.360  22.697  0.00  0.00    +0.151 HD
ATOM      6  O   UNL     1       9.789  -3.475  24.296  0.00  0.00    -0.253 OA
ENDROOT
BRANCH   4   7
ATOM      7  C   UNL     1       7.610  -5.232  23.536  0.00  0.00    +0.074 C 
ATOM      8  C   UNL     1       7.248  -5.937  22.223  0.00  0.00    +0.022 C 
ATOM      9  C   UNL     1       5.849  -5.557  21.734  0.00  0.00    +0.002 C 
ATOM     10  C   UNL     1       4.780  -5.771  22.806  0.00  0.00    +0.000 C 
ATOM     11  C   UNL     1       5.145  -5.152  24.151  0.00  0.00    +0.002 C 
ATOM     12  C   UNL     1       6.554  -5.541  24.604  0.00  0.00    +0.022 C 
ENDBRANCH   4   7
BRANCH   1  13
ATOM     13  C   UNL     1       9.513  -0.676  23.811  0.00  0.00    +0.106 C 
BRANCH  13  14
ATOM     14  C   UNL     1      10.390  -0.273  22.635  0.00  0.00    +0.030 C 
BRANCH  14  15
ATOM     15  C   UNL     1       9.537   0.037  21.413  0.00  0.00    +0.122 C 
BRANCH  15  16
ATOM     16  C   UNL     1       8.913   1.399  21.542  0.00  0.00    +0.305 C 
ATOM     17  O   UNL     1       7.709   1.597  21.535  0.00  0.00    -0.251 OA
BRANCH  16  18
ATOM     18  O   UNL     1       9.818   2.398  21.632  0.00  0.00    -0.481 OA
ATOM     19  H   UNL     1       9.614   3.060  22.320  0.00  0.00    +0.295 HD
ENDBRANCH  16  18
ENDBRANCH  15  16
ENDBRANCH  14  15
ENDBRANCH  13  14
ENDBRANCH   1  13
TORSDOF 6
ENDMDL
MODEL 5
REMARK VINA RESULT:      -5.3      1.406      1.555
REMARK  Name = 
REMARK  6 active torsions:
REMARK  status: ('A' for Active; 'I' for Inactive)
REMARK    1  A    between atoms: O_1  and  C_2
REMARK    2  A    between atoms: C_2  and  C_4
REMARK    3  A    between atoms: C_4  and  C_5
REMARK    4  A    between atoms: C_5  and  C_6
REMARK    5  A    between atoms: C_6  and  N_7
REMARK    6  A    between atoms: N_10  and  C_11
REMARK                            x       y       z     vdW  Elec       q    Type
REMARK                         _______ _______ _______ _____ _____    ______ ____
ROOT
ATOM      1  N   UNL     1       8.035  -2.702  23.202  0.00  0.00    -0.299 N 
ATOM      2  H   UNL     1       7.207  -2.131  23.277  0.00  0.00    +0.150 HD
ATOM      3  C   UNL     1       9.260  -2.085  23.180  0.00  0.00    +0.300 C 
ATOM      4  N   UNL     1       9.113  -0.732  23.062  0.00  0.00    -0.297 N 
ATOM      5  H   UNL     1       8.206  -0.366  23.298  0.00  0.00    +0.151 HD
ATOM      6  O   UNL     1      10.331  -2.676  23.212  0.00  0.00    -0.253 OA
ENDROOT
BRANCH   4   7
ATOM      7  C   UNL     1      10.220   0.214  23.003  0.00  0.00    +0.074 C 
ATOM      8  C   UNL     1      10.397   0.961  24.331  0.00  0.00    +0.022 C 
ATOM      9  C   UNL     1       9.201   1.860  24.649  0.00  0.00    +0.002 C 
ATOM     10  C   UNL     1       8.870   2.816  23.503  0.00  0.00    +0.000 C 
ATOM     11  C   UNL     1       8.766   2.118  22.150  0.00  0.00    +0.002 C 
ATOM     12  C   UNL     1       9.971   1.217  21.869  0.00  0.00    +0.022 C 
ENDBRANCH   4   7
BRANCH   1  13
ATOM     13  C   UNL     1       7.879  -4.136  23.226  0.00  0.00    +0.106 C 
BRANCH  13  14
ATOM     14  C   UNL     1       6.992  -4.618  22.088  0.00  0.00    +0.030 C 
BRANCH  14  15
ATOM     15  C   UNL     1       6.527  -6.045  22.339  0.00  0.00    +0.122 C 
BRANCH  15  16
ATOM     16  C   UNL     1       5.099  -6.056  22.809  0.00  0.00    +0.305 C 
ATOM     17  O   UNL     1       4.307  -5.152  22.593  0.00  0.00    -0.251 OA
BRANCH  16  18
ATOM     18  O   UNL     1       4.778  -7.153  23.528  0.00  0.00    -0.481 OA
ATOM     19  H   UNL     1       4.200  -6.973  24.294  0.00  0.00    +0.295 HD
ENDBRANCH  16  18
ENDBRANCH  15  16
ENDBRANCH  14  15
ENDBRANCH  13  14
ENDBRANCH   1  13
TORSDOF 6
ENDMDL
MODEL 6
REMARK VINA RESULT:      -5.2      2.387      6.571
REMARK  Name = 
REMARK  6 active torsions:
REMARK  status: ('A' for Active; 'I' for Inactive)
REMARK    1  A    between atoms: O_1  and  C_2
REMARK    2  A    between atoms: C_2  and  C_4
REMARK    3  A    between atoms: C_4  and  C_5
REMARK    4  A    between atoms: C_5  and  C_6
REMARK    5  A    between atoms: C_6  and  N_7
REMARK    6  A    between atoms: N_10  and  C_11
REMARK                            x       y       z     vdW  Elec       q    Type
REMARK                         _______ _______ _______ _____ _____    ______ ____
ROOT
ATOM      1  N   UNL     1       9.044  -1.675  23.645  0.00  0.00    -0.299 N 
ATOM      2  H   UNL     1       8.210  -1.299  23.220  0.00  0.00    +0.150 HD
ATOM      3  C   UNL     1       9.120  -3.029  23.858  0.00  0.00    +0.300 C 
ATOM      4  N   UNL     1       7.912  -3.620  23.621  0.00  0.00    -0.297 N 
ATOM      5  H   UNL     1       7.260  -3.085  23.070  0.00  0.00    +0.151 HD
ATOM      6  O   UNL     1      10.122  -3.610  24.252  0.00  0.00    -0.253 OA
ENDROOT
BRANCH   4   7
ATOM      7  C   UNL     1       7.651  -5.047  23.761  0.00  0.00    +0.074 C 
ATOM      8  C   UNL     1       7.346  -5.702  22.408  0.00  0.00    +0.022 C 
ATOM      9  C   UNL     1       6.045  -5.181  21.797  0.00  0.00    +0.002 C 
ATOM     10  C   UNL     1       4.863  -5.295  22.760  0.00  0.00    +0.000 C 
ATOM     11  C   UNL     1       5.158  -4.725  24.144  0.00  0.00    +0.002 C 
ATOM     12  C   UNL     1       6.472  -5.257  24.720  0.00  0.00    +0.022 C 
ENDBRANCH   4   7
BRANCH   1  13
ATOM     13  C   UNL     1      10.142  -0.778  23.905  0.00  0.00    +0.106 C 
BRANCH  13  14
ATOM     14  C   UNL     1       9.655   0.542  24.484  0.00  0.00    +0.030 C 
BRANCH  14  15
ATOM     15  C   UNL     1      10.503   1.697  23.972  0.00  0.00    +0.122 C 
BRANCH  15  16
ATOM     16  C   UNL     1       9.769   2.451  22.898  0.00  0.00    +0.305 C 
ATOM     17  O   UNL     1       8.835   3.206  23.117  0.00  0.00    -0.251 OA
BRANCH  16  18
ATOM     18  O   UNL     1      10.219   2.186  21.653  0.00  0.00    -0.481 OA
ATOM     19  H   UNL     1      10.735   1.360  21.581  0.00  0.00    +0.295 HD
ENDBRANCH  16  18
ENDBRANCH  15  16
ENDBRANCH  14  15
ENDBRANCH  13  14
ENDBRANCH   1  13
TORSDOF 6
ENDMDL
MODEL 7
REMARK VINA RESULT:      -5.2      2.172      6.588
REMARK  Name = 
REMARK  6 active torsions:
REMARK  status: ('A' for Active; 'I' for Inactive)
REMARK    1  A    between atoms: O_1  and  C_2
REMARK    2  A    between atoms: C_2  and  C_4
REMARK    3  A    between atoms: C_4  and  C_5
REMARK    4  A    between atoms: C_5  and  C_6
REMARK    5  A    between atoms: C_6  and  N_7
REMARK    6  A    between atoms: N_10  and  C_11
REMARK                            x       y       z     vdW  Elec       q    Type
REMARK                         _______ _______ _______ _____ _____    ______ ____
ROOT
ATOM      1  N   UNL     1       8.821  -1.355  21.871  0.00  0.00    -0.299 N 
ATOM      2  H   UNL     1       8.015  -1.311  21.266  0.00  0.00    +0.150 HD
ATOM      3  C   UNL     1       8.968  -2.445  22.691  0.00  0.00    +0.300 C 
ATOM      4  N   UNL     1       7.838  -3.212  22.677  0.00  0.00    -0.297 N 
ATOM      5  H   UNL     1       7.216  -3.064  21.900  0.00  0.00    +0.151 HD
ATOM      6  O   UNL     1       9.959  -2.665  23.375  0.00  0.00    -0.253 OA
ENDROOT
BRANCH   4   7
ATOM      7  C   UNL     1       7.665  -4.438  23.445  0.00  0.00    +0.074 C 
ATOM      8  C   UNL     1       7.582  -5.670  22.535  0.00  0.00    +0.022 C 
ATOM      9  C   UNL     1       6.334  -5.648  21.651  0.00  0.00    +0.002 C 
ATOM     10  C   UNL     1       5.051  -5.454  22.459  0.00  0.00    +0.000 C 
ATOM     11  C   UNL     1       5.127  -4.284  23.436  0.00  0.00    +0.002 C 
ATOM     12  C   UNL     1       6.393  -4.330  24.295  0.00  0.00    +0.022 C 
ENDBRANCH   4   7
BRANCH   1  13
ATOM     13  C   UNL     1       9.817  -0.319  21.756  0.00  0.00    +0.106 C 
BRANCH  13  14
ATOM     14  C   UNL     1       9.213   1.060  21.977  0.00  0.00    +0.030 C 
BRANCH  14  15
ATOM     15  C   UNL     1      10.168   1.943  22.767  0.00  0.00    +0.122 C 
BRANCH  15  16
ATOM     16  C   UNL     1       9.743   2.018  24.207  0.00  0.00    +0.305 C 
ATOM     17  O   UNL     1       9.013   2.889  24.653  0.00  0.00    -0.251 OA
BRANCH  16  18
ATOM     18  O   UNL     1      10.276   1.045  24.976  0.00  0.00    -0.481 OA
ATOM     19  H   UNL     1       9.780   0.204  24.957  0.00  0.00    +0.295 HD
ENDBRANCH  16  18
ENDBRANCH  15  16
ENDBRANCH  14  15
ENDBRANCH  13  14
ENDBRANCH   1  13
TORSDOF 6
ENDMDL
MODEL 8
REMARK VINA RESULT:      -5.1      2.566      3.232
REMARK  Name = 
REMARK  6 active torsions:
REMARK  status: ('A' for Active; 'I' for Inactive)
REMARK    1  A    between atoms: O_1  and  C_2
REMARK    2  A    between atoms: C_2  and  C_4
REMARK    3  A    between atoms: C_4  and  C_5
REMARK    4  A    between atoms: C_5  and  C_6
REMARK    5  A    between atoms: C_6  and  N_7
REMARK    6  A    between atoms: N_10  and  C_11
REMARK                            x       y       z     vdW  Elec       q    Type
REMARK                         _______ _______ _______ _____ _____    ______ ____
ROOT
ATOM      1  N   UNL     1       6.885  -2.568  25.209  0.00  0.00    -0.299 N 
ATOM      2  H   UNL     1       6.385  -2.436  24.342  0.00  0.00    +0.150 HD
ATOM      3  C   UNL     1       7.986  -1.788  25.458  0.00  0.00    +0.300 C 
ATOM      4  N   UNL     1       8.332  -1.078  24.343  0.00  0.00    -0.297 N 
ATOM      5  H   UNL     1       7.618  -0.987  23.640  0.00  0.00    +0.151 HD
ATOM      6  O   UNL     1       8.596  -1.774  26.518  0.00  0.00    -0.253 OA
ENDROOT
BRANCH   4   7
ATOM      7  C   UNL     1       9.461  -0.160  24.269  0.00  0.00    +0.074 C 
ATOM      8  C   UNL     1       8.999   1.290  24.073  0.00  0.00    +0.022 C 
ATOM      9  C   UNL     1       8.310   1.495  22.723  0.00  0.00    +0.002 C 
ATOM     10  C   UNL     1       9.165   1.010  21.552  0.00  0.00    +0.000 C 
ATOM     11  C   UNL     1       9.710  -0.402  21.751  0.00  0.00    +0.002 C 
ATOM     12  C   UNL     1      10.382  -0.576  23.115  0.00  0.00    +0.022 C 
ENDBRANCH   4   7
BRANCH   1  13
ATOM     13  C   UNL     1       6.346  -3.495  26.173  0.00  0.00    +0.106 C 
BRANCH  13  14
ATOM     14  C   UNL     1       6.686  -4.933  25.811  0.00  0.00    +0.030 C 
BRANCH  14  15
ATOM     15  C   UNL     1       8.042  -5.323  26.379  0.00  0.00    +0.122 C 
BRANCH  15  16
ATOM     16  C   UNL     1       9.094  -5.273  25.306  0.00  0.00    +0.305 C 
ATOM     17  O   UNL     1       8.878  -4.907  24.162  0.00  0.00    -0.251 OA
BRANCH  16  18
ATOM     18  O   UNL     1      10.304  -5.707  25.719  0.00  0.00    -0.481 OA
ATOM     19  H   UNL     1      10.779  -6.251  25.062  0.00  0.00    +0.295 HD
ENDBRANCH  16  18
ENDBRANCH  15  16
ENDBRANCH  14  15
ENDBRANCH  13  14
ENDBRANCH   1  13
TORSDOF 6
ENDMDL
MODEL 9
REMARK VINA RESULT:      -5.1      2.516      6.409
REMARK  Name = 
REMARK  6 active torsions:
REMARK  status: ('A' for Active; 'I' for Inactive)
REMARK    1  A    between atoms: O_1  and  C_2
REMARK    2  A    between atoms: C_2  and  C_4
REMARK    3  A    between atoms: C_4  and  C_5
REMARK    4  A    between atoms: C_5  and  C_6
REMARK    5  A    between atoms: C_6  and  N_7
REMARK    6  A    between atoms: N_10  and  C_11
REMARK                            x       y       z     vdW  Elec       q    Type
REMARK                         _______ _______ _______ _____ _____    ______ ____
ROOT
ATOM      1  N   UNL     1       6.423  -0.799  23.188  0.00  0.00    -0.299 N 
ATOM      2  H   UNL     1       5.539  -1.012  22.752  0.00  0.00    +0.150 HD
ATOM      3  C   UNL     1       7.354  -1.800  23.310  0.00  0.00    +0.300 C 
ATOM      4  N   UNL     1       6.808  -3.006  22.977  0.00  0.00    -0.297 N 
ATOM      5  H   UNL     1       5.960  -2.971  22.435  0.00  0.00    +0.151 HD
ATOM      6  O   UNL     1       8.499  -1.633  23.709  0.00  0.00    -0.253 OA
ENDROOT
BRANCH   4   7
ATOM      7  C   UNL     1       7.527  -4.273  23.006  0.00  0.00    +0.074 C 
ATOM      8  C   UNL     1       7.072  -5.208  21.879  0.00  0.00    +0.022 C 
ATOM      9  C   UNL     1       5.616  -5.644  22.047  0.00  0.00    +0.002 C 
ATOM     10  C   UNL     1       5.343  -6.246  23.426  0.00  0.00    +0.000 C 
ATOM     11  C   UNL     1       5.857  -5.379  24.572  0.00  0.00    +0.002 C 
ATOM     12  C   UNL     1       7.311  -4.950  24.366  0.00  0.00    +0.022 C 
ENDBRANCH   4   7
BRANCH   1  13
ATOM     13  C   UNL     1       6.688   0.569  23.561  0.00  0.00    +0.106 C 
BRANCH  13  14
ATOM     14  C   UNL     1       6.835   1.460  22.337  0.00  0.00    +0.030 C 
BRANCH  14  15
ATOM     15  C   UNL     1       8.114   2.280  22.422  0.00  0.00    +0.122 C 
BRANCH  15  16
ATOM     16  C   UNL     1       9.228   1.592  21.681  0.00  0.00    +0.305 C 
ATOM     17  O   UNL     1       9.121   0.489  21.168  0.00  0.00    -0.251 OA
BRANCH  16  18
ATOM     18  O   UNL     1      10.379   2.298  21.665  0.00  0.00    -0.481 OA
ATOM     19  H   UNL     1      10.265   3.252  21.837  0.00  0.00    +0.295 HD
ENDBRANCH  16  18
ENDBRANCH  15  16
ENDBRANCH  14  15
ENDBRANCH  13  14
ENDBRANCH   1  13
TORSDOF 6
ENDMDL
