MODEL 1
REMARK VINA RESULT:      -4.2      0.000      0.000
REMARK  Name = 
REMARK  6 active torsions:
REMARK  status: ('A' for Active; 'I' for Inactive)
REMARK    1  A    between atoms: O_1  and  C_2
REMARK    2  A    between atoms: C_2  and  C_4
REMARK    3  A    between atoms: C_4  and  C_6
REMARK    4  A    between atoms: C_6  and  P_7
REMARK    5  A    between atoms: P_7  and  O_8
REMARK    6  A    between atoms: P_7  and  O_9
REMARK                            x       y       z     vdW  Elec       q    Type
REMARK                         _______ _______ _______ _____ _____    ______ ____
ROOT
ATOM      1  C   UNL     1      10.348   0.595  23.135  0.00  0.00    +0.213 C 
ENDROOT
BRANCH   1   2
ATOM      2  C   UNL     1       9.666  -0.611  23.680  0.00  0.00    +0.251 C 
ATOM      3  O   UNL     1       8.764  -0.626  24.512  0.00  0.00    -0.284 OA
BRANCH   2   4
ATOM      4  C   UNL     1      10.120  -1.950  23.121  0.00  0.00    +0.373 C 
ATOM      5  O   UNL     1      10.193  -2.946  23.804  0.00  0.00    -0.242 OA
BRANCH   4   6
ATOM      6  O   UNL     1      10.426  -1.848  21.819  0.00  0.00    -0.475 OA
ATOM      7  H   UNL     1       9.592  -1.831  21.282  0.00  0.00    +0.295 HD
ENDBRANCH   4   6
ENDBRANCH   2   4
ENDBRANCH   1   2
BRANCH   1   8
ATOM      8  P   UNL     1       9.117   1.695  22.346  0.00  0.00    +0.335 P 
ATOM      9  O   UNL     1       8.075   2.624  21.677  0.00  0.00    -0.258 OA
BRANCH   8  10
ATOM     10  O   UNL     1       9.115   0.649  21.077  0.00  0.00    -0.324 OA
ATOM     11  H   UNL     1       8.221   0.662  20.678  0.00  0.00    +0.220 HD
ENDBRANCH   8  10
BRANCH   8  12
ATOM     12  O   UNL     1      10.402   2.564  21.804  0.00  0.00    -0.324 OA
ATOM     13  H   UNL     1      10.397   2.629  20.832  0.00  0.00    +0.220 HD
ENDBRANCH   8  12
ENDBRANCH   1   8
TORSDOF 6
ENDMDL
MODEL 2
REMARK VINA RESULT:      -4.0      5.600      7.473
REMARK  Name = 
REMARK  6 active torsions:
REMARK  status: ('A' for Active; 'I' for Inactive)
REMARK    1  A    between atoms: O_1  and  C_2
REMARK    2  A    between atoms: C_2  and  C_4
REMARK    3  A    between atoms: C_4  and  C_6
REMARK    4  A    between atoms: C_6  and  P_7
REMARK    5  A    between atoms: P_7  and  O_8
REMARK    6  A    between atoms: P_7  and  O_9
REMARK                            x       y       z     vdW  Elec       q    Type
REMARK                         _______ _______ _______ _____ _____    ______ ____
ROOT
ATOM      1  C   UNL     1       7.020  -4.984  25.765  0.00  0.00    +0.213 C 
ENDROOT
BRANCH   1   2
ATOM      2  C   UNL     1       8.282  -4.215  25.955  0.00  0.00    +0.251 C 
ATOM      3  O   UNL     1       8.435  -3.230  26.671  0.00  0.00    -0.284 OA
BRANCH   2   4
ATOM      4  C   UNL     1       9.500  -4.728  25.206  0.00  0.00    +0.373 C 
ATOM      5  O   UNL     1      10.085  -4.059  24.384  0.00  0.00    -0.242 OA
BRANCH   4   6
ATOM      6  O   UNL     1       9.798  -5.982  25.574  0.00  0.00    -0.475 OA
ATOM      7  H   UNL     1      10.752  -6.032  25.843  0.00  0.00    +0.295 HD
ENDBRANCH   4   6
ENDBRANCH   2   4
ENDBRANCH   1   2
BRANCH   1   8
ATOM      8  P   UNL     1       6.267  -5.343  27.393  0.00  0.00    +0.335 P 
ATOM      9  O   UNL     1       5.631  -5.647  28.771  0.00  0.00    -0.258 OA
BRANCH   8  10
ATOM     10  O   UNL     1       7.697  -6.039  27.811  0.00  0.00    -0.324 OA
ATOM     11  H   UNL     1       7.500  -6.905  28.224  0.00  0.00    +0.220 HD
ENDBRANCH   8  10
BRANCH   8  12
ATOM     12  O   UNL     1       5.657  -6.697  26.689  0.00  0.00    -0.324 OA
ATOM     13  H   UNL     1       6.368  -7.246  26.310  0.00  0.00    +0.220 HD
ENDBRANCH   8  12
ENDBRANCH   1   8
TORSDOF 6
ENDMDL
MODEL 3
REMARK VINA RESULT:      -4.0      1.352      1.925
REMARK  Name = 
REMARK  6 active torsions:
REMARK  status: ('A' for Active; 'I' for Inactive)
REMARK    1  A    between atoms: O_1  and  C_2
REMARK    2  A    between atoms: C_2  and  C_4
REMARK    3  A    between atoms: C_4  and  C_6
REMARK    4  A    between atoms: C_6  and  P_7
REMARK    5  A    between atoms: P_7  and  O_8
REMARK    6  A    between atoms: P_7  and  O_9
REMARK                            x       y       z     vdW  Elec       q    Type
REMARK                         _______ _______ _______ _____ _____    ______ ____
ROOT
ATOM      1  C   UNL     1       9.101   1.070  23.130  0.00  0.00    +0.213 C 
ENDROOT
BRANCH   1   2
ATOM      2  C   UNL     1       9.808  -0.168  23.560  0.00  0.00    +0.251 C 
ATOM      3  O   UNL     1      10.146  -0.455  24.704  0.00  0.00    -0.284 OA
BRANCH   2   4
ATOM      4  C   UNL     1      10.111  -1.181  22.468  0.00  0.00    +0.373 C 
ATOM      5  O   UNL     1      10.559  -2.279  22.709  0.00  0.00    -0.242 OA
BRANCH   4   6
ATOM      6  O   UNL     1       9.831  -0.680  21.257  0.00  0.00    -0.475 OA
ATOM      7  H   UNL     1      10.670  -0.394  20.812  0.00  0.00    +0.295 HD
ENDBRANCH   4   6
ENDBRANCH   2   4
ENDBRANCH   1   2
BRANCH   1   8
ATOM      8  P   UNL     1      10.248   2.493  23.211  0.00  0.00    +0.335 P 
ATOM      9  O   UNL     1      11.217   3.699  23.280  0.00  0.00    -0.258 OA
BRANCH   8  10
ATOM     10  O   UNL     1       8.929   3.462  23.048  0.00  0.00    -0.324 OA
ATOM     11  H   UNL     1       9.205   4.265  22.559  0.00  0.00    +0.220 HD
ENDBRANCH   8  10
BRANCH   8  12
ATOM     12  O   UNL     1      10.458   2.276  21.596  0.00  0.00    -0.324 OA
ATOM     13  H   UNL     1      11.381   2.451  21.336  0.00  0.00    +0.220 HD
ENDBRANCH   8  12
ENDBRANCH   1   8
TORSDOF 6
ENDMDL
MODEL 4
REMARK VINA RESULT:      -4.0      1.847      4.289
REMARK  Name = 
REMARK  6 active torsions:
REMARK  status: ('A' for Active; 'I' for Inactive)
REMARK    1  A    between atoms: O_1  and  C_2
REMARK    2  A    between atoms: C_2  and  C_4
REMARK    3  A    between atoms: C_4  and  C_6
REMARK    4  A    between atoms: C_6  and  P_7
REMARK    5  A    between atoms: P_7  and  O_8
REMARK    6  A    between atoms: P_7  and  O_9
REMARK                            x       y       z     vdW  Elec       q    Type
REMARK                         _______ _______ _______ _____ _____    ______ ____
ROOT
ATOM      1  C   UNL     1       8.576  -0.582  22.971  0.00  0.00    +0.213 C 
ENDROOT
BRANCH   1   2
ATOM      2  C   UNL     1       9.538   0.554  22.901  0.00  0.00    +0.251 C 
ATOM      3  O   UNL     1      10.548   0.697  23.582  0.00  0.00    -0.284 OA
BRANCH   2   4
ATOM      4  C   UNL     1       9.241   1.621  21.860  0.00  0.00    +0.373 C 
ATOM      5  O   UNL     1       8.149   1.748  21.354  0.00  0.00    -0.242 OA
BRANCH   4   6
ATOM      6  O   UNL     1      10.334   2.351  21.597  0.00  0.00    -0.475 OA
ATOM      7  H   UNL     1      10.917   2.380  22.399  0.00  0.00    +0.295 HD
ENDBRANCH   4   6
ENDBRANCH   2   4
ENDBRANCH   1   2
BRANCH   1   8
ATOM      8  P   UNL     1       9.440  -2.083  23.560  0.00  0.00    +0.335 P 
ATOM      9  O   UNL     1      10.172  -3.354  24.058  0.00  0.00    -0.258 OA
BRANCH   8  10
ATOM     10  O   UNL     1      10.494  -1.867  22.318  0.00  0.00    -0.324 OA
ATOM     11  H   UNL     1      11.073  -1.109  22.542  0.00  0.00    +0.220 HD
ENDBRANCH   8  10
BRANCH   8  12
ATOM     12  O   UNL     1       8.349  -2.929  22.668  0.00  0.00    -0.324 OA
ATOM     13  H   UNL     1       7.447  -2.580  22.796  0.00  0.00    +0.220 HD
ENDBRANCH   8  12
ENDBRANCH   1   8
TORSDOF 6
ENDMDL
MODEL 5
REMARK VINA RESULT:      -4.0      1.665      3.890
REMARK  Name = 
REMARK  6 active torsions:
REMARK  status: ('A' for Active; 'I' for Inactive)
REMARK    1  A    between atoms: O_1  and  C_2
REMARK    2  A    between atoms: C_2  and  C_4
REMARK    3  A    between atoms: C_4  and  C_6
REMARK    4  A    between atoms: C_6  and  P_7
REMARK    5  A    between atoms: P_7  and  O_8
REMARK    6  A    between atoms: P_7  and  O_9
REMARK                            x       y       z     vdW  Elec       q    Type
REMARK                         _______ _______ _______ _____ _____    ______ ____
ROOT
ATOM      1  C   UNL     1      10.391  -0.300  23.448  0.00  0.00    +0.213 C 
ENDROOT
BRANCH   1   2
ATOM      2  C   UNL     1       9.661   0.992  23.566  0.00  0.00    +0.251 C 
ATOM      3  O   UNL     1       8.646   1.199  24.223  0.00  0.00    -0.284 OA
BRANCH   2   4
ATOM      4  C   UNL     1      10.259   2.172  22.817  0.00  0.00    +0.373 C 
ATOM      5  O   UNL     1      10.895   3.039  23.373  0.00  0.00    -0.242 OA
BRANCH   4   6
ATOM      6  O   UNL     1       9.970   2.107  21.509  0.00  0.00    -0.475 OA
ATOM      7  H   UNL     1      10.157   2.983  21.083  0.00  0.00    +0.295 HD
ENDBRANCH   4   6
ENDBRANCH   2   4
ENDBRANCH   1   2
BRANCH   1   8
ATOM      8  P   UNL     1       9.264  -1.586  22.798  0.00  0.00    +0.335 P 
ATOM      9  O   UNL     1       8.309  -2.675  22.249  0.00  0.00    -0.258 OA
BRANCH   8  10
ATOM     10  O   UNL     1      10.223  -2.692  23.546  0.00  0.00    -0.324 OA
ATOM     11  H   UNL     1      10.399  -3.417  22.910  0.00  0.00    +0.220 HD
ENDBRANCH   8  10
BRANCH   8  12
ATOM     12  O   UNL     1      10.165  -1.529  21.425  0.00  0.00    -0.324 OA
ATOM     13  H   UNL     1      11.110  -1.405  21.631  0.00  0.00    +0.220 HD
ENDBRANCH   8  12
ENDBRANCH   1   8
TORSDOF 6
ENDMDL
MODEL 6
REMARK VINA RESULT:      -3.9      5.245      6.469
REMARK  Name = 
REMARK  6 active torsions:
REMARK  status: ('A' for Active; 'I' for Inactive)
REMARK    1  A    between atoms: O_1  and  C_2
REMARK    2  A    between atoms: C_2  and  C_4
REMARK    3  A    between atoms: C_4  and  C_6
REMARK    4  A    between atoms: C_6  and  P_7
REMARK    5  A    between atoms: P_7  and  O_8
REMARK    6  A    between atoms: P_7  and  O_9
REMARK                            x       y       z     vdW  Elec       q    Type
REMARK                         _______ _______ _______ _____ _____    ______ ____
ROOT
ATOM      1  C   UNL     1       6.371  -5.294  23.669  0.00  0.00    +0.213 C 
ENDROOT
BRANCH   1   2
ATOM      2  C   UNL     1       7.716  -4.725  23.957  0.00  0.00    +0.251 C 
ATOM      3  O   UNL     1       8.241  -3.771  23.390  0.00  0.00    -0.284 OA
BRANCH   2   4
ATOM      4  C   UNL     1       8.495  -5.380  25.085  0.00  0.00    +0.373 C 
ATOM      5  O   UNL     1       7.974  -5.712  26.126  0.00  0.00    -0.242 OA
BRANCH   4   6
ATOM      6  O   UNL     1       9.790  -5.512  24.762  0.00  0.00    -0.475 OA
ATOM      7  H   UNL     1       9.872  -6.020  23.915  0.00  0.00    +0.295 HD
ENDBRANCH   4   6
ENDBRANCH   2   4
ENDBRANCH   1   2
BRANCH   1   8
ATOM      8  P   UNL     1       6.151  -5.469  21.860  0.00  0.00    +0.335 P 
ATOM      9  O   UNL     1       5.965  -5.615  20.330  0.00  0.00    -0.258 OA
BRANCH   8  10
ATOM     10  O   UNL     1       5.603  -3.919  21.859  0.00  0.00    -0.324 OA
ATOM     11  H   UNL     1       6.160  -3.404  21.238  0.00  0.00    +0.220 HD
ENDBRANCH   8  10
BRANCH   8  12
ATOM     12  O   UNL     1       4.688  -6.130  22.212  0.00  0.00    -0.324 OA
ATOM     13  H   UNL     1       3.989  -5.757  21.645  0.00  0.00    +0.220 HD
ENDBRANCH   8  12
ENDBRANCH   1   8
TORSDOF 6
ENDMDL
MODEL 7
REMARK VINA RESULT:      -3.9      3.328      4.750
REMARK  Name = 
REMARK  6 active torsions:
REMARK  status: ('A' for Active; 'I' for Inactive)
REMARK    1  A    between atoms: O_1  and  C_2
REMARK    2  A    between atoms: C_2  and  C_4
REMARK    3  A    between atoms: C_4  and  C_6
REMARK    4  A    between atoms: C_6  and  P_7
REMARK    5  A    between atoms: P_7  and  O_8
REMARK    6  A    between atoms: P_7  and  O_9
REMARK                            x       y       z     vdW  Elec       q    Type
REMARK                         _______ _______ _______ _____ _____    ______ ____
ROOT
ATOM      1  C   UNL     1       7.948  -3.170  24.771  0.00  0.00    +0.213 C 
ENDROOT
BRANCH   1   2
ATOM      2  C   UNL     1       8.284  -4.598  24.519  0.00  0.00    +0.251 C 
ATOM      3  O   UNL     1       8.290  -5.166  23.432  0.00  0.00    -0.284 OA
BRANCH   2   4
ATOM      4  C   UNL     1       8.686  -5.417  25.735  0.00  0.00    +0.373 C 
ATOM      5  O   UNL     1       7.889  -5.760  26.579  0.00  0.00    -0.242 OA
BRANCH   4   6
ATOM      6  O   UNL     1      10.002  -5.673  25.729  0.00  0.00    -0.475 OA
ATOM      7  H   UNL     1      10.326  -5.732  24.793  0.00  0.00    +0.295 HD
ENDBRANCH   4   6
ENDBRANCH   2   4
ENDBRANCH   1   2
BRANCH   1   8
ATOM      8  P   UNL     1       9.131  -2.094  23.882  0.00  0.00    +0.335 P 
ATOM      9  O   UNL     1      10.132  -1.183  23.128  0.00  0.00    -0.258 OA
BRANCH   8  10
ATOM     10  O   UNL     1       8.455  -2.639  22.486  0.00  0.00    -0.324 OA
ATOM     11  H   UNL     1       7.489  -2.480  22.538  0.00  0.00    +0.220 HD
ENDBRANCH   8  10
BRANCH   8  12
ATOM     12  O   UNL     1      10.195  -3.340  24.014  0.00  0.00    -0.324 OA
ATOM     13  H   UNL     1      10.980  -3.077  24.528  0.00  0.00    +0.220 HD
ENDBRANCH   8  12
ENDBRANCH   1   8
TORSDOF 6
ENDMDL
MODEL 8
REMARK VINA RESULT:      -3.8      1.764      2.293
REMARK  Name = 
REMARK  6 active torsions:
REMARK  status: ('A' for Active; 'I' for Inactive)
REMARK    1  A    between atoms: O_1  and  C_2
REMARK    2  A    between atoms: C_2  and  C_4
REMARK    3  A    between atoms: C_4  and  C_6
REMARK    4  A    between atoms: C_6  and  P_7
REMARK    5  A    between atoms: P_7  and  O_8
REMARK    6  A    between atoms: P_7  and  O_9
REMARK                            x       y       z     vdW  Elec       q    Type
REMARK                         _______ _______ _______ _____ _____    ______ ____
ROOT
ATOM      1  C   UNL     1       9.430  -0.171  21.410  0.00  0.00    +0.213 C 
ENDROOT
BRANCH   1   2
ATOM      2  C   UNL     1       9.697  -1.414  22.185  0.00  0.00    +0.251 C 
ATOM      3  O   UNL     1      10.796  -1.914  22.407  0.00  0.00    -0.284 OA
BRANCH   2   4
ATOM      4  C   UNL     1       8.483  -2.109  22.780  0.00  0.00    +0.373 C 
ATOM      5  O   UNL     1       7.566  -2.508  22.098  0.00  0.00    -0.242 OA
BRANCH   4   6
ATOM      6  O   UNL     1       8.582  -2.191  24.114  0.00  0.00    -0.475 OA
ATOM      7  H   UNL     1       9.445  -1.802  24.409  0.00  0.00    +0.295 HD
ENDBRANCH   4   6
ENDBRANCH   2   4
ENDBRANCH   1   2
BRANCH   1   8
ATOM      8  P   UNL     1       9.150   1.223  22.562  0.00  0.00    +0.335 P 
ATOM      9  O   UNL     1       8.914   2.404  23.535  0.00  0.00    -0.258 OA
BRANCH   8  10
ATOM     10  O   UNL     1       9.963   2.167  21.489  0.00  0.00    -0.324 OA
ATOM     11  H   UNL     1      10.798   1.710  21.258  0.00  0.00    +0.220 HD
ENDBRANCH   8  10
BRANCH   8  12
ATOM     12  O   UNL     1      10.502   0.708  23.341  0.00  0.00    -0.324 OA
ATOM     13  H   UNL     1      11.242   1.328  23.207  0.00  0.00    +0.220 HD
ENDBRANCH   8  12
ENDBRANCH   1   8
TORSDOF 6
ENDMDL
MODEL 9
REMARK VINA RESULT:      -3.7      5.064      6.079
REMARK  Name = 
REMARK  6 active torsions:
REMARK  status: ('A' for Active; 'I' for Inactive)
REMARK    1  A    between atoms: O_1  and  C_2
REMARK    2  A    between atoms: C_2  and  C_4
REMARK    3  A    between atoms: C_4  and  C_6
REMARK    4  A    between atoms: C_6  and  P_7
REMARK    5  A    between atoms: P_7  and  O_8
REMARK    6  A    between atoms: P_7  and  O_9
REMARK                            x       y       z     vdW  Elec       q    Type
REMARK                         _______ _______ _______ _____ _____    ______ ____
ROOT
ATOM      1  C   UNL     1       7.022  -4.441  24.518  0.00  0.00    +0.213 C 
ENDROOT
BRANCH   1   2
ATOM      2  C   UNL     1       8.019  -5.071  25.427  0.00  0.00    +0.251 C 
ATOM      3  O   UNL     1       7.777  -5.808  26.377  0.00  0.00    -0.284 OA
BRANCH   2   4
ATOM      4  C   UNL     1       9.481  -4.786  25.120  0.00  0.00    +0.373 C 
ATOM      5  O   UNL     1       9.830  -3.846  24.443  0.00  0.00    -0.242 OA
BRANCH   4   6
ATOM      6  O   UNL     1      10.277  -5.707  25.682  0.00  0.00    -0.475 OA
ATOM      7  H   UNL     1       9.724  -6.393  26.137  0.00  0.00    +0.295 HD
ENDBRANCH   4   6
ENDBRANCH   2   4
ENDBRANCH   1   2
BRANCH   1   8
ATOM      8  P   UNL     1       7.086  -5.251  22.878  0.00  0.00    +0.335 P 
ATOM      9  O   UNL     1       7.142  -5.935  21.490  0.00  0.00    -0.258 OA
BRANCH   8  10
ATOM     10  O   UNL     1       7.621  -3.816  22.280  0.00  0.00    -0.324 OA
ATOM     11  H   UNL     1       6.926  -3.145  22.441  0.00  0.00    +0.220 HD
ENDBRANCH   8  10
BRANCH   8  12
ATOM     12  O   UNL     1       5.493  -4.868  22.748  0.00  0.00    -0.324 OA
ATOM     13  H   UNL     1       5.357  -3.905  22.823  0.00  0.00    +0.220 HD
ENDBRANCH   8  12
ENDBRANCH   1   8
TORSDOF 6
ENDMDL
