MODEL 1
REMARK VINA RESULT:      -7.1      0.000      0.000
REMARK  Name = 
REMARK  0 active torsions:
REMARK  status: ('A' for Active; 'I' for Inactive)
REMARK                            x       y       z     vdW  Elec       q    Type
REMARK                         _______ _______ _______ _____ _____    ______ ____
ROOT
ATOM      1  C   UNL     1       7.855   0.213  23.689  0.00  0.00    +0.104 C 
ATOM      2  C   UNL     1       7.434  -1.191  23.367  0.00  0.00    +0.045 A 
ATOM      3  N   UNL     1       6.160  -1.576  23.041  0.00  0.00    -0.356 N 
ATOM      4  H   UNL     1       5.363  -0.961  22.944  0.00  0.00    +0.166 HD
ATOM      5  C   UNL     1       6.093  -2.944  22.915  0.00  0.00    +0.047 A 
ATOM      6  C   UNL     1       4.994  -3.763  22.627  0.00  0.00    +0.026 A 
ATOM      7  C   UNL     1       5.206  -5.144  22.591  0.00  0.00    +0.002 A 
ATOM      8  C   UNL     1       6.469  -5.681  22.827  0.00  0.00    +0.001 A 
ATOM      9  C   UNL     1       7.560  -4.848  23.115  0.00  0.00    +0.011 A 
ATOM     10  C   UNL     1       7.371  -3.452  23.161  0.00  0.00    +0.011 A 
ATOM     11  C   UNL     1       8.199  -2.334  23.480  0.00  0.00    +0.048 A 
ATOM     12  C   UNL     1       9.570  -2.225  23.942  0.00  0.00    +0.179 C 
ATOM     13  O   UNL     1      10.368  -3.156  23.894  0.00  0.00    -0.291 OA
ATOM     14  C   UNL     1       9.897  -0.883  24.630  0.00  0.00    +0.164 C 
ATOM     15  N   UNL     1       9.310   0.312  23.956  0.00  0.00    -0.287 NA
ATOM     16  C   UNL     1      10.184   0.765  22.871  0.00  0.00    +0.085 C 
ATOM     17  C   UNL     1       9.590   1.842  21.970  0.00  0.00    +0.015 C 
ATOM     18  C   UNL     1       8.237   1.390  21.459  0.00  0.00    +0.003 C 
ATOM     19  C   UNL     1       7.317   1.227  22.659  0.00  0.00    +0.025 C 
ENDROOT
TORSDOF 0
ENDMDL
MODEL 2
REMARK VINA RESULT:      -6.8      2.087      5.379
REMARK  Name = 
REMARK  0 active torsions:
REMARK  status: ('A' for Active; 'I' for Inactive)
REMARK                            x       y       z     vdW  Elec       q    Type
REMARK                         _______ _______ _______ _____ _____    ______ ____
ROOT
ATOM      1  C   UNL     1       8.142  -4.289  23.735  0.00  0.00    +0.104 C 
ATOM      2  C   UNL     1       8.482  -2.843  23.522  0.00  0.00    +0.045 A 
ATOM      3  N   UNL     1       8.756  -2.270  22.307  0.00  0.00    -0.356 N 
ATOM      4  H   UNL     1       8.727  -2.739  21.412  0.00  0.00    +0.166 HD
ATOM      5  C   UNL     1       9.136  -0.958  22.474  0.00  0.00    +0.047 A 
ATOM      6  C   UNL     1       9.534  -0.014  21.519  0.00  0.00    +0.026 A 
ATOM      7  C   UNL     1       9.903   1.253  21.976  0.00  0.00    +0.002 A 
ATOM      8  C   UNL     1       9.871   1.564  23.333  0.00  0.00    +0.001 A 
ATOM      9  C   UNL     1       9.472   0.607  24.278  0.00  0.00    +0.011 A 
ATOM     10  C   UNL     1       9.097  -0.680  23.843  0.00  0.00    +0.011 A 
ATOM     11  C   UNL     1       8.715  -1.892  24.494  0.00  0.00    +0.048 A 
ATOM     12  C   UNL     1       8.623  -2.272  25.891  0.00  0.00    +0.179 C 
ATOM     13  O   UNL     1       8.633  -1.455  26.807  0.00  0.00    -0.291 OA
ATOM     14  C   UNL     1       8.658  -3.796  26.133  0.00  0.00    +0.164 C 
ATOM     15  N   UNL     1       7.853  -4.590  25.158  0.00  0.00    -0.287 NA
ATOM     16  C   UNL     1       6.453  -4.651  25.583  0.00  0.00    +0.085 C 
ATOM     17  C   UNL     1       5.493  -5.248  24.561  0.00  0.00    +0.015 C 
ATOM     18  C   UNL     1       5.653  -4.536  23.233  0.00  0.00    +0.003 C 
ATOM     19  C   UNL     1       7.071  -4.784  22.741  0.00  0.00    +0.025 C 
ENDROOT
TORSDOF 0
ENDMDL
MODEL 3
REMARK VINA RESULT:      -6.7      2.084      5.610
REMARK  Name = 
REMARK  0 active torsions:
REMARK  status: ('A' for Active; 'I' for Inactive)
REMARK                            x       y       z     vdW  Elec       q    Type
REMARK                         _______ _______ _______ _____ _____    ______ ____
ROOT
ATOM      1  C   UNL     1       7.351  -4.289  23.504  0.00  0.00    +0.104 C 
ATOM      2  C   UNL     1       7.598  -2.868  23.088  0.00  0.00    +0.045 A 
ATOM      3  N   UNL     1       8.611  -2.455  22.263  0.00  0.00    -0.356 N 
ATOM      4  H   UNL     1       9.286  -3.055  21.809  0.00  0.00    +0.166 HD
ATOM      5  C   UNL     1       8.622  -1.082  22.174  0.00  0.00    +0.047 A 
ATOM      6  C   UNL     1       9.495  -0.238  21.475  0.00  0.00    +0.026 A 
ATOM      7  C   UNL     1       9.294   1.140  21.587  0.00  0.00    +0.002 A 
ATOM      8  C   UNL     1       8.257   1.651  22.363  0.00  0.00    +0.001 A 
ATOM      9  C   UNL     1       7.391   0.794  23.058  0.00  0.00    +0.011 A 
ATOM     10  C   UNL     1       7.576  -0.601  22.964  0.00  0.00    +0.011 A 
ATOM     11  C   UNL     1       6.960  -1.741  23.563  0.00  0.00    +0.048 A 
ATOM     12  C   UNL     1       5.920  -1.885  24.564  0.00  0.00    +0.179 C 
ATOM     13  O   UNL     1       5.183  -0.963  24.900  0.00  0.00    -0.291 OA
ATOM     14  C   UNL     1       5.915  -3.256  25.272  0.00  0.00    +0.164 C 
ATOM     15  N   UNL     1       6.151  -4.417  24.365  0.00  0.00    -0.287 NA
ATOM     16  C   UNL     1       4.894  -4.841  23.743  0.00  0.00    +0.085 C 
ATOM     17  C   UNL     1       5.040  -5.875  22.633  0.00  0.00    +0.015 C 
ATOM     18  C   UNL     1       6.044  -5.387  21.609  0.00  0.00    +0.003 C 
ATOM     19  C   UNL     1       7.391  -5.257  22.304  0.00  0.00    +0.025 C 
ENDROOT
TORSDOF 0
ENDMDL
MODEL 4
REMARK VINA RESULT:      -6.6      1.976      5.030
REMARK  Name = 
REMARK  0 active torsions:
REMARK  status: ('A' for Active; 'I' for Inactive)
REMARK                            x       y       z     vdW  Elec       q    Type
REMARK                         _______ _______ _______ _____ _____    ______ ____
ROOT
ATOM      1  C   UNL     1       6.059  -2.869  24.302  0.00  0.00    +0.104 C 
ATOM      2  C   UNL     1       6.889  -1.732  23.781  0.00  0.00    +0.045 A 
ATOM      3  N   UNL     1       6.391  -0.540  23.322  0.00  0.00    -0.356 N 
ATOM      4  H   UNL     1       5.417  -0.271  23.313  0.00  0.00    +0.166 HD
ATOM      5  C   UNL     1       7.408   0.237  22.816  0.00  0.00    +0.047 A 
ATOM      6  C   UNL     1       7.353   1.503  22.219  0.00  0.00    +0.026 A 
ATOM      7  C   UNL     1       8.551   2.054  21.758  0.00  0.00    +0.002 A 
ATOM      8  C   UNL     1       9.755   1.367  21.893  0.00  0.00    +0.001 A 
ATOM      9  C   UNL     1       9.793   0.100  22.491  0.00  0.00    +0.011 A 
ATOM     10  C   UNL     1       8.598  -0.480  22.963  0.00  0.00    +0.011 A 
ATOM     11  C   UNL     1       8.248  -1.737  23.542  0.00  0.00    +0.048 A 
ATOM     12  C   UNL     1       9.010  -2.940  23.818  0.00  0.00    +0.179 C 
ATOM     13  O   UNL     1      10.237  -2.970  23.810  0.00  0.00    -0.291 OA
ATOM     14  C   UNL     1       8.147  -4.209  23.980  0.00  0.00    +0.164 C 
ATOM     15  N   UNL     1       6.894  -4.002  24.765  0.00  0.00    -0.287 NA
ATOM     16  C   UNL     1       7.167  -4.121  26.200  0.00  0.00    +0.085 C 
ATOM     17  C   UNL     1       6.015  -3.717  27.111  0.00  0.00    +0.015 C 
ATOM     18  C   UNL     1       5.529  -2.331  26.738  0.00  0.00    +0.003 C 
ATOM     19  C   UNL     1       4.997  -2.393  25.314  0.00  0.00    +0.025 C 
ENDROOT
TORSDOF 0
ENDMDL
MODEL 5
REMARK VINA RESULT:      -6.5      1.658      2.136
REMARK  Name = 
REMARK  0 active torsions:
REMARK  status: ('A' for Active; 'I' for Inactive)
REMARK                            x       y       z     vdW  Elec       q    Type
REMARK                         _______ _______ _______ _____ _____    ______ ____
ROOT
ATOM      1  C   UNL     1       7.901   0.801  23.141  0.00  0.00    +0.104 C 
ATOM      2  C   UNL     1       7.978  -0.675  23.402  0.00  0.00    +0.045 A 
ATOM      3  N   UNL     1       7.660  -1.652  22.495  0.00  0.00    -0.356 N 
ATOM      4  H   UNL     1       7.371  -1.500  21.538  0.00  0.00    +0.166 HD
ATOM      5  C   UNL     1       7.733  -2.893  23.086  0.00  0.00    +0.047 A 
ATOM      6  C   UNL     1       7.462  -4.157  22.548  0.00  0.00    +0.026 A 
ATOM      7  C   UNL     1       7.588  -5.262  23.393  0.00  0.00    +0.002 A 
ATOM      8  C   UNL     1       7.976  -5.107  24.722  0.00  0.00    +0.001 A 
ATOM      9  C   UNL     1       8.244  -3.835  25.246  0.00  0.00    +0.011 A 
ATOM     10  C   UNL     1       8.120  -2.703  24.415  0.00  0.00    +0.011 A 
ATOM     11  C   UNL     1       8.237  -1.293  24.608  0.00  0.00    +0.048 A 
ATOM     12  C   UNL     1       8.480  -0.478  25.783  0.00  0.00    +0.179 C 
ATOM     13  O   UNL     1       8.896  -0.939  26.842  0.00  0.00    -0.291 OA
ATOM     14  C   UNL     1       8.035   0.992  25.632  0.00  0.00    +0.164 C 
ATOM     15  N   UNL     1       8.356   1.597  24.306  0.00  0.00    -0.287 NA
ATOM     16  C   UNL     1       9.727   2.112  24.299  0.00  0.00    +0.085 C 
ATOM     17  C   UNL     1      10.244   2.557  22.937  0.00  0.00    +0.015 C 
ATOM     18  C   UNL     1      10.051   1.443  21.928  0.00  0.00    +0.003 C 
ATOM     19  C   UNL     1       8.557   1.186  21.799  0.00  0.00    +0.025 C 
ENDROOT
TORSDOF 0
ENDMDL
MODEL 6
REMARK VINA RESULT:      -6.3      2.999      6.835
REMARK  Name = 
REMARK  0 active torsions:
REMARK  status: ('A' for Active; 'I' for Inactive)
REMARK                            x       y       z     vdW  Elec       q    Type
REMARK                         _______ _______ _______ _____ _____    ______ ____
ROOT
ATOM      1  C   UNL     1       9.628  -0.131  24.157  0.00  0.00    +0.104 C 
ATOM      2  C   UNL     1       9.832   1.340  23.935  0.00  0.00    +0.045 A 
ATOM      3  N   UNL     1      11.029   1.930  23.625  0.00  0.00    -0.356 N 
ATOM      4  H   UNL     1      11.904   1.447  23.473  0.00  0.00    +0.166 HD
ATOM      5  C   UNL     1      10.892   3.299  23.599  0.00  0.00    +0.047 A 
ATOM      6  C   UNL     1      11.854   4.289  23.360  0.00  0.00    +0.026 A 
ATOM      7  C   UNL     1      11.442   5.622  23.427  0.00  0.00    +0.002 A 
ATOM      8  C   UNL     1      10.119   5.950  23.717  0.00  0.00    +0.001 A 
ATOM      9  C   UNL     1       9.168   4.947  23.954  0.00  0.00    +0.011 A 
ATOM     10  C   UNL     1       9.559   3.594  23.895  0.00  0.00    +0.011 A 
ATOM     11  C   UNL     1       8.911   2.346  24.140  0.00  0.00    +0.048 A 
ATOM     12  C   UNL     1       7.581   2.004  24.609  0.00  0.00    +0.179 C 
ATOM     13  O   UNL     1       6.655   2.809  24.639  0.00  0.00    -0.291 OA
ATOM     14  C   UNL     1       7.469   0.583  25.200  0.00  0.00    +0.164 C 
ATOM     15  N   UNL     1       8.209  -0.461  24.433  0.00  0.00    -0.287 NA
ATOM     16  C   UNL     1       7.388  -0.960  23.327  0.00  0.00    +0.085 C 
ATOM     17  C   UNL     1       8.112  -1.870  22.343  0.00  0.00    +0.015 C 
ATOM     18  C   UNL     1       9.373  -1.190  21.851  0.00  0.00    +0.003 C 
ATOM     19  C   UNL     1      10.286  -0.979  23.050  0.00  0.00    +0.025 C 
ENDROOT
TORSDOF 0
ENDMDL
MODEL 7
REMARK VINA RESULT:      -6.3      1.966      2.732
REMARK  Name = 
REMARK  0 active torsions:
REMARK  status: ('A' for Active; 'I' for Inactive)
REMARK                            x       y       z     vdW  Elec       q    Type
REMARK                         _______ _______ _______ _____ _____    ______ ____
ROOT
ATOM      1  C   UNL     1       8.423  -0.081  22.579  0.00  0.00    +0.104 C 
ATOM      2  C   UNL     1       7.725  -1.395  22.773  0.00  0.00    +0.045 A 
ATOM      3  N   UNL     1       8.000  -2.543  22.076  0.00  0.00    -0.356 N 
ATOM      4  H   UNL     1       8.724  -2.652  21.379  0.00  0.00    +0.166 HD
ATOM      5  C   UNL     1       7.108  -3.533  22.418  0.00  0.00    +0.047 A 
ATOM      6  C   UNL     1       6.997  -4.842  21.933  0.00  0.00    +0.026 A 
ATOM      7  C   UNL     1       5.964  -5.635  22.438  0.00  0.00    +0.002 A 
ATOM      8  C   UNL     1       5.080  -5.137  23.393  0.00  0.00    +0.001 A 
ATOM      9  C   UNL     1       5.203  -3.824  23.868  0.00  0.00    +0.011 A 
ATOM     10  C   UNL     1       6.236  -3.002  23.372  0.00  0.00    +0.011 A 
ATOM     11  C   UNL     1       6.618  -1.640  23.559  0.00  0.00    +0.048 A 
ATOM     12  C   UNL     1       6.030  -0.548  24.312  0.00  0.00    +0.179 C 
ATOM     13  O   UNL     1       5.168  -0.716  25.170  0.00  0.00    -0.291 OA
ATOM     14  C   UNL     1       6.476   0.852  23.843  0.00  0.00    +0.164 C 
ATOM     15  N   UNL     1       7.929   0.956  23.516  0.00  0.00    -0.287 NA
ATOM     16  C   UNL     1       8.706   1.221  24.729  0.00  0.00    +0.085 C 
ATOM     17  C   UNL     1      10.218   1.133  24.559  0.00  0.00    +0.015 C 
ATOM     18  C   UNL     1      10.584  -0.195  23.928  0.00  0.00    +0.003 C 
ATOM     19  C   UNL     1       9.956  -0.241  22.543  0.00  0.00    +0.025 C 
ENDROOT
TORSDOF 0
ENDMDL
MODEL 8
REMARK VINA RESULT:      -6.2      2.409      3.077
REMARK  Name = 
REMARK  0 active torsions:
REMARK  status: ('A' for Active; 'I' for Inactive)
REMARK                            x       y       z     vdW  Elec       q    Type
REMARK                         _______ _______ _______ _____ _____    ______ ____
ROOT
ATOM      1  C   UNL     1       9.679  -1.233  24.219  0.00  0.00    +0.104 C 
ATOM      2  C   UNL     1       8.708  -2.277  24.689  0.00  0.00    +0.045 A 
ATOM      3  N   UNL     1       8.688  -2.823  25.946  0.00  0.00    -0.356 N 
ATOM      4  H   UNL     1       9.295  -2.567  26.712  0.00  0.00    +0.166 HD
ATOM      5  C   UNL     1       7.749  -3.827  26.014  0.00  0.00    +0.047 A 
ATOM      6  C   UNL     1       7.415  -4.669  27.082  0.00  0.00    +0.026 A 
ATOM      7  C   UNL     1       6.432  -5.636  26.863  0.00  0.00    +0.002 A 
ATOM      8  C   UNL     1       5.805  -5.752  25.625  0.00  0.00    +0.001 A 
ATOM      9  C   UNL     1       6.150  -4.903  24.564  0.00  0.00    +0.011 A 
ATOM     10  C   UNL     1       7.142  -3.920  24.759  0.00  0.00    +0.011 A 
ATOM     11  C   UNL     1       7.784  -2.957  23.923  0.00  0.00    +0.048 A 
ATOM     12  C   UNL     1       7.687  -2.664  22.506  0.00  0.00    +0.179 C 
ATOM     13  O   UNL     1       6.778  -3.085  21.797  0.00  0.00    -0.291 OA
ATOM     14  C   UNL     1       8.901  -1.900  21.937  0.00  0.00    +0.164 C 
ATOM     15  N   UNL     1       9.412  -0.813  22.822  0.00  0.00    -0.287 NA
ATOM     16  C   UNL     1       8.654   0.421  22.603  0.00  0.00    +0.085 C 
ATOM     17  C   UNL     1       8.937   1.538  23.600  0.00  0.00    +0.015 C 
ATOM     18  C   UNL     1       8.775   1.016  25.013  0.00  0.00    +0.003 C 
ATOM     19  C   UNL     1       9.814  -0.074  25.227  0.00  0.00    +0.025 C 
ENDROOT
TORSDOF 0
ENDMDL
MODEL 9
REMARK VINA RESULT:      -6.1      2.567      3.349
REMARK  Name = 
REMARK  0 active torsions:
REMARK  status: ('A' for Active; 'I' for Inactive)
REMARK                            x       y       z     vdW  Elec       q    Type
REMARK                         _______ _______ _______ _____ _____    ______ ____
ROOT
ATOM      1  C   UNL     1       9.213  -0.346  23.002  0.00  0.00    +0.104 C 
ATOM      2  C   UNL     1       8.803  -1.502  23.867  0.00  0.00    +0.045 A 
ATOM      3  N   UNL     1       9.581  -2.599  24.135  0.00  0.00    -0.356 N 
ATOM      4  H   UNL     1      10.528  -2.745  23.814  0.00  0.00    +0.166 HD
ATOM      5  C   UNL     1       8.868  -3.520  24.867  0.00  0.00    +0.047 A 
ATOM      6  C   UNL     1       9.252  -4.786  25.328  0.00  0.00    +0.026 A 
ATOM      7  C   UNL     1       8.305  -5.535  26.030  0.00  0.00    +0.002 A 
ATOM      8  C   UNL     1       7.026  -5.034  26.266  0.00  0.00    +0.001 A 
ATOM      9  C   UNL     1       6.656  -3.765  25.797  0.00  0.00    +0.011 A 
ATOM     10  C   UNL     1       7.593  -2.991  25.083  0.00  0.00    +0.011 A 
ATOM     11  C   UNL     1       7.557  -1.730  24.414  0.00  0.00    +0.048 A 
ATOM     12  C   UNL     1       6.492  -0.776  24.169  0.00  0.00    +0.179 C 
ATOM     13  O   UNL     1       5.419  -0.806  24.764  0.00  0.00    -0.291 OA
ATOM     14  C   UNL     1       6.769   0.190  22.998  0.00  0.00    +0.164 C 
ATOM     15  N   UNL     1       8.169   0.705  22.946  0.00  0.00    -0.287 NA
ATOM     16  C   UNL     1       8.315   1.873  23.818  0.00  0.00    +0.085 C 
ATOM     17  C   UNL     1       9.747   2.356  24.016  0.00  0.00    +0.015 C 
ATOM     18  C   UNL     1      10.618   1.200  24.465  0.00  0.00    +0.003 C 
ATOM     19  C   UNL     1      10.626   0.164  23.351  0.00  0.00    +0.025 C 
ENDROOT
TORSDOF 0
ENDMDL
