MODEL 1
REMARK VINA RESULT:      -7.5      0.000      0.000
REMARK  Name = 
REMARK  10 active torsions:
REMARK  status: ('A' for Active; 'I' for Inactive)
REMARK    1  A    between atoms: C_1  and  C_2
REMARK    2  A    between atoms: C_2  and  C_3
REMARK    3  A    between atoms: C_2  and  C_4
REMARK    4  A    between atoms: C_2  and  C_5
REMARK    5  A    between atoms: C_5  and  O_7
REMARK    6  A    between atoms: O_7  and  C_8
REMARK    7  A    between atoms: C_8  and  C_9
REMARK    8  A    between atoms: C_9  and  C_11
REMARK    9  A    between atoms: C_24  and  C_25
REMARK   10  A    between atoms: C_29  and  C_30
REMARK                            x       y       z     vdW  Elec       q    Type
REMARK                         _______ _______ _______ _____ _____    ______ ____
ROOT
ATOM      1  C   UNL     1       5.986  -4.901  23.562  0.00  0.00    +0.065 C 
ATOM      2  C   UNL     1       6.080  -3.331  23.444  0.00  0.00    -0.019 C 
ATOM      3  C   UNL     1       5.569  -2.976  22.020  0.00  0.00    +0.012 C 
ATOM      4  C   UNL     1       7.592  -3.095  23.761  0.00  0.00    -0.001 C 
ATOM      5  C   UNL     1       8.084  -1.838  23.078  0.00  0.00    -0.003 C 
ATOM      6  C   UNL     1       7.621  -0.661  23.983  0.00  0.00    +0.002 C 
ATOM      7  C   UNL     1       6.051  -0.832  24.269  0.00  0.00    +0.005 C 
ATOM      8  C   UNL     1       8.170   0.769  23.471  0.00  0.00    -0.007 C 
ATOM      9  C   UNL     1       7.057   1.501  22.689  0.00  0.00    +0.016 C 
ATOM     10  C   UNL     1       9.480   0.671  22.623  0.00  0.00    -0.060 C 
ATOM     11  C   UNL     1      10.452   1.594  22.603  0.00  0.00    +0.046 C 
ATOM     12  C   UNL     1      10.399   2.807  23.451  0.00  0.00    +0.156 C 
ATOM     13  C   UNL     1       9.176   3.018  24.297  0.00  0.00    +0.080 C 
ATOM     14  O   UNL     1      11.333   3.609  23.413  0.00  0.00    -0.293 OA
ATOM     15  C   UNL     1       9.783  -0.597  21.866  0.00  0.00    +0.032 C 
ATOM     16  C   UNL     1       8.543   1.674  24.697  0.00  0.00    +0.019 C 
ATOM     17  C   UNL     1       9.564  -1.800  22.767  0.00  0.00    +0.008 C 
ATOM     18  C   UNL     1       8.296  -4.434  23.745  0.00  0.00    +0.005 C 
ATOM     19  C   UNL     1       5.443  -2.314  24.429  0.00  0.00    +0.008 C 
ATOM     20  C   UNL     1       7.211  -5.304  24.380  0.00  0.00    +0.012 C 
ENDROOT
BRANCH   1  21
ATOM     21  C   UNL     1       4.712  -5.655  23.949  0.00  0.00    +0.174 C 
ATOM     22  O   UNL     1       3.656  -5.521  23.331  0.00  0.00    -0.293 OA
BRANCH  21  23
ATOM     23  C   UNL     1       4.886  -6.731  25.062  0.00  0.00    +0.306 C 
BRANCH  23  24
ATOM     24  O   UNL     1       4.218  -6.503  26.302  0.00  0.00    -0.457 OA
BRANCH  24  25
ATOM     25  C   UNL     1       5.059  -6.322  27.359  0.00  0.00    +0.313 C 
ATOM     26  O   UNL     1       5.706  -7.228  27.871  0.00  0.00    -0.250 OA
BRANCH  25  28
ATOM     27  C   UNL     1       6.317  -4.158  27.509  0.00  0.00    +0.022 C 
ATOM     28  C   UNL     1       5.016  -4.880  27.889  0.00  0.00    +0.059 C 
ATOM     29  C   UNL     1       3.835  -4.112  27.281  0.00  0.00    +0.022 C 
ATOM     30  C   UNL     1       4.897  -4.898  29.420  0.00  0.00    +0.022 C 
ENDBRANCH  25  28
ENDBRANCH  24  25
ENDBRANCH  23  24
ENDBRANCH  21  23
ENDBRANCH   1  21
TORSDOF 5
ENDMDL
MODEL 2
REMARK VINA RESULT:      -7.4      1.925      8.224
REMARK  Name = 
REMARK  10 active torsions:
REMARK  status: ('A' for Active; 'I' for Inactive)
REMARK    1  A    between atoms: C_1  and  C_2
REMARK    2  A    between atoms: C_2  and  C_3
REMARK    3  A    between atoms: C_2  and  C_4
REMARK    4  A    between atoms: C_2  and  C_5
REMARK    5  A    between atoms: C_5  and  O_7
REMARK    6  A    between atoms: O_7  and  C_8
REMARK    7  A    between atoms: C_8  and  C_9
REMARK    8  A    between atoms: C_9  and  C_11
REMARK    9  A    between atoms: C_24  and  C_25
REMARK   10  A    between atoms: C_29  and  C_30
REMARK                            x       y       z     vdW  Elec       q    Type
REMARK                         _______ _______ _______ _____ _____    ______ ____
ROOT
ATOM      1  C   UNL     1       9.474  -1.307  24.151  0.00  0.00    +0.065 C 
ATOM      2  C   UNL     1       7.975  -1.800  24.136  0.00  0.00    -0.019 C 
ATOM      3  C   UNL     1       7.281  -1.099  25.336  0.00  0.00    +0.012 C 
ATOM      4  C   UNL     1       8.167  -3.349  24.199  0.00  0.00    -0.001 C 
ATOM      5  C   UNL     1       6.971  -4.000  24.860  0.00  0.00    -0.003 C 
ATOM      6  C   UNL     1       5.881  -4.093  23.755  0.00  0.00    +0.002 C 
ATOM      7  C   UNL     1       5.712  -2.642  23.090  0.00  0.00    +0.005 C 
ATOM      8  C   UNL     1       4.562  -4.884  24.248  0.00  0.00    -0.007 C 
ATOM      9  C   UNL     1       3.466  -3.869  24.639  0.00  0.00    +0.016 C 
ATOM     10  C   UNL     1       4.835  -5.892  25.412  0.00  0.00    -0.060 C 
ATOM     11  C   UNL     1       4.183  -7.050  25.592  0.00  0.00    +0.046 C 
ATOM     12  C   UNL     1       3.148  -7.523  24.645  0.00  0.00    +0.156 C 
ATOM     13  C   UNL     1       2.788  -6.627  23.494  0.00  0.00    +0.080 C 
ATOM     14  O   UNL     1       2.600  -8.608  24.844  0.00  0.00    -0.293 OA
ATOM     15  C   UNL     1       5.997  -5.658  26.343  0.00  0.00    +0.032 C 
ATOM     16  C   UNL     1       3.987  -5.756  23.078  0.00  0.00    +0.019 C 
ATOM     17  C   UNL     1       7.242  -5.325  25.538  0.00  0.00    +0.008 C 
ATOM     18  C   UNL     1       9.615  -3.636  24.528  0.00  0.00    +0.005 C 
ATOM     19  C   UNL     1       7.009  -1.703  22.924  0.00  0.00    +0.008 C 
ATOM     20  C   UNL     1      10.289  -2.525  23.723  0.00  0.00    +0.012 C 
ENDROOT
BRANCH   1  21
ATOM     21  C   UNL     1       9.951   0.004  23.524  0.00  0.00    +0.174 C 
ATOM     22  O   UNL     1      10.163   0.116  22.317  0.00  0.00    -0.293 OA
BRANCH  21  23
ATOM     23  C   UNL     1       9.982   1.230  24.484  0.00  0.00    +0.306 C 
BRANCH  23  24
ATOM     24  O   UNL     1       8.799   2.021  24.574  0.00  0.00    -0.457 OA
BRANCH  24  25
ATOM     25  C   UNL     1       8.698   2.980  23.611  0.00  0.00    +0.313 C 
ATOM     26  O   UNL     1       9.518   3.879  23.464  0.00  0.00    -0.250 OA
BRANCH  25  28
ATOM     27  C   UNL     1       6.849   4.259  22.500  0.00  0.00    +0.022 C 
ATOM     28  C   UNL     1       7.394   2.856  22.810  0.00  0.00    +0.059 C 
ATOM     29  C   UNL     1       7.636   2.123  21.485  0.00  0.00    +0.022 C 
ATOM     30  C   UNL     1       6.348   2.101  23.643  0.00  0.00    +0.022 C 
ENDBRANCH  25  28
ENDBRANCH  24  25
ENDBRANCH  23  24
ENDBRANCH  21  23
ENDBRANCH   1  21
TORSDOF 5
ENDMDL
MODEL 3
REMARK VINA RESULT:      -7.3      2.313      4.050
REMARK  Name = 
REMARK  10 active torsions:
REMARK  status: ('A' for Active; 'I' for Inactive)
REMARK    1  A    between atoms: C_1  and  C_2
REMARK    2  A    between atoms: C_2  and  C_3
REMARK    3  A    between atoms: C_2  and  C_4
REMARK    4  A    between atoms: C_2  and  C_5
REMARK    5  A    between atoms: C_5  and  O_7
REMARK    6  A    between atoms: O_7  and  C_8
REMARK    7  A    between atoms: C_8  and  C_9
REMARK    8  A    between atoms: C_9  and  C_11
REMARK    9  A    between atoms: C_24  and  C_25
REMARK   10  A    between atoms: C_29  and  C_30
REMARK                            x       y       z     vdW  Elec       q    Type
REMARK                         _______ _______ _______ _____ _____    ______ ____
ROOT
ATOM      1  C   UNL     1       6.415  -1.576  25.537  0.00  0.00    +0.065 C 
ATOM      2  C   UNL     1       6.670  -0.150  24.914  0.00  0.00    -0.019 C 
ATOM      3  C   UNL     1       6.464  -0.308  23.382  0.00  0.00    +0.012 C 
ATOM      4  C   UNL     1       8.113   0.151  25.434  0.00  0.00    -0.001 C 
ATOM      5  C   UNL     1       8.833   1.079  24.479  0.00  0.00    -0.003 C 
ATOM      6  C   UNL     1       8.320   2.507  24.816  0.00  0.00    +0.002 C 
ATOM      7  C   UNL     1       6.714   2.479  24.816  0.00  0.00    +0.005 C 
ATOM      8  C   UNL     1       9.080   3.655  23.971  0.00  0.00    -0.007 C 
ATOM      9  C   UNL     1       8.200   4.088  22.779  0.00  0.00    +0.016 C 
ATOM     10  C   UNL     1      10.509   3.239  23.494  0.00  0.00    -0.060 C 
ATOM     11  C   UNL     1      11.547   4.077  23.360  0.00  0.00    +0.046 C 
ATOM     12  C   UNL     1      11.449   5.511  23.715  0.00  0.00    +0.156 C 
ATOM     13  C   UNL     1      10.116   6.031  24.171  0.00  0.00    +0.080 C 
ATOM     14  O   UNL     1      12.442   6.230  23.598  0.00  0.00    -0.293 OA
ATOM     15  C   UNL     1      10.831   1.780  23.291  0.00  0.00    +0.032 C 
ATOM     16  C   UNL     1       9.301   4.926  24.866  0.00  0.00    +0.019 C 
ATOM     17  C   UNL     1      10.342   0.975  24.483  0.00  0.00    +0.008 C 
ATOM     18  C   UNL     1       8.684  -1.122  26.018  0.00  0.00    +0.005 C 
ATOM     19  C   UNL     1       5.956   1.160  25.343  0.00  0.00    +0.008 C 
ATOM     20  C   UNL     1       7.427  -1.692  26.675  0.00  0.00    +0.012 C 
ENDROOT
BRANCH   1  21
ATOM     21  C   UNL     1       5.029  -2.121  25.889  0.00  0.00    +0.174 C 
ATOM     22  O   UNL     1       4.380  -1.697  26.845  0.00  0.00    -0.293 OA
BRANCH  21  23
ATOM     23  C   UNL     1       4.424  -3.120  24.859  0.00  0.00    +0.306 C 
BRANCH  23  24
ATOM     24  O   UNL     1       5.212  -4.257  24.510  0.00  0.00    -0.457 OA
BRANCH  24  25
ATOM     25  C   UNL     1       5.667  -4.243  23.225  0.00  0.00    +0.313 C 
ATOM     26  O   UNL     1       4.942  -4.065  22.253  0.00  0.00    -0.250 OA
BRANCH  25  28
ATOM     27  C   UNL     1       7.931  -3.357  22.610  0.00  0.00    +0.022 C 
ATOM     28  C   UNL     1       7.164  -4.577  23.142  0.00  0.00    +0.059 C 
ATOM     29  C   UNL     1       7.719  -4.939  24.526  0.00  0.00    +0.022 C 
ATOM     30  C   UNL     1       7.377  -5.748  22.170  0.00  0.00    +0.022 C 
ENDBRANCH  25  28
ENDBRANCH  24  25
ENDBRANCH  23  24
ENDBRANCH  21  23
ENDBRANCH   1  21
TORSDOF 5
ENDMDL
MODEL 4
REMARK VINA RESULT:      -7.2      1.225      2.368
REMARK  Name = 
REMARK  10 active torsions:
REMARK  status: ('A' for Active; 'I' for Inactive)
REMARK    1  A    between atoms: C_1  and  C_2
REMARK    2  A    between atoms: C_2  and  C_3
REMARK    3  A    between atoms: C_2  and  C_4
REMARK    4  A    between atoms: C_2  and  C_5
REMARK    5  A    between atoms: C_5  and  O_7
REMARK    6  A    between atoms: O_7  and  C_8
REMARK    7  A    between atoms: C_8  and  C_9
REMARK    8  A    between atoms: C_9  and  C_11
REMARK    9  A    between atoms: C_24  and  C_25
REMARK   10  A    between atoms: C_29  and  C_30
REMARK                            x       y       z     vdW  Elec       q    Type
REMARK                         _______ _______ _______ _____ _____    ______ ____
ROOT
ATOM      1  C   UNL     1       4.772  -4.520  24.549  0.00  0.00    +0.065 C 
ATOM      2  C   UNL     1       6.053  -3.847  23.922  0.00  0.00    -0.019 C 
ATOM      3  C   UNL     1       7.267  -4.666  24.443  0.00  0.00    +0.012 C 
ATOM      4  C   UNL     1       5.893  -2.374  24.419  0.00  0.00    -0.001 C 
ATOM      5  C   UNL     1       7.248  -1.712  24.545  0.00  0.00    -0.003 C 
ATOM      6  C   UNL     1       7.637  -1.275  23.105  0.00  0.00    +0.002 C 
ATOM      7  C   UNL     1       7.475  -2.542  22.133  0.00  0.00    +0.005 C 
ATOM      8  C   UNL     1       9.013  -0.430  23.062  0.00  0.00    -0.007 C 
ATOM      9  C   UNL     1      10.174  -1.352  22.633  0.00  0.00    +0.016 C 
ATOM     10  C   UNL     1       9.342   0.299  24.405  0.00  0.00    -0.060 C 
ATOM     11  C   UNL     1       9.978   1.476  24.504  0.00  0.00    +0.046 C 
ATOM     12  C   UNL     1      10.392   2.246  23.309  0.00  0.00    +0.156 C 
ATOM     13  C   UNL     1      10.143   1.635  21.961  0.00  0.00    +0.080 C 
ATOM     14  O   UNL     1      10.948   3.335  23.458  0.00  0.00    -0.293 OA
ATOM     15  C   UNL     1       8.805  -0.252  25.702  0.00  0.00    +0.032 C 
ATOM     16  C   UNL     1       8.911   0.713  21.991  0.00  0.00    +0.019 C 
ATOM     17  C   UNL     1       7.331  -0.583  25.549  0.00  0.00    +0.008 C 
ATOM     18  C   UNL     1       4.799  -2.340  25.463  0.00  0.00    +0.005 C 
ATOM     19  C   UNL     1       6.285  -3.591  22.408  0.00  0.00    +0.008 C 
ATOM     20  C   UNL     1       3.832  -3.357  24.857  0.00  0.00    +0.012 C 
ENDROOT
BRANCH   1  21
ATOM     21  C   UNL     1       4.067  -5.740  23.954  0.00  0.00    +0.174 C 
ATOM     22  O   UNL     1       3.572  -5.727  22.827  0.00  0.00    -0.293 OA
BRANCH  21  23
ATOM     23  C   UNL     1       4.170  -7.047  24.795  0.00  0.00    +0.306 C 
BRANCH  23  24
ATOM     24  O   UNL     1       3.540  -7.053  26.074  0.00  0.00    -0.457 OA
BRANCH  24  25
ATOM     25  C   UNL     1       4.357  -6.675  27.097  0.00  0.00    +0.313 C 
ATOM     26  O   UNL     1       5.519  -7.049  27.207  0.00  0.00    -0.250 OA
BRANCH  25  28
ATOM     27  C   UNL     1       4.456  -4.568  28.454  0.00  0.00    +0.022 C 
ATOM     28  C   UNL     1       3.619  -5.817  28.136  0.00  0.00    +0.059 C 
ATOM     29  C   UNL     1       2.254  -5.367  27.601  0.00  0.00    +0.022 C 
ATOM     30  C   UNL     1       3.435  -6.622  29.431  0.00  0.00    +0.022 C 
ENDBRANCH  25  28
ENDBRANCH  24  25
ENDBRANCH  23  24
ENDBRANCH  21  23
ENDBRANCH   1  21
TORSDOF 5
ENDMDL
MODEL 5
REMARK VINA RESULT:      -7.0      1.830      8.681
REMARK  Name = 
REMARK  10 active torsions:
REMARK  status: ('A' for Active; 'I' for Inactive)
REMARK    1  A    between atoms: C_1  and  C_2
REMARK    2  A    between atoms: C_2  and  C_3
REMARK    3  A    between atoms: C_2  and  C_4
REMARK    4  A    between atoms: C_2  and  C_5
REMARK    5  A    between atoms: C_5  and  O_7
REMARK    6  A    between atoms: O_7  and  C_8
REMARK    7  A    between atoms: C_8  and  C_9
REMARK    8  A    between atoms: C_9  and  C_11
REMARK    9  A    between atoms: C_24  and  C_25
REMARK   10  A    between atoms: C_29  and  C_30
REMARK                            x       y       z     vdW  Elec       q    Type
REMARK                         _______ _______ _______ _____ _____    ______ ____
ROOT
ATOM      1  C   UNL     1       9.365   0.553  23.312  0.00  0.00    +0.065 C 
ATOM      2  C   UNL     1       9.141  -0.889  23.912  0.00  0.00    -0.019 C 
ATOM      3  C   UNL     1      10.210  -1.800  23.248  0.00  0.00    +0.012 C 
ATOM      4  C   UNL     1       7.641  -1.134  23.553  0.00  0.00    -0.001 C 
ATOM      5  C   UNL     1       7.373  -2.616  23.397  0.00  0.00    -0.003 C 
ATOM      6  C   UNL     1       7.207  -3.165  24.842  0.00  0.00    +0.002 C 
ATOM      7  C   UNL     1       8.469  -2.687  25.712  0.00  0.00    +0.005 C 
ATOM      8  C   UNL     1       6.787  -4.725  24.869  0.00  0.00    -0.007 C 
ATOM      9  C   UNL     1       8.035  -5.592  25.145  0.00  0.00    +0.016 C 
ATOM     10  C   UNL     1       6.050  -5.198  23.575  0.00  0.00    -0.060 C 
ATOM     11  C   UNL     1       5.093  -6.136  23.537  0.00  0.00    +0.046 C 
ATOM     12  C   UNL     1       4.591  -6.795  24.764  0.00  0.00    +0.156 C 
ATOM     13  C   UNL     1       5.239  -6.433  26.069  0.00  0.00    +0.080 C 
ATOM     14  O   UNL     1       3.691  -7.632  24.673  0.00  0.00    -0.293 OA
ATOM     15  C   UNL     1       6.297  -4.479  22.273  0.00  0.00    +0.032 C 
ATOM     16  C   UNL     1       5.774  -4.991  26.038  0.00  0.00    +0.019 C 
ATOM     17  C   UNL     1       6.217  -2.978  22.490  0.00  0.00    +0.008 C 
ATOM     18  C   UNL     1       7.200  -0.057  22.587  0.00  0.00    +0.005 C 
ATOM     19  C   UNL     1       9.112  -1.239  25.424  0.00  0.00    +0.008 C 
ATOM     20  C   UNL     1       7.961   1.136  23.165  0.00  0.00    +0.012 C 
ENDROOT
BRANCH   1  21
ATOM     21  C   UNL     1      10.393   1.553  23.845  0.00  0.00    +0.174 C 
ATOM     22  O   UNL     1      11.387   1.198  24.479  0.00  0.00    -0.293 OA
BRANCH  21  23
ATOM     23  C   UNL     1      10.191   3.027  23.385  0.00  0.00    +0.306 C 
BRANCH  23  24
ATOM     24  O   UNL     1       9.545   3.914  24.295  0.00  0.00    -0.457 OA
BRANCH  24  25
ATOM     25  C   UNL     1       9.201   5.115  23.750  0.00  0.00    +0.313 C 
ATOM     26  O   UNL     1      10.018   5.974  23.437  0.00  0.00    -0.250 OA
BRANCH  25  28
ATOM     27  C   UNL     1       7.183   4.879  22.280  0.00  0.00    +0.022 C 
ATOM     28  C   UNL     1       7.678   5.298  23.673  0.00  0.00    +0.059 C 
ATOM     29  C   UNL     1       6.972   4.431  24.724  0.00  0.00    +0.022 C 
ATOM     30  C   UNL     1       7.326   6.776  23.892  0.00  0.00    +0.022 C 
ENDBRANCH  25  28
ENDBRANCH  24  25
ENDBRANCH  23  24
ENDBRANCH  21  23
ENDBRANCH   1  21
TORSDOF 5
ENDMDL
MODEL 6
REMARK VINA RESULT:      -7.0      1.528      2.540
REMARK  Name = 
REMARK  10 active torsions:
REMARK  status: ('A' for Active; 'I' for Inactive)
REMARK    1  A    between atoms: C_1  and  C_2
REMARK    2  A    between atoms: C_2  and  C_3
REMARK    3  A    between atoms: C_2  and  C_4
REMARK    4  A    between atoms: C_2  and  C_5
REMARK    5  A    between atoms: C_5  and  O_7
REMARK    6  A    between atoms: O_7  and  C_8
REMARK    7  A    between atoms: C_8  and  C_9
REMARK    8  A    between atoms: C_9  and  C_11
REMARK    9  A    between atoms: C_24  and  C_25
REMARK   10  A    between atoms: C_29  and  C_30
REMARK                            x       y       z     vdW  Elec       q    Type
REMARK                         _______ _______ _______ _____ _____    ______ ____
ROOT
ATOM      1  C   UNL     1       6.643  -5.183  24.980  0.00  0.00    +0.065 C 
ATOM      2  C   UNL     1       6.592  -3.648  24.621  0.00  0.00    -0.019 C 
ATOM      3  C   UNL     1       5.972  -3.560  23.199  0.00  0.00    +0.012 C 
ATOM      4  C   UNL     1       8.092  -3.248  24.795  0.00  0.00    -0.001 C 
ATOM      5  C   UNL     1       8.431  -2.077  23.899  0.00  0.00    -0.003 C 
ATOM      6  C   UNL     1       7.918  -0.814  24.647  0.00  0.00    +0.002 C 
ATOM      7  C   UNL     1       6.387  -1.062  25.063  0.00  0.00    +0.005 C 
ATOM      8  C   UNL     1       8.309   0.558  23.891  0.00  0.00    -0.007 C 
ATOM      9  C   UNL     1       7.094   1.070  23.087  0.00  0.00    +0.016 C 
ATOM     10  C   UNL     1       9.573   0.433  22.980  0.00  0.00    -0.060 C 
ATOM     11  C   UNL     1      10.457   1.416  22.755  0.00  0.00    +0.046 C 
ATOM     12  C   UNL     1      10.344   2.738  23.413  0.00  0.00    +0.156 C 
ATOM     13  C   UNL     1       9.157   2.980  24.300  0.00  0.00    +0.080 C 
ATOM     14  O   UNL     1      11.200   3.595  23.192  0.00  0.00    -0.293 OA
ATOM     15  C   UNL     1       9.944  -0.909  22.401  0.00  0.00    +0.032 C 
ATOM     16  C   UNL     1       8.668   1.669  24.940  0.00  0.00    +0.019 C 
ATOM     17  C   UNL     1       9.883  -1.971  23.486  0.00  0.00    +0.008 C 
ATOM     18  C   UNL     1       8.909  -4.514  24.932  0.00  0.00    +0.005 C 
ATOM     19  C   UNL     1       5.922  -2.545  25.484  0.00  0.00    +0.008 C 
ATOM     20  C   UNL     1       7.943  -5.358  25.763  0.00  0.00    +0.012 C 
ENDROOT
BRANCH   1  21
ATOM     21  C   UNL     1       5.465  -5.967  25.561  0.00  0.00    +0.174 C 
ATOM     22  O   UNL     1       5.097  -5.831  26.728  0.00  0.00    -0.293 OA
BRANCH  21  23
ATOM     23  C   UNL     1       4.656  -6.814  24.535  0.00  0.00    +0.306 C 
BRANCH  23  24
ATOM     24  O   UNL     1       3.233  -6.760  24.619  0.00  0.00    -0.457 OA
BRANCH  24  25
ATOM     25  C   UNL     1       2.679  -5.698  23.968  0.00  0.00    +0.313 C 
ATOM     26  O   UNL     1       2.946  -5.402  22.809  0.00  0.00    -0.250 OA
BRANCH  25  28
ATOM     27  C   UNL     1       1.464  -5.672  26.161  0.00  0.00    +0.022 C 
ATOM     28  C   UNL     1       1.770  -4.869  24.888  0.00  0.00    +0.059 C 
ATOM     29  C   UNL     1       2.455  -3.556  25.290  0.00  0.00    +0.022 C 
ATOM     30  C   UNL     1       0.446  -4.571  24.169  0.00  0.00    +0.022 C 
ENDBRANCH  25  28
ENDBRANCH  24  25
ENDBRANCH  23  24
ENDBRANCH  21  23
ENDBRANCH   1  21
TORSDOF 5
ENDMDL
MODEL 7
REMARK VINA RESULT:      -6.9      1.969      8.300
REMARK  Name = 
REMARK  10 active torsions:
REMARK  status: ('A' for Active; 'I' for Inactive)
REMARK    1  A    between atoms: C_1  and  C_2
REMARK    2  A    between atoms: C_2  and  C_3
REMARK    3  A    between atoms: C_2  and  C_4
REMARK    4  A    between atoms: C_2  and  C_5
REMARK    5  A    between atoms: C_5  and  O_7
REMARK    6  A    between atoms: O_7  and  C_8
REMARK    7  A    between atoms: C_8  and  C_9
REMARK    8  A    between atoms: C_9  and  C_11
REMARK    9  A    between atoms: C_24  and  C_25
REMARK   10  A    between atoms: C_29  and  C_30
REMARK                            x       y       z     vdW  Elec       q    Type
REMARK                         _______ _______ _______ _____ _____    ______ ____
ROOT
ATOM      1  C   UNL     1      10.204   1.805  23.195  0.00  0.00    +0.065 C 
ATOM      2  C   UNL     1       9.341   0.840  24.096  0.00  0.00    -0.019 C 
ATOM      3  C   UNL     1      10.329   0.202  25.111  0.00  0.00    +0.012 C 
ATOM      4  C   UNL     1       8.699  -0.087  23.014  0.00  0.00    -0.001 C 
ATOM      5  C   UNL     1       8.398  -1.449  23.600  0.00  0.00    -0.003 C 
ATOM      6  C   UNL     1       7.062  -1.286  24.378  0.00  0.00    +0.002 C 
ATOM      7  C   UNL     1       7.203  -0.026  25.362  0.00  0.00    +0.005 C 
ATOM      8  C   UNL     1       6.514  -2.684  24.973  0.00  0.00    -0.007 C 
ATOM      9  C   UNL     1       6.874  -2.785  26.471  0.00  0.00    +0.016 C 
ATOM     10  C   UNL     1       7.018  -3.939  24.188  0.00  0.00    -0.060 C 
ATOM     11  C   UNL     1       6.318  -5.070  24.020  0.00  0.00    +0.046 C 
ATOM     12  C   UNL     1       4.937  -5.220  24.530  0.00  0.00    +0.156 C 
ATOM     13  C   UNL     1       4.352  -4.083  25.317  0.00  0.00    +0.080 C 
ATOM     14  O   UNL     1       4.329  -6.272  24.323  0.00  0.00    -0.293 OA
ATOM     15  C   UNL     1       8.320  -3.870  23.431  0.00  0.00    +0.032 C 
ATOM     16  C   UNL     1       4.949  -2.738  24.870  0.00  0.00    +0.019 C 
ATOM     17  C   UNL     1       8.371  -2.593  22.610  0.00  0.00    +0.008 C 
ATOM     18  C   UNL     1       9.396   0.167  21.696  0.00  0.00    +0.005 C 
ATOM     19  C   UNL     1       8.067   1.246  24.885  0.00  0.00    +0.008 C 
ATOM     20  C   UNL     1       9.601   1.678  21.798  0.00  0.00    +0.012 C 
ENDROOT
BRANCH   1  21
ATOM     21  C   UNL     1      10.567   3.241  23.581  0.00  0.00    +0.174 C 
ATOM     22  O   UNL     1      11.679   3.719  23.360  0.00  0.00    -0.293 OA
BRANCH  21  23
ATOM     23  C   UNL     1       9.386   4.108  24.109  0.00  0.00    +0.306 C 
BRANCH  23  24
ATOM     24  O   UNL     1       8.405   4.524  23.161  0.00  0.00    -0.457 OA
BRANCH  24  25
ATOM     25  C   UNL     1       7.297   5.088  23.720  0.00  0.00    +0.313 C 
ATOM     26  O   UNL     1       7.343   6.007  24.530  0.00  0.00    -0.250 OA
BRANCH  25  28
ATOM     27  C   UNL     1       5.389   3.667  24.513  0.00  0.00    +0.022 C 
ATOM     28  C   UNL     1       6.008   4.369  23.295  0.00  0.00    +0.059 C 
ATOM     29  C   UNL     1       4.987   5.368  22.736  0.00  0.00    +0.022 C 
ATOM     30  C   UNL     1       6.337   3.308  22.235  0.00  0.00    +0.022 C 
ENDBRANCH  25  28
ENDBRANCH  24  25
ENDBRANCH  23  24
ENDBRANCH  21  23
ENDBRANCH   1  21
TORSDOF 5
ENDMDL
MODEL 8
REMARK VINA RESULT:      -6.9      2.219      8.346
REMARK  Name = 
REMARK  10 active torsions:
REMARK  status: ('A' for Active; 'I' for Inactive)
REMARK    1  A    between atoms: C_1  and  C_2
REMARK    2  A    between atoms: C_2  and  C_3
REMARK    3  A    between atoms: C_2  and  C_4
REMARK    4  A    between atoms: C_2  and  C_5
REMARK    5  A    between atoms: C_5  and  O_7
REMARK    6  A    between atoms: O_7  and  C_8
REMARK    7  A    between atoms: C_8  and  C_9
REMARK    8  A    between atoms: C_9  and  C_11
REMARK    9  A    between atoms: C_24  and  C_25
REMARK   10  A    between atoms: C_29  and  C_30
REMARK                            x       y       z     vdW  Elec       q    Type
REMARK                         _______ _______ _______ _____ _____    ______ ____
ROOT
ATOM      1  C   UNL     1       8.301  -1.934  23.642  0.00  0.00    +0.065 C 
ATOM      2  C   UNL     1       7.188  -3.021  23.381  0.00  0.00    -0.019 C 
ATOM      3  C   UNL     1       6.229  -2.408  22.323  0.00  0.00    +0.012 C 
ATOM      4  C   UNL     1       6.641  -3.244  24.827  0.00  0.00    -0.001 C 
ATOM      5  C   UNL     1       5.194  -3.686  24.779  0.00  0.00    -0.003 C 
ATOM      6  C   UNL     1       5.231  -5.208  24.465  0.00  0.00    +0.002 C 
ATOM      7  C   UNL     1       6.159  -5.434  23.175  0.00  0.00    +0.005 C 
ATOM      8  C   UNL     1       3.765  -5.885  24.499  0.00  0.00    -0.007 C 
ATOM      9  C   UNL     1       3.232  -6.039  23.058  0.00  0.00    +0.016 C 
ATOM     10  C   UNL     1       2.741  -5.118  25.397  0.00  0.00    -0.060 C 
ATOM     11  C   UNL     1       1.751  -5.693  26.096  0.00  0.00    +0.046 C 
ATOM     12  C   UNL     1       1.563  -7.161  26.125  0.00  0.00    +0.156 C 
ATOM     13  C   UNL     1       2.478  -8.003  25.284  0.00  0.00    +0.080 C 
ATOM     14  O   UNL     1       0.653  -7.637  26.806  0.00  0.00    -0.293 OA
ATOM     15  C   UNL     1       2.924  -3.641  25.639  0.00  0.00    +0.032 C 
ATOM     16  C   UNL     1       3.850  -7.326  25.115  0.00  0.00    +0.019 C 
ATOM     17  C   UNL     1       4.371  -3.354  26.004  0.00  0.00    +0.008 C 
ATOM     18  C   UNL     1       7.197  -2.158  25.720  0.00  0.00    +0.005 C 
ATOM     19  C   UNL     1       7.450  -4.494  22.967  0.00  0.00    +0.008 C 
ATOM     20  C   UNL     1       8.605  -2.037  25.135  0.00  0.00    +0.012 C 
ENDROOT
BRANCH   1  21
ATOM     21  C   UNL     1       9.547  -1.757  22.772  0.00  0.00    +0.174 C 
ATOM     22  O   UNL     1      10.566  -2.426  22.940  0.00  0.00    -0.293 OA
BRANCH  21  23
ATOM     23  C   UNL     1       9.379  -0.802  21.553  0.00  0.00    +0.306 C 
BRANCH  23  24
ATOM     24  O   UNL     1       8.555   0.348  21.732  0.00  0.00    -0.457 OA
BRANCH  24  25
ATOM     25  C   UNL     1       9.205   1.418  22.272  0.00  0.00    +0.313 C 
ATOM     26  O   UNL     1      10.311   1.794  21.902  0.00  0.00    -0.250 OA
BRANCH  25  28
ATOM     27  C   UNL     1       8.418   3.552  23.327  0.00  0.00    +0.022 C 
ATOM     28  C   UNL     1       8.434   2.021  23.456  0.00  0.00    +0.059 C 
ATOM     29  C   UNL     1       6.986   1.517  23.478  0.00  0.00    +0.022 C 
ATOM     30  C   UNL     1       9.138   1.651  24.770  0.00  0.00    +0.022 C 
ENDBRANCH  25  28
ENDBRANCH  24  25
ENDBRANCH  23  24
ENDBRANCH  21  23
ENDBRANCH   1  21
TORSDOF 5
ENDMDL
MODEL 9
REMARK VINA RESULT:      -6.8      2.118      3.409
REMARK  Name = 
REMARK  10 active torsions:
REMARK  status: ('A' for Active; 'I' for Inactive)
REMARK    1  A    between atoms: C_1  and  C_2
REMARK    2  A    between atoms: C_2  and  C_3
REMARK    3  A    between atoms: C_2  and  C_4
REMARK    4  A    between atoms: C_2  and  C_5
REMARK    5  A    between atoms: C_5  and  O_7
REMARK    6  A    between atoms: O_7  and  C_8
REMARK    7  A    between atoms: C_8  and  C_9
REMARK    8  A    between atoms: C_9  and  C_11
REMARK    9  A    between atoms: C_24  and  C_25
REMARK   10  A    between atoms: C_29  and  C_30
REMARK                            x       y       z     vdW  Elec       q    Type
REMARK                         _______ _______ _______ _____ _____    ______ ____
ROOT
ATOM      1  C   UNL     1       8.873  -3.455  25.298  0.00  0.00    +0.065 C 
ATOM      2  C   UNL     1       8.648  -2.337  24.208  0.00  0.00    -0.019 C 
ATOM      3  C   UNL     1       9.944  -2.304  23.352  0.00  0.00    +0.012 C 
ATOM      4  C   UNL     1       8.330  -1.100  25.108  0.00  0.00    -0.001 C 
ATOM      5  C   UNL     1       8.735   0.178  24.407  0.00  0.00    -0.003 C 
ATOM      6  C   UNL     1       7.581   0.495  23.413  0.00  0.00    +0.002 C 
ATOM      7  C   UNL     1       7.295  -0.820  22.537  0.00  0.00    +0.005 C 
ATOM      8  C   UNL     1       7.783   1.908  22.657  0.00  0.00    -0.007 C 
ATOM      9  C   UNL     1       8.353   1.662  21.244  0.00  0.00    +0.016 C 
ATOM     10  C   UNL     1       8.668   2.923  23.451  0.00  0.00    -0.060 C 
ATOM     11  C   UNL     1       8.513   4.254  23.432  0.00  0.00    +0.046 C 
ATOM     12  C   UNL     1       7.419   4.906  22.677  0.00  0.00    +0.156 C 
ATOM     13  C   UNL     1       6.513   4.031  21.860  0.00  0.00    +0.080 C 
ATOM     14  O   UNL     1       7.307   6.132  22.717  0.00  0.00    -0.293 OA
ATOM     15  C   UNL     1       9.693   2.409  24.430  0.00  0.00    +0.032 C 
ATOM     16  C   UNL     1       6.399   2.626  22.477  0.00  0.00    +0.019 C 
ATOM     17  C   UNL     1       9.071   1.341  25.314  0.00  0.00    +0.008 C 
ATOM     18  C   UNL     1       8.658  -1.457  26.541  0.00  0.00    +0.005 C 
ATOM     19  C   UNL     1       7.446  -2.267  23.227  0.00  0.00    +0.008 C 
ATOM     20  C   UNL     1       8.198  -2.914  26.557  0.00  0.00    +0.012 C 
ENDROOT
BRANCH   1  21
ATOM     21  C   UNL     1       8.625  -4.946  25.059  0.00  0.00    +0.174 C 
ATOM     22  O   UNL     1       9.444  -5.664  24.485  0.00  0.00    -0.293 OA
BRANCH  21  23
ATOM     23  C   UNL     1       7.352  -5.529  25.742  0.00  0.00    +0.306 C 
BRANCH  23  24
ATOM     24  O   UNL     1       6.144  -5.525  24.985  0.00  0.00    -0.457 OA
BRANCH  24  25
ATOM     25  C   UNL     1       5.058  -5.075  25.675  0.00  0.00    +0.313 C 
ATOM     26  O   UNL     1       4.741  -5.491  26.783  0.00  0.00    -0.250 OA
BRANCH  25  28
ATOM     27  C   UNL     1       4.600  -2.640  25.286  0.00  0.00    +0.022 C 
ATOM     28  C   UNL     1       4.233  -4.069  24.857  0.00  0.00    +0.059 C 
ATOM     29  C   UNL     1       4.521  -4.219  23.358  0.00  0.00    +0.022 C 
ATOM     30  C   UNL     1       2.738  -4.291  25.128  0.00  0.00    +0.022 C 
ENDBRANCH  25  28
ENDBRANCH  24  25
ENDBRANCH  23  24
ENDBRANCH  21  23
ENDBRANCH   1  21
TORSDOF 5
ENDMDL
