MODEL 1
REMARK VINA RESULT:      -6.8      0.000      0.000
REMARK  Name = 
REMARK  3 active torsions:
REMARK  status: ('A' for Active; 'I' for Inactive)
REMARK    1  A    between atoms: C_1  and  C_2
REMARK    2  A    between atoms: C_3  and  C_14
REMARK    3  A    between atoms: C_11  and  N_12
REMARK                            x       y       z     vdW  Elec       q    Type
REMARK                         _______ _______ _______ _____ _____    ______ ____
ROOT
ATOM      1  C   UNL     1       6.647  -0.670  24.486  0.00  0.00    +0.045 C 
ATOM      2  C   UNL     1       7.871  -0.579  23.603  0.00  0.00    -0.030 A 
ATOM      3  C   UNL     1       8.657   0.648  23.635  0.00  0.00    +0.044 A 
ATOM      4  C   UNL     1       9.540   0.908  22.584  0.00  0.00    +0.078 A 
ATOM      5  N   UNL     1      10.209   2.055  22.434  0.00  0.00    -0.215 NA
ATOM      6  C   UNL     1      10.055   2.986  23.374  0.00  0.00    +0.215 A 
ATOM      7  N   UNL     1       9.369   2.817  24.489  0.00  0.00    -0.199 NA
ATOM      8  N   UNL     1      10.701   4.190  23.194  0.00  0.00    -0.327 N 
ATOM      9  H   UNL     1      10.872   4.617  24.094  0.00  0.00    +0.145 HD
ATOM     10  H   UNL     1      11.496   4.066  22.580  0.00  0.00    +0.145 HD
ATOM     11  C   UNL     1       9.767  -0.075  21.645  0.00  0.00    +0.029 A 
ATOM     12  C   UNL     1       9.157  -1.332  21.726  0.00  0.00    +0.011 A 
ATOM     13  C   UNL     1       8.691   1.663  24.618  0.00  0.00    +0.129 A 
ATOM     14  C   UNL     1       8.189  -1.629  22.698  0.00  0.00    -0.014 A 
ENDROOT
BRANCH  14  15
ATOM     15  C   UNL     1       7.592  -3.001  22.731  0.00  0.00    -0.018 A 
ATOM     16  C   UNL     1       8.088  -4.014  23.575  0.00  0.00    +0.008 A 
ATOM     17  C   UNL     1       7.533  -5.299  23.604  0.00  0.00    +0.001 A 
ATOM     18  C   UNL     1       6.500  -5.632  22.739  0.00  0.00    +0.000 A 
ATOM     19  C   UNL     1       6.014  -4.672  21.856  0.00  0.00    +0.001 A 
ATOM     20  C   UNL     1       6.539  -3.373  21.869  0.00  0.00    +0.008 A 
ENDBRANCH  14  15
BRANCH  13  21
ATOM     21  N   UNL     1       8.139   1.510  25.892  0.00  0.00    -0.343 N 
ATOM     22  H   UNL     1       8.227   0.580  26.265  0.00  0.00    +0.144 HD
ATOM     23  H   UNL     1       7.158   1.779  25.818  0.00  0.00    +0.144 HD
ENDBRANCH  13  21
TORSDOF 2
ENDMDL
MODEL 2
REMARK VINA RESULT:      -6.8      4.146      6.773
REMARK  Name = 
REMARK  3 active torsions:
REMARK  status: ('A' for Active; 'I' for Inactive)
REMARK    1  A    between atoms: C_1  and  C_2
REMARK    2  A    between atoms: C_3  and  C_14
REMARK    3  A    between atoms: C_11  and  N_12
REMARK                            x       y       z     vdW  Elec       q    Type
REMARK                         _______ _______ _______ _____ _____    ______ ____
ROOT
ATOM      1  C   UNL     1       9.930  -3.041  24.184  0.00  0.00    +0.045 C 
ATOM      2  C   UNL     1       8.491  -2.750  24.545  0.00  0.00    -0.030 A 
ATOM      3  C   UNL     1       7.740  -3.767  25.270  0.00  0.00    +0.044 A 
ATOM      4  C   UNL     1       6.346  -3.693  25.280  0.00  0.00    +0.078 A 
ATOM      5  N   UNL     1       5.549  -4.636  25.792  0.00  0.00    -0.215 NA
ATOM      6  C   UNL     1       6.129  -5.687  26.368  0.00  0.00    +0.215 A 
ATOM      7  N   UNL     1       7.430  -5.813  26.557  0.00  0.00    -0.199 NA
ATOM      8  N   UNL     1       5.311  -6.687  26.848  0.00  0.00    -0.327 N 
ATOM      9  H   UNL     1       5.781  -7.174  27.599  0.00  0.00    +0.145 HD
ATOM     10  H   UNL     1       4.390  -6.315  27.040  0.00  0.00    +0.145 HD
ATOM     11  C   UNL     1       5.733  -2.576  24.754  0.00  0.00    +0.029 A 
ATOM     12  C   UNL     1       6.467  -1.504  24.233  0.00  0.00    +0.011 A 
ATOM     13  C   UNL     1       8.218  -4.863  26.024  0.00  0.00    +0.129 A 
ATOM     14  C   UNL     1       7.864  -1.552  24.105  0.00  0.00    -0.014 A 
ENDROOT
BRANCH  14  15
ATOM     15  C   UNL     1       8.582  -0.360  23.551  0.00  0.00    -0.018 A 
ATOM     16  C   UNL     1       8.776  -0.181  22.167  0.00  0.00    +0.008 A 
ATOM     17  C   UNL     1       9.450   0.932  21.647  0.00  0.00    +0.001 A 
ATOM     18  C   UNL     1      10.008   1.872  22.502  0.00  0.00    +0.000 A 
ATOM     19  C   UNL     1       9.878   1.704  23.878  0.00  0.00    +0.001 A 
ATOM     20  C   UNL     1       9.158   0.616  24.390  0.00  0.00    +0.008 A 
ENDBRANCH  14  15
BRANCH  13  21
ATOM     21  N   UNL     1       9.551  -4.994  26.418  0.00  0.00    -0.343 N 
ATOM     22  H   UNL     1       9.938  -5.908  26.252  0.00  0.00    +0.144 HD
ATOM     23  H   UNL     1       9.585  -4.762  27.410  0.00  0.00    +0.144 HD
ENDBRANCH  13  21
TORSDOF 2
ENDMDL
MODEL 3
REMARK VINA RESULT:      -6.8      4.437      6.995
REMARK  Name = 
REMARK  3 active torsions:
REMARK  status: ('A' for Active; 'I' for Inactive)
REMARK    1  A    between atoms: C_1  and  C_2
REMARK    2  A    between atoms: C_3  and  C_14
REMARK    3  A    between atoms: C_11  and  N_12
REMARK                            x       y       z     vdW  Elec       q    Type
REMARK                         _______ _______ _______ _____ _____    ______ ____
ROOT
ATOM      1  C   UNL     1       9.232  -4.053  24.815  0.00  0.00    +0.045 C 
ATOM      2  C   UNL     1       7.774  -3.713  24.605  0.00  0.00    -0.030 A 
ATOM      3  C   UNL     1       6.768  -4.605  25.169  0.00  0.00    +0.044 A 
ATOM      4  C   UNL     1       5.461  -4.535  24.683  0.00  0.00    +0.078 A 
ATOM      5  N   UNL     1       4.488  -5.387  25.023  0.00  0.00    -0.215 NA
ATOM      6  C   UNL     1       4.780  -6.330  25.916  0.00  0.00    +0.215 A 
ATOM      7  N   UNL     1       5.928  -6.420  26.562  0.00  0.00    -0.199 NA
ATOM      8  N   UNL     1       3.796  -7.243  26.228  0.00  0.00    -0.327 N 
ATOM      9  H   UNL     1       3.954  -7.602  27.159  0.00  0.00    +0.145 HD
ATOM     10  H   UNL     1       2.886  -6.849  26.029  0.00  0.00    +0.145 HD
ATOM     11  C   UNL     1       5.125  -3.518  23.815  0.00  0.00    +0.029 A 
ATOM     12  C   UNL     1       6.049  -2.541  23.426  0.00  0.00    +0.011 A 
ATOM     13  C   UNL     1       6.900  -5.564  26.199  0.00  0.00    +0.129 A 
ATOM     14  C   UNL     1       7.400  -2.603  23.799  0.00  0.00    -0.014 A 
ENDROOT
BRANCH  14  15
ATOM     15  C   UNL     1       8.325  -1.513  23.355  0.00  0.00    -0.018 A 
ATOM     16  C   UNL     1       8.750  -0.491  24.227  0.00  0.00    +0.008 A 
ATOM     17  C   UNL     1       9.612   0.532  23.813  0.00  0.00    +0.001 A 
ATOM     18  C   UNL     1      10.028   0.601  22.490  0.00  0.00    +0.000 A 
ATOM     19  C   UNL     1       9.591  -0.365  21.588  0.00  0.00    +0.001 A 
ATOM     20  C   UNL     1       8.770  -1.415  22.021  0.00  0.00    +0.008 A 
ENDBRANCH  14  15
BRANCH  13  21
ATOM     21  N   UNL     1       8.008  -5.626  27.046  0.00  0.00    -0.343 N 
ATOM     22  H   UNL     1       8.342  -4.726  27.348  0.00  0.00    +0.144 HD
ATOM     23  H   UNL     1       8.735  -6.130  26.539  0.00  0.00    +0.144 HD
ENDBRANCH  13  21
TORSDOF 2
ENDMDL
MODEL 4
REMARK VINA RESULT:      -6.6      3.648      5.973
REMARK  Name = 
REMARK  3 active torsions:
REMARK  status: ('A' for Active; 'I' for Inactive)
REMARK    1  A    between atoms: C_1  and  C_2
REMARK    2  A    between atoms: C_3  and  C_14
REMARK    3  A    between atoms: C_11  and  N_12
REMARK                            x       y       z     vdW  Elec       q    Type
REMARK                         _______ _______ _______ _____ _____    ______ ____
ROOT
ATOM      1  C   UNL     1       7.680   0.207  25.953  0.00  0.00    +0.045 C 
ATOM      2  C   UNL     1       8.340  -0.561  24.831  0.00  0.00    -0.030 A 
ATOM      3  C   UNL     1       8.611  -1.980  25.029  0.00  0.00    +0.044 A 
ATOM      4  C   UNL     1       9.536  -2.610  24.194  0.00  0.00    +0.078 A 
ATOM      5  N   UNL     1       9.966  -3.864  24.364  0.00  0.00    -0.215 NA
ATOM      6  C   UNL     1       9.440  -4.565  25.366  0.00  0.00    +0.215 A 
ATOM      7  N   UNL     1       8.455  -4.145  26.138  0.00  0.00    -0.199 NA
ATOM      8  N   UNL     1       9.920  -5.840  25.577  0.00  0.00    -0.327 N 
ATOM      9  H   UNL     1       9.207  -6.397  26.026  0.00  0.00    +0.145 HD
ATOM     10  H   UNL     1      10.324  -6.202  24.722  0.00  0.00    +0.145 HD
ATOM     11  C   UNL     1      10.033  -1.921  23.109  0.00  0.00    +0.029 A 
ATOM     12  C   UNL     1       9.620  -0.618  22.806  0.00  0.00    +0.011 A 
ATOM     13  C   UNL     1       8.044  -2.876  25.963  0.00  0.00    +0.129 A 
ATOM     14  C   UNL     1       8.767   0.108  23.651  0.00  0.00    -0.014 A 
ENDROOT
BRANCH  14  15
ATOM     15  C   UNL     1       8.358   1.492  23.252  0.00  0.00    -0.018 A 
ATOM     16  C   UNL     1       9.025   2.637  23.731  0.00  0.00    +0.008 A 
ATOM     17  C   UNL     1       8.641   3.932  23.362  0.00  0.00    +0.001 A 
ATOM     18  C   UNL     1       7.533   4.126  22.548  0.00  0.00    +0.000 A 
ATOM     19  C   UNL     1       6.820   3.021  22.093  0.00  0.00    +0.001 A 
ATOM     20  C   UNL     1       7.240   1.726  22.424  0.00  0.00    +0.008 A 
ENDBRANCH  14  15
BRANCH  13  21
ATOM     21  N   UNL     1       6.897  -2.582  26.704  0.00  0.00    -0.343 N 
ATOM     22  H   UNL     1       6.173  -2.129  26.172  0.00  0.00    +0.144 HD
ATOM     23  H   UNL     1       7.196  -1.994  27.481  0.00  0.00    +0.144 HD
ENDBRANCH  13  21
TORSDOF 2
ENDMDL
MODEL 5
REMARK VINA RESULT:      -6.5      4.297      6.810
REMARK  Name = 
REMARK  3 active torsions:
REMARK  status: ('A' for Active; 'I' for Inactive)
REMARK    1  A    between atoms: C_1  and  C_2
REMARK    2  A    between atoms: C_3  and  C_14
REMARK    3  A    between atoms: C_11  and  N_12
REMARK                            x       y       z     vdW  Elec       q    Type
REMARK                         _______ _______ _______ _____ _____    ______ ____
ROOT
ATOM      1  C   UNL     1       7.107  -1.220  26.272  0.00  0.00    +0.045 C 
ATOM      2  C   UNL     1       7.633  -2.602  25.957  0.00  0.00    -0.030 A 
ATOM      3  C   UNL     1       7.117  -3.730  26.723  0.00  0.00    +0.044 A 
ATOM      4  C   UNL     1       7.837  -4.926  26.725  0.00  0.00    +0.078 A 
ATOM      5  N   UNL     1       7.539  -5.979  27.492  0.00  0.00    -0.215 NA
ATOM      6  C   UNL     1       6.460  -5.891  28.267  0.00  0.00    +0.215 A 
ATOM      7  N   UNL     1       5.611  -4.881  28.255  0.00  0.00    -0.199 NA
ATOM      8  N   UNL     1       6.181  -6.954  29.100  0.00  0.00    -0.327 N 
ATOM      9  H   UNL     1       5.189  -6.979  29.291  0.00  0.00    +0.145 HD
ATOM     10  H   UNL     1       6.607  -7.797  28.736  0.00  0.00    +0.145 HD
ATOM     11  C   UNL     1       8.913  -5.059  25.873  0.00  0.00    +0.029 A 
ATOM     12  C   UNL     1       9.289  -4.040  24.991  0.00  0.00    +0.011 A 
ATOM     13  C   UNL     1       5.932  -3.824  27.489  0.00  0.00    +0.129 A 
ATOM     14  C   UNL     1       8.671  -2.779  25.002  0.00  0.00    -0.014 A 
ENDROOT
BRANCH  14  15
ATOM     15  C   UNL     1       9.119  -1.744  24.017  0.00  0.00    -0.018 A 
ATOM     16  C   UNL     1       8.785  -1.817  22.651  0.00  0.00    +0.008 A 
ATOM     17  C   UNL     1       9.207  -0.852  21.728  0.00  0.00    +0.001 A 
ATOM     18  C   UNL     1      10.032   0.188  22.133  0.00  0.00    +0.000 A 
ATOM     19  C   UNL     1      10.422   0.268  23.467  0.00  0.00    +0.001 A 
ATOM     20  C   UNL     1       9.954  -0.673  24.395  0.00  0.00    +0.008 A 
ENDBRANCH  14  15
BRANCH  13  21
ATOM     21  N   UNL     1       4.900  -2.887  27.413  0.00  0.00    -0.343 N 
ATOM     22  H   UNL     1       5.137  -2.058  26.895  0.00  0.00    +0.144 HD
ATOM     23  H   UNL     1       4.648  -2.654  28.373  0.00  0.00    +0.144 HD
ENDBRANCH  13  21
TORSDOF 2
ENDMDL
MODEL 6
REMARK VINA RESULT:      -6.5      4.689      7.101
REMARK  Name = 
REMARK  3 active torsions:
REMARK  status: ('A' for Active; 'I' for Inactive)
REMARK    1  A    between atoms: C_1  and  C_2
REMARK    2  A    between atoms: C_3  and  C_14
REMARK    3  A    between atoms: C_11  and  N_12
REMARK                            x       y       z     vdW  Elec       q    Type
REMARK                         _______ _______ _______ _____ _____    ______ ____
ROOT
ATOM      1  C   UNL     1       8.432  -4.415  25.169  0.00  0.00    +0.045 C 
ATOM      2  C   UNL     1       7.297  -3.870  24.333  0.00  0.00    -0.030 A 
ATOM      3  C   UNL     1       6.107  -4.694  24.159  0.00  0.00    +0.044 A 
ATOM      4  C   UNL     1       5.231  -4.397  23.114  0.00  0.00    +0.078 A 
ATOM      5  N   UNL     1       4.185  -5.157  22.773  0.00  0.00    -0.215 NA
ATOM      6  C   UNL     1       3.945  -6.239  23.510  0.00  0.00    +0.215 A 
ATOM      7  N   UNL     1       4.602  -6.558  24.609  0.00  0.00    -0.199 NA
ATOM      8  N   UNL     1       2.901  -7.054  23.128  0.00  0.00    -0.327 N 
ATOM      9  H   UNL     1       2.550  -7.551  23.936  0.00  0.00    +0.145 HD
ATOM     10  H   UNL     1       2.234  -6.526  22.581  0.00  0.00    +0.145 HD
ATOM     11  C   UNL     1       5.424  -3.240  22.389  0.00  0.00    +0.029 A 
ATOM     12  C   UNL     1       6.458  -2.344  22.686  0.00  0.00    +0.011 A 
ATOM     13  C   UNL     1       5.659  -5.791  24.931  0.00  0.00    +0.129 A 
ATOM     14  C   UNL     1       7.430  -2.625  23.660  0.00  0.00    -0.014 A 
ENDROOT
BRANCH  14  15
ATOM     15  C   UNL     1       8.497  -1.610  23.931  0.00  0.00    -0.018 A 
ATOM     16  C   UNL     1       9.522  -1.337  23.004  0.00  0.00    +0.008 A 
ATOM     17  C   UNL     1      10.524  -0.392  23.258  0.00  0.00    +0.001 A 
ATOM     18  C   UNL     1      10.567   0.269  24.478  0.00  0.00    +0.000 A 
ATOM     19  C   UNL     1       9.598  -0.009  25.438  0.00  0.00    +0.001 A 
ATOM     20  C   UNL     1       8.569  -0.918  25.157  0.00  0.00    +0.008 A 
ENDBRANCH  14  15
BRANCH  13  21
ATOM     21  N   UNL     1       6.181  -6.103  26.188  0.00  0.00    -0.343 N 
ATOM     22  H   UNL     1       6.924  -6.781  26.164  0.00  0.00    +0.144 HD
ATOM     23  H   UNL     1       5.401  -6.440  26.751  0.00  0.00    +0.144 HD
ENDBRANCH  13  21
TORSDOF 2
ENDMDL
MODEL 7
REMARK VINA RESULT:      -6.4      2.603      6.536
REMARK  Name = 
REMARK  3 active torsions:
REMARK  status: ('A' for Active; 'I' for Inactive)
REMARK    1  A    between atoms: C_1  and  C_2
REMARK    2  A    between atoms: C_3  and  C_14
REMARK    3  A    between atoms: C_11  and  N_12
REMARK                            x       y       z     vdW  Elec       q    Type
REMARK                         _______ _______ _______ _____ _____    ______ ____
ROOT
ATOM      1  C   UNL     1       8.296   1.614  25.299  0.00  0.00    +0.045 C 
ATOM      2  C   UNL     1       8.637   1.144  23.903  0.00  0.00    -0.030 A 
ATOM      3  C   UNL     1       8.142  -0.158  23.471  0.00  0.00    +0.044 A 
ATOM      4  C   UNL     1       8.739  -0.771  22.368  0.00  0.00    +0.078 A 
ATOM      5  N   UNL     1       8.466  -2.015  21.963  0.00  0.00    -0.215 NA
ATOM      6  C   UNL     1       7.532  -2.689  22.631  0.00  0.00    +0.215 A 
ATOM      7  N   UNL     1       6.789  -2.181  23.596  0.00  0.00    -0.199 NA
ATOM      8  N   UNL     1       7.287  -3.991  22.250  0.00  0.00    -0.327 N 
ATOM      9  H   UNL     1       6.338  -4.239  22.494  0.00  0.00    +0.145 HD
ATOM     10  H   UNL     1       7.571  -4.128  21.289  0.00  0.00    +0.145 HD
ATOM     11  C   UNL     1       9.654  -0.059  21.623  0.00  0.00    +0.029 A 
ATOM     12  C   UNL     1       9.983   1.268  21.925  0.00  0.00    +0.011 A 
ATOM     13  C   UNL     1       7.085  -0.933  24.001  0.00  0.00    +0.129 A 
ATOM     14  C   UNL     1       9.494   1.914  23.071  0.00  0.00    -0.014 A 
ENDROOT
BRANCH  14  15
ATOM     15  C   UNL     1       9.880   3.339  23.319  0.00  0.00    -0.018 A 
ATOM     16  C   UNL     1      11.226   3.747  23.399  0.00  0.00    +0.008 A 
ATOM     17  C   UNL     1      11.589   5.079  23.635  0.00  0.00    +0.001 A 
ATOM     18  C   UNL     1      10.612   6.038  23.863  0.00  0.00    +0.000 A 
ATOM     19  C   UNL     1       9.271   5.664  23.839  0.00  0.00    +0.001 A 
ATOM     20  C   UNL     1       8.914   4.340  23.551  0.00  0.00    +0.008 A 
ENDBRANCH  14  15
BRANCH  13  21
ATOM     21  N   UNL     1       6.145  -0.428  24.901  0.00  0.00    -0.343 N 
ATOM     22  H   UNL     1       6.110   0.577  24.934  0.00  0.00    +0.144 HD
ATOM     23  H   UNL     1       6.381  -0.812  25.815  0.00  0.00    +0.144 HD
ENDBRANCH  13  21
TORSDOF 2
ENDMDL
MODEL 8
REMARK VINA RESULT:      -6.4      4.492      7.006
REMARK  Name = 
REMARK  3 active torsions:
REMARK  status: ('A' for Active; 'I' for Inactive)
REMARK    1  A    between atoms: C_1  and  C_2
REMARK    2  A    between atoms: C_3  and  C_14
REMARK    3  A    between atoms: C_11  and  N_12
REMARK                            x       y       z     vdW  Elec       q    Type
REMARK                         _______ _______ _______ _____ _____    ______ ____
ROOT
ATOM      1  C   UNL     1       5.669  -3.108  22.281  0.00  0.00    +0.045 C 
ATOM      2  C   UNL     1       6.433  -3.281  23.574  0.00  0.00    -0.030 A 
ATOM      3  C   UNL     1       6.098  -4.412  24.430  0.00  0.00    +0.044 A 
ATOM      4  C   UNL     1       6.501  -4.386  25.766  0.00  0.00    +0.078 A 
ATOM      5  N   UNL     1       6.138  -5.295  26.677  0.00  0.00    -0.215 NA
ATOM      6  C   UNL     1       5.384  -6.312  26.265  0.00  0.00    +0.215 A 
ATOM      7  N   UNL     1       5.054  -6.537  25.007  0.00  0.00    -0.199 NA
ATOM      8  N   UNL     1       4.963  -7.221  27.211  0.00  0.00    -0.327 N 
ATOM      9  H   UNL     1       4.795  -8.114  26.768  0.00  0.00    +0.145 HD
ATOM     10  H   UNL     1       5.590  -7.207  28.005  0.00  0.00    +0.145 HD
ATOM     11  C   UNL     1       7.344  -3.381  26.190  0.00  0.00    +0.029 A 
ATOM     12  C   UNL     1       7.826  -2.400  25.314  0.00  0.00    +0.011 A 
ATOM     13  C   UNL     1       5.414  -5.606  24.106  0.00  0.00    +0.129 A 
ATOM     14  C   UNL     1       7.389  -2.311  23.983  0.00  0.00    -0.014 A 
ENDROOT
BRANCH  14  15
ATOM     15  C   UNL     1       7.961  -1.243  23.104  0.00  0.00    -0.018 A 
ATOM     16  C   UNL     1       9.130  -1.446  22.345  0.00  0.00    +0.008 A 
ATOM     17  C   UNL     1       9.669  -0.447  21.524  0.00  0.00    +0.001 A 
ATOM     18  C   UNL     1       9.087   0.813  21.485  0.00  0.00    +0.000 A 
ATOM     19  C   UNL     1       7.957   1.066  22.257  0.00  0.00    +0.001 A 
ATOM     20  C   UNL     1       7.394   0.047  23.036  0.00  0.00    +0.008 A 
ENDBRANCH  14  15
BRANCH  13  21
ATOM     21  N   UNL     1       5.170  -6.013  22.793  0.00  0.00    -0.343 N 
ATOM     22  H   UNL     1       5.910  -6.564  22.392  0.00  0.00    +0.144 HD
ATOM     23  H   UNL     1       5.015  -5.164  22.250  0.00  0.00    +0.144 HD
ENDBRANCH  13  21
TORSDOF 2
ENDMDL
MODEL 9
REMARK VINA RESULT:      -6.4      0.965      2.629
REMARK  Name = 
REMARK  3 active torsions:
REMARK  status: ('A' for Active; 'I' for Inactive)
REMARK    1  A    between atoms: C_1  and  C_2
REMARK    2  A    between atoms: C_3  and  C_14
REMARK    3  A    between atoms: C_11  and  N_12
REMARK                            x       y       z     vdW  Elec       q    Type
REMARK                         _______ _______ _______ _____ _____    ______ ____
ROOT
ATOM      1  C   UNL     1       9.505  -1.082  21.856  0.00  0.00    +0.045 C 
ATOM      2  C   UNL     1       8.508  -0.637  22.902  0.00  0.00    -0.030 A 
ATOM      3  C   UNL     1       8.536   0.754  23.338  0.00  0.00    +0.044 A 
ATOM      4  C   UNL     1       7.910   1.095  24.538  0.00  0.00    +0.078 A 
ATOM      5  N   UNL     1       7.984   2.302  25.106  0.00  0.00    -0.215 NA
ATOM      6  C   UNL     1       8.663   3.247  24.458  0.00  0.00    +0.215 A 
ATOM      7  N   UNL     1       9.179   3.103  23.251  0.00  0.00    -0.199 NA
ATOM      8  N   UNL     1       8.788   4.477  25.067  0.00  0.00    -0.327 N 
ATOM      9  H   UNL     1       8.915   5.190  24.361  0.00  0.00    +0.145 HD
ATOM     10  H   UNL     1       8.037   4.610  25.732  0.00  0.00    +0.145 HD
ATOM     11  C   UNL     1       7.142   0.148  25.182  0.00  0.00    +0.029 A 
ATOM     12  C   UNL     1       6.954  -1.135  24.657  0.00  0.00    +0.011 A 
ATOM     13  C   UNL     1       9.107   1.879  22.700  0.00  0.00    +0.129 A 
ATOM     14  C   UNL     1       7.628  -1.576  23.507  0.00  0.00    -0.014 A 
ENDROOT
BRANCH  14  15
ATOM     15  C   UNL     1       7.364  -2.958  22.997  0.00  0.00    -0.018 A 
ATOM     16  C   UNL     1       6.420  -3.214  21.983  0.00  0.00    +0.008 A 
ATOM     17  C   UNL     1       6.169  -4.507  21.508  0.00  0.00    +0.001 A 
ATOM     18  C   UNL     1       6.811  -5.598  22.078  0.00  0.00    +0.000 A 
ATOM     19  C   UNL     1       7.716  -5.389  23.115  0.00  0.00    +0.001 A 
ATOM     20  C   UNL     1       8.001  -4.088  23.551  0.00  0.00    +0.008 A 
ENDBRANCH  14  15
BRANCH  13  21
ATOM     21  N   UNL     1       9.526   1.870  21.368  0.00  0.00    -0.343 N 
ATOM     22  H   UNL     1       8.800   1.632  20.713  0.00  0.00    +0.144 HD
ATOM     23  H   UNL     1      10.297   1.206  21.310  0.00  0.00    +0.144 HD
ENDBRANCH  13  21
TORSDOF 2
ENDMDL
