MODEL 1
REMARK VINA RESULT:      -5.9      0.000      0.000
REMARK  Name = 
REMARK  10 active torsions:
REMARK  status: ('A' for Active; 'I' for Inactive)
REMARK    1  A    between atoms: C_1  and  C_2
REMARK    2  A    between atoms: C_2  and  N_3
REMARK    3  A    between atoms: N_3  and  C_4
REMARK    4  A    between atoms: N_3  and  C_6
REMARK    5  A    between atoms: C_4  and  C_5
REMARK    6  A    between atoms: C_8  and  O_9
REMARK    7  A    between atoms: C_10  and  C_11
REMARK    8  A    between atoms: C_12  and  C_13
REMARK    9  A    between atoms: C_12  and  C_14
REMARK   10  A    between atoms: C_14  and  O_15
REMARK                            x       y       z     vdW  Elec       q    Type
REMARK                         _______ _______ _______ _____ _____    ______ ____
ROOT
ATOM      1  C   UNL     1      10.122   1.710  23.369  0.00  0.00    +0.033 A 
ATOM      2  C   UNL     1      10.078   1.162  24.657  0.00  0.00    +0.024 A 
ATOM      3  C   UNL     1      10.007  -0.221  24.873  0.00  0.00    +0.013 A 
ATOM      4  C   UNL     1       9.934  -1.112  23.803  0.00  0.00    +0.017 A 
ATOM      5  C   UNL     1      10.058  -0.576  22.511  0.00  0.00    +0.126 A 
ATOM      6  C   UNL     1      10.153   0.809  22.295  0.00  0.00    +0.069 A 
ENDROOT
BRANCH   4   7
ATOM      7  C   UNL     1       9.815  -2.573  24.016  0.00  0.00    +0.022 C 
ATOM      8  C   UNL     1       8.704  -3.300  24.268  0.00  0.00    +0.034 C 
ATOM      9  C   UNL     1       7.298  -2.786  24.410  0.00  0.00    +0.051 C 
BRANCH   8  10
ATOM     10  C   UNL     1       8.794  -4.775  24.483  0.00  0.00    +0.333 C 
ATOM     11  O   UNL     1       7.844  -5.522  24.335  0.00  0.00    -0.245 OA
BRANCH  10  12
ATOM     12  O   UNL     1      10.030  -5.225  24.788  0.00  0.00    -0.477 OA
ATOM     13  H   UNL     1      10.130  -6.192  24.749  0.00  0.00    +0.295 HD
ENDBRANCH  10  12
ENDBRANCH   8  10
ENDBRANCH   4   7
BRANCH   5  14
ATOM     14  O   UNL     1      10.072  -1.427  21.433  0.00  0.00    -0.506 OA
ATOM     15  H   UNL     1       9.934  -2.333  21.757  0.00  0.00    +0.292 HD
ENDBRANCH   5  14
BRANCH   1  16
ATOM     16  N   UNL     1      10.075   3.097  23.139  0.00  0.00    -0.330 N 
BRANCH  16  18
ATOM     17  C   UNL     1       7.711   3.578  22.475  0.00  0.00    +0.024 C 
ATOM     18  C   UNL     1       8.813   3.765  23.507  0.00  0.00    +0.102 C 
ENDBRANCH  16  18
BRANCH  16  19
ATOM     19  C   UNL     1      11.342   3.827  23.315  0.00  0.00    +0.102 C 
ATOM     20  C   UNL     1      11.143   5.302  23.640  0.00  0.00    +0.024 C 
ENDBRANCH  16  19
ENDBRANCH   1  16
TORSDOF 7
ENDMDL
MODEL 2
REMARK VINA RESULT:      -5.8      3.285      6.835
REMARK  Name = 
REMARK  10 active torsions:
REMARK  status: ('A' for Active; 'I' for Inactive)
REMARK    1  A    between atoms: C_1  and  C_2
REMARK    2  A    between atoms: C_2  and  N_3
REMARK    3  A    between atoms: N_3  and  C_4
REMARK    4  A    between atoms: N_3  and  C_6
REMARK    5  A    between atoms: C_4  and  C_5
REMARK    6  A    between atoms: C_8  and  O_9
REMARK    7  A    between atoms: C_10  and  C_11
REMARK    8  A    between atoms: C_12  and  C_13
REMARK    9  A    between atoms: C_12  and  C_14
REMARK   10  A    between atoms: C_14  and  O_15
REMARK                            x       y       z     vdW  Elec       q    Type
REMARK                         _______ _______ _______ _____ _____    ______ ____
ROOT
ATOM      1  C   UNL     1       9.131  -0.871  23.568  0.00  0.00    +0.033 A 
ATOM      2  C   UNL     1       9.831  -0.335  24.658  0.00  0.00    +0.024 A 
ATOM      3  C   UNL     1      10.408   0.941  24.613  0.00  0.00    +0.013 A 
ATOM      4  C   UNL     1      10.345   1.718  23.456  0.00  0.00    +0.017 A 
ATOM      5  C   UNL     1       9.578   1.221  22.390  0.00  0.00    +0.126 A 
ATOM      6  C   UNL     1       8.979  -0.049  22.443  0.00  0.00    +0.069 A 
ENDROOT
BRANCH   4   7
ATOM      7  C   UNL     1      10.988   3.050  23.380  0.00  0.00    +0.022 C 
ATOM      8  C   UNL     1      10.494   4.247  23.768  0.00  0.00    +0.034 C 
ATOM      9  C   UNL     1       9.142   4.518  24.366  0.00  0.00    +0.051 C 
BRANCH   8  10
ATOM     10  C   UNL     1      11.294   5.495  23.582  0.00  0.00    +0.333 C 
ATOM     11  O   UNL     1      11.271   6.417  24.376  0.00  0.00    -0.245 OA
BRANCH  10  12
ATOM     12  O   UNL     1      12.096   5.491  22.496  0.00  0.00    -0.477 OA
ATOM     13  H   UNL     1      12.910   4.966  22.595  0.00  0.00    +0.295 HD
ENDBRANCH  10  12
ENDBRANCH   8  10
ENDBRANCH   4   7
BRANCH   5  14
ATOM     14  O   UNL     1       9.425   1.991  21.263  0.00  0.00    -0.506 OA
ATOM     15  H   UNL     1       8.974   2.814  21.514  0.00  0.00    +0.292 HD
ENDBRANCH   5  14
BRANCH   1  16
ATOM     16  N   UNL     1       8.650  -2.193  23.561  0.00  0.00    -0.330 N 
BRANCH  16  18
ATOM     17  C   UNL     1       6.430  -2.797  22.576  0.00  0.00    +0.024 C 
ATOM     18  C   UNL     1       7.920  -2.602  22.346  0.00  0.00    +0.102 C 
ENDBRANCH  16  18
BRANCH  16  19
ATOM     19  C   UNL     1       9.478  -3.189  24.261  0.00  0.00    +0.102 C 
ATOM     20  C   UNL     1       8.753  -3.862  25.420  0.00  0.00    +0.024 C 
ENDBRANCH  16  19
ENDBRANCH   1  16
TORSDOF 7
ENDMDL
MODEL 3
REMARK VINA RESULT:      -5.5      3.201      7.057
REMARK  Name = 
REMARK  10 active torsions:
REMARK  status: ('A' for Active; 'I' for Inactive)
REMARK    1  A    between atoms: C_1  and  C_2
REMARK    2  A    between atoms: C_2  and  N_3
REMARK    3  A    between atoms: N_3  and  C_4
REMARK    4  A    between atoms: N_3  and  C_6
REMARK    5  A    between atoms: C_4  and  C_5
REMARK    6  A    between atoms: C_8  and  O_9
REMARK    7  A    between atoms: C_10  and  C_11
REMARK    8  A    between atoms: C_12  and  C_13
REMARK    9  A    between atoms: C_12  and  C_14
REMARK   10  A    between atoms: C_14  and  O_15
REMARK                            x       y       z     vdW  Elec       q    Type
REMARK                         _______ _______ _______ _____ _____    ______ ____
ROOT
ATOM      1  C   UNL     1       6.896  -3.443  23.275  0.00  0.00    +0.033 A 
ATOM      2  C   UNL     1       6.271  -2.275  23.731  0.00  0.00    +0.024 A 
ATOM      3  C   UNL     1       6.821  -1.006  23.513  0.00  0.00    +0.013 A 
ATOM      4  C   UNL     1       8.047  -0.856  22.864  0.00  0.00    +0.017 A 
ATOM      5  C   UNL     1       8.639  -2.014  22.335  0.00  0.00    +0.126 A 
ATOM      6  C   UNL     1       8.075  -3.286  22.533  0.00  0.00    +0.069 A 
ENDROOT
BRANCH   4   7
ATOM      7  C   UNL     1       8.662   0.477  22.665  0.00  0.00    +0.022 C 
ATOM      8  C   UNL     1       9.657   1.059  23.370  0.00  0.00    +0.034 C 
ATOM      9  C   UNL     1      10.380   0.488  24.558  0.00  0.00    +0.051 C 
BRANCH   8  10
ATOM     10  C   UNL     1      10.126   2.435  23.027  0.00  0.00    +0.333 C 
ATOM     11  O   UNL     1      10.142   3.346  23.835  0.00  0.00    -0.245 OA
BRANCH  10  12
ATOM     12  O   UNL     1      10.593   2.573  21.768  0.00  0.00    -0.477 OA
ATOM     13  H   UNL     1       9.948   2.360  21.071  0.00  0.00    +0.295 HD
ENDBRANCH  10  12
ENDBRANCH   8  10
ENDBRANCH   4   7
BRANCH   5  14
ATOM     14  O   UNL     1       9.806  -1.900  21.620  0.00  0.00    -0.506 OA
ATOM     15  H   UNL     1      10.281  -1.112  21.933  0.00  0.00    +0.292 HD
ENDBRANCH   5  14
BRANCH   1  16
ATOM     16  N   UNL     1       6.413  -4.727  23.590  0.00  0.00    -0.330 N 
BRANCH  16  18
ATOM     17  C   UNL     1       7.629  -5.192  25.727  0.00  0.00    +0.024 C 
ATOM     18  C   UNL     1       6.288  -5.030  25.028  0.00  0.00    +0.102 C 
ENDBRANCH  16  18
BRANCH  16  19
ATOM     19  C   UNL     1       5.428  -5.296  22.656  0.00  0.00    +0.102 C 
ATOM     20  C   UNL     1       6.067  -6.036  21.488  0.00  0.00    +0.024 C 
ENDBRANCH  16  19
ENDBRANCH   1  16
TORSDOF 7
ENDMDL
MODEL 4
REMARK VINA RESULT:      -5.5      3.145      6.942
REMARK  Name = 
REMARK  10 active torsions:
REMARK  status: ('A' for Active; 'I' for Inactive)
REMARK    1  A    between atoms: C_1  and  C_2
REMARK    2  A    between atoms: C_2  and  N_3
REMARK    3  A    between atoms: N_3  and  C_4
REMARK    4  A    between atoms: N_3  and  C_6
REMARK    5  A    between atoms: C_4  and  C_5
REMARK    6  A    between atoms: C_8  and  O_9
REMARK    7  A    between atoms: C_10  and  C_11
REMARK    8  A    between atoms: C_12  and  C_13
REMARK    9  A    between atoms: C_12  and  C_14
REMARK   10  A    between atoms: C_14  and  O_15
REMARK                            x       y       z     vdW  Elec       q    Type
REMARK                         _______ _______ _______ _____ _____    ______ ____
ROOT
ATOM      1  C   UNL     1       6.964  -3.301  23.211  0.00  0.00    +0.033 A 
ATOM      2  C   UNL     1       6.317  -2.136  23.644  0.00  0.00    +0.024 A 
ATOM      3  C   UNL     1       6.865  -0.863  23.440  0.00  0.00    +0.013 A 
ATOM      4  C   UNL     1       8.109  -0.706  22.829  0.00  0.00    +0.017 A 
ATOM      5  C   UNL     1       8.725  -1.861  22.321  0.00  0.00    +0.126 A 
ATOM      6  C   UNL     1       8.164  -3.136  22.505  0.00  0.00    +0.069 A 
ENDROOT
BRANCH   4   7
ATOM      7  C   UNL     1       8.720   0.631  22.646  0.00  0.00    +0.022 C 
ATOM      8  C   UNL     1       9.671   1.232  23.394  0.00  0.00    +0.034 C 
ATOM      9  C   UNL     1      10.336   0.683  24.626  0.00  0.00    +0.051 C 
BRANCH   8  10
ATOM     10  C   UNL     1      10.143   2.609  23.060  0.00  0.00    +0.333 C 
ATOM     11  O   UNL     1      10.046   3.545  23.832  0.00  0.00    -0.245 OA
BRANCH  10  12
ATOM     12  O   UNL     1      10.747   2.720  21.858  0.00  0.00    -0.477 OA
ATOM     13  H   UNL     1      10.175   3.057  21.146  0.00  0.00    +0.295 HD
ENDBRANCH  10  12
ENDBRANCH   8  10
ENDBRANCH   4   7
BRANCH   5  14
ATOM     14  O   UNL     1       9.912  -1.740  21.641  0.00  0.00    -0.506 OA
ATOM     15  H   UNL     1      10.384  -0.964  21.986  0.00  0.00    +0.292 HD
ENDBRANCH   5  14
BRANCH   1  16
ATOM     16  N   UNL     1       6.481  -4.587  23.513  0.00  0.00    -0.330 N 
BRANCH  16  18
ATOM     17  C   UNL     1       6.140  -6.006  21.481  0.00  0.00    +0.024 C 
ATOM     18  C   UNL     1       7.013  -5.683  22.683  0.00  0.00    +0.102 C 
ENDBRANCH  16  18
BRANCH  16  19
ATOM     19  C   UNL     1       6.182  -4.851  24.931  0.00  0.00    +0.102 C 
ATOM     20  C   UNL     1       7.430  -5.089  25.772  0.00  0.00    +0.024 C 
ENDBRANCH  16  19
ENDBRANCH   1  16
TORSDOF 7
ENDMDL
MODEL 5
REMARK VINA RESULT:      -5.5      2.315      3.741
REMARK  Name = 
REMARK  10 active torsions:
REMARK  status: ('A' for Active; 'I' for Inactive)
REMARK    1  A    between atoms: C_1  and  C_2
REMARK    2  A    between atoms: C_2  and  N_3
REMARK    3  A    between atoms: N_3  and  C_4
REMARK    4  A    between atoms: N_3  and  C_6
REMARK    5  A    between atoms: C_4  and  C_5
REMARK    6  A    between atoms: C_8  and  O_9
REMARK    7  A    between atoms: C_10  and  C_11
REMARK    8  A    between atoms: C_12  and  C_13
REMARK    9  A    between atoms: C_12  and  C_14
REMARK   10  A    between atoms: C_14  and  O_15
REMARK                            x       y       z     vdW  Elec       q    Type
REMARK                         _______ _______ _______ _____ _____    ______ ____
ROOT
ATOM      1  C   UNL     1       9.566  -1.013  24.425  0.00  0.00    +0.033 A 
ATOM      2  C   UNL     1       8.896  -0.818  25.640  0.00  0.00    +0.024 A 
ATOM      3  C   UNL     1       8.390  -1.889  26.388  0.00  0.00    +0.013 A 
ATOM      4  C   UNL     1       8.497  -3.202  25.926  0.00  0.00    +0.017 A 
ATOM      5  C   UNL     1       9.237  -3.411  24.752  0.00  0.00    +0.126 A 
ATOM      6  C   UNL     1       9.765  -2.338  24.013  0.00  0.00    +0.069 A 
ENDROOT
BRANCH   4   7
ATOM      7  C   UNL     1       7.929  -4.340  26.685  0.00  0.00    +0.022 C 
ATOM      8  C   UNL     1       6.791  -5.028  26.445  0.00  0.00    +0.034 C 
ATOM      9  C   UNL     1       5.803  -4.787  25.338  0.00  0.00    +0.051 C 
BRANCH   8  10
ATOM     10  C   UNL     1       6.370  -6.139  27.351  0.00  0.00    +0.333 C 
ATOM     11  O   UNL     1       5.379  -6.815  27.147  0.00  0.00    -0.245 OA
BRANCH  10  12
ATOM     12  O   UNL     1       7.213  -6.377  28.378  0.00  0.00    -0.477 OA
ATOM     13  H   UNL     1       7.890  -7.054  28.198  0.00  0.00    +0.295 HD
ENDBRANCH  10  12
ENDBRANCH   8  10
ENDBRANCH   4   7
BRANCH   5  14
ATOM     14  O   UNL     1       9.435  -4.695  24.306  0.00  0.00    -0.506 OA
ATOM     15  H   UNL     1       8.727  -4.913  23.678  0.00  0.00    +0.292 HD
ENDBRANCH   5  14
BRANCH   1  16
ATOM     16  N   UNL     1       9.973   0.060  23.611  0.00  0.00    -0.330 N 
BRANCH  16  18
ATOM     17  C   UNL     1      10.560   2.486  23.784  0.00  0.00    +0.024 C 
ATOM     18  C   UNL     1      10.831   1.068  24.260  0.00  0.00    +0.102 C 
ENDBRANCH  16  18
BRANCH  16  19
ATOM     19  C   UNL     1      10.198  -0.253  22.189  0.00  0.00    +0.102 C 
ATOM     20  C   UNL     1       9.131   0.331  21.272  0.00  0.00    +0.024 C 
ENDBRANCH  16  19
ENDBRANCH   1  16
TORSDOF 7
ENDMDL
MODEL 6
REMARK VINA RESULT:      -5.4      3.003      4.582
REMARK  Name = 
REMARK  10 active torsions:
REMARK  status: ('A' for Active; 'I' for Inactive)
REMARK    1  A    between atoms: C_1  and  C_2
REMARK    2  A    between atoms: C_2  and  N_3
REMARK    3  A    between atoms: N_3  and  C_4
REMARK    4  A    between atoms: N_3  and  C_6
REMARK    5  A    between atoms: C_4  and  C_5
REMARK    6  A    between atoms: C_8  and  O_9
REMARK    7  A    between atoms: C_10  and  C_11
REMARK    8  A    between atoms: C_12  and  C_13
REMARK    9  A    between atoms: C_12  and  C_14
REMARK   10  A    between atoms: C_14  and  O_15
REMARK                            x       y       z     vdW  Elec       q    Type
REMARK                         _______ _______ _______ _____ _____    ______ ____
ROOT
ATOM      1  C   UNL     1       8.611  -1.964  23.035  0.00  0.00    +0.033 A 
ATOM      2  C   UNL     1       9.034  -2.978  23.905  0.00  0.00    +0.024 A 
ATOM      3  C   UNL     1       8.256  -4.116  24.151  0.00  0.00    +0.013 A 
ATOM      4  C   UNL     1       6.998  -4.267  23.567  0.00  0.00    +0.017 A 
ATOM      5  C   UNL     1       6.604  -3.296  22.633  0.00  0.00    +0.126 A 
ATOM      6  C   UNL     1       7.395  -2.165  22.368  0.00  0.00    +0.069 A 
ENDROOT
BRANCH   4   7
ATOM      7  C   UNL     1       6.146  -5.445  23.851  0.00  0.00    +0.022 C 
ATOM      8  C   UNL     1       5.210  -5.594  24.815  0.00  0.00    +0.034 C 
ATOM      9  C   UNL     1       4.815  -4.587  25.858  0.00  0.00    +0.051 C 
BRANCH   8  10
ATOM     10  C   UNL     1       4.468  -6.882  24.959  0.00  0.00    +0.333 C 
ATOM     11  O   UNL     1       4.013  -7.266  26.021  0.00  0.00    -0.245 OA
BRANCH  10  12
ATOM     12  O   UNL     1       4.282  -7.556  23.804  0.00  0.00    -0.477 OA
ATOM     13  H   UNL     1       3.761  -7.078  23.135  0.00  0.00    +0.295 HD
ENDBRANCH  10  12
ENDBRANCH   8  10
ENDBRANCH   4   7
BRANCH   5  14
ATOM     14  O   UNL     1       5.408  -3.448  21.975  0.00  0.00    -0.506 OA
ATOM     15  H   UNL     1       5.320  -2.729  21.328  0.00  0.00    +0.292 HD
ENDBRANCH   5  14
BRANCH   1  16
ATOM     16  N   UNL     1       9.329  -0.765  22.872  0.00  0.00    -0.330 N 
BRANCH  16  18
ATOM     17  C   UNL     1      10.302   0.505  24.796  0.00  0.00    +0.024 C 
ATOM     18  C   UNL     1      10.494  -0.590  23.759  0.00  0.00    +0.102 C 
ENDBRANCH  16  18
BRANCH  16  19
ATOM     19  C   UNL     1       9.392  -0.228  21.502  0.00  0.00    +0.102 C 
ATOM     20  C   UNL     1       8.867   1.198  21.394  0.00  0.00    +0.024 C 
ENDBRANCH  16  19
ENDBRANCH   1  16
TORSDOF 7
ENDMDL
MODEL 7
REMARK VINA RESULT:      -5.4      3.268      7.045
REMARK  Name = 
REMARK  10 active torsions:
REMARK  status: ('A' for Active; 'I' for Inactive)
REMARK    1  A    between atoms: C_1  and  C_2
REMARK    2  A    between atoms: C_2  and  N_3
REMARK    3  A    between atoms: N_3  and  C_4
REMARK    4  A    between atoms: N_3  and  C_6
REMARK    5  A    between atoms: C_4  and  C_5
REMARK    6  A    between atoms: C_8  and  O_9
REMARK    7  A    between atoms: C_10  and  C_11
REMARK    8  A    between atoms: C_12  and  C_13
REMARK    9  A    between atoms: C_12  and  C_14
REMARK   10  A    between atoms: C_14  and  O_15
REMARK                            x       y       z     vdW  Elec       q    Type
REMARK                         _______ _______ _______ _____ _____    ______ ____
ROOT
ATOM      1  C   UNL     1       8.187  -2.948  23.791  0.00  0.00    +0.033 A 
ATOM      2  C   UNL     1       9.401  -2.483  24.313  0.00  0.00    +0.024 A 
ATOM      3  C   UNL     1       9.658  -1.118  24.491  0.00  0.00    +0.013 A 
ATOM      4  C   UNL     1       8.722  -0.155  24.112  0.00  0.00    +0.017 A 
ATOM      5  C   UNL     1       7.473  -0.616  23.664  0.00  0.00    +0.126 A 
ATOM      6  C   UNL     1       7.207  -1.987  23.507  0.00  0.00    +0.069 A 
ENDROOT
BRANCH   4   7
ATOM      7  C   UNL     1       8.996   1.293  24.254  0.00  0.00    +0.022 C 
ATOM      8  C   UNL     1       9.539   2.140  23.352  0.00  0.00    +0.034 C 
ATOM      9  C   UNL     1      10.017   1.804  21.967  0.00  0.00    +0.051 C 
BRANCH   8  10
ATOM     10  C   UNL     1       9.763   3.576  23.697  0.00  0.00    +0.333 C 
ATOM     11  O   UNL     1       9.022   4.201  24.433  0.00  0.00    -0.245 OA
BRANCH  10  12
ATOM     12  O   UNL     1      10.891   4.108  23.181  0.00  0.00    -0.477 OA
ATOM     13  H   UNL     1      11.599   4.266  23.831  0.00  0.00    +0.295 HD
ENDBRANCH  10  12
ENDBRANCH   8  10
ENDBRANCH   4   7
BRANCH   5  14
ATOM     14  O   UNL     1       6.495   0.298  23.356  0.00  0.00    -0.506 OA
ATOM     15  H   UNL     1       6.180   0.698  24.184  0.00  0.00    +0.292 HD
ENDBRANCH   5  14
BRANCH   1  16
ATOM     16  N   UNL     1       7.964  -4.306  23.499  0.00  0.00    -0.330 N 
BRANCH  16  18
ATOM     17  C   UNL     1       7.366  -5.302  25.715  0.00  0.00    +0.024 C 
ATOM     18  C   UNL     1       8.348  -5.260  24.556  0.00  0.00    +0.102 C 
ENDBRANCH  16  18
BRANCH  16  19
ATOM     19  C   UNL     1       6.789  -4.607  22.664  0.00  0.00    +0.102 C 
ATOM     20  C   UNL     1       7.041  -5.718  21.653  0.00  0.00    +0.024 C 
ENDBRANCH  16  19
ENDBRANCH   1  16
TORSDOF 7
ENDMDL
MODEL 8
REMARK VINA RESULT:      -5.4      3.460      6.845
REMARK  Name = 
REMARK  10 active torsions:
REMARK  status: ('A' for Active; 'I' for Inactive)
REMARK    1  A    between atoms: C_1  and  C_2
REMARK    2  A    between atoms: C_2  and  N_3
REMARK    3  A    between atoms: N_3  and  C_4
REMARK    4  A    between atoms: N_3  and  C_6
REMARK    5  A    between atoms: C_4  and  C_5
REMARK    6  A    between atoms: C_8  and  O_9
REMARK    7  A    between atoms: C_10  and  C_11
REMARK    8  A    between atoms: C_12  and  C_13
REMARK    9  A    between atoms: C_12  and  C_14
REMARK   10  A    between atoms: C_14  and  O_15
REMARK                            x       y       z     vdW  Elec       q    Type
REMARK                         _______ _______ _______ _____ _____    ______ ____
ROOT
ATOM      1  C   UNL     1       8.691  -0.478  23.756  0.00  0.00    +0.033 A 
ATOM      2  C   UNL     1       9.522  -0.058  24.803  0.00  0.00    +0.024 A 
ATOM      3  C   UNL     1      10.344   1.071  24.690  0.00  0.00    +0.013 A 
ATOM      4  C   UNL     1      10.400   1.803  23.504  0.00  0.00    +0.017 A 
ATOM      5  C   UNL     1       9.512   1.436  22.480  0.00  0.00    +0.126 A 
ATOM      6  C   UNL     1       8.670   0.318  22.601  0.00  0.00    +0.069 A 
ENDROOT
BRANCH   4   7
ATOM      7  C   UNL     1      11.297   2.973  23.356  0.00  0.00    +0.022 C 
ATOM      8  C   UNL     1      11.028   4.276  23.592  0.00  0.00    +0.034 C 
ATOM      9  C   UNL     1       9.723   4.862  24.055  0.00  0.00    +0.051 C 
BRANCH   8  10
ATOM     10  C   UNL     1      12.068   5.321  23.354  0.00  0.00    +0.333 C 
ATOM     11  O   UNL     1      12.757   5.349  22.351  0.00  0.00    -0.245 OA
BRANCH  10  12
ATOM     12  O   UNL     1      12.136   6.273  24.309  0.00  0.00    -0.477 OA
ATOM     13  H   UNL     1      12.576   7.096  24.030  0.00  0.00    +0.295 HD
ENDBRANCH  10  12
ENDBRANCH   8  10
ENDBRANCH   4   7
BRANCH   5  14
ATOM     14  O   UNL     1       9.479   2.181  21.326  0.00  0.00    -0.506 OA
ATOM     15  H   UNL     1      10.223   2.805  21.344  0.00  0.00    +0.292 HD
ENDBRANCH   5  14
BRANCH   1  16
ATOM     16  N   UNL     1       7.951  -1.673  23.816  0.00  0.00    -0.330 N 
BRANCH  16  18
ATOM     17  C   UNL     1       5.719  -1.213  24.849  0.00  0.00    +0.024 C 
ATOM     18  C   UNL     1       7.096  -1.839  25.005  0.00  0.00    +0.102 C 
ENDBRANCH  16  18
BRANCH  16  19
ATOM     19  C   UNL     1       7.488  -2.215  22.527  0.00  0.00    +0.102 C 
ATOM     20  C   UNL     1       7.466  -3.738  22.491  0.00  0.00    +0.024 C 
ENDBRANCH  16  19
ENDBRANCH   1  16
TORSDOF 7
ENDMDL
MODEL 9
REMARK VINA RESULT:      -5.4      2.028      2.945
REMARK  Name = 
REMARK  10 active torsions:
REMARK  status: ('A' for Active; 'I' for Inactive)
REMARK    1  A    between atoms: C_1  and  C_2
REMARK    2  A    between atoms: C_2  and  N_3
REMARK    3  A    between atoms: N_3  and  C_4
REMARK    4  A    between atoms: N_3  and  C_6
REMARK    5  A    between atoms: C_4  and  C_5
REMARK    6  A    between atoms: C_8  and  O_9
REMARK    7  A    between atoms: C_10  and  C_11
REMARK    8  A    between atoms: C_12  and  C_13
REMARK    9  A    between atoms: C_12  and  C_14
REMARK   10  A    between atoms: C_14  and  O_15
REMARK                            x       y       z     vdW  Elec       q    Type
REMARK                         _______ _______ _______ _____ _____    ______ ____
ROOT
ATOM      1  C   UNL     1       9.625  -0.267  24.187  0.00  0.00    +0.033 A 
ATOM      2  C   UNL     1       8.815  -0.131  25.322  0.00  0.00    +0.024 A 
ATOM      3  C   UNL     1       8.371  -1.241  26.053  0.00  0.00    +0.013 A 
ATOM      4  C   UNL     1       8.685  -2.539  25.651  0.00  0.00    +0.017 A 
ATOM      5  C   UNL     1       9.562  -2.679  24.564  0.00  0.00    +0.126 A 
ATOM      6  C   UNL     1      10.027  -1.566  23.844  0.00  0.00    +0.069 A 
ENDROOT
BRANCH   4   7
ATOM      7  C   UNL     1       8.186  -3.722  26.390  0.00  0.00    +0.022 C 
ATOM      8  C   UNL     1       7.096  -4.478  26.132  0.00  0.00    +0.034 C 
ATOM      9  C   UNL     1       6.102  -4.284  25.021  0.00  0.00    +0.051 C 
BRANCH   8  10
ATOM     10  C   UNL     1       6.742  -5.627  27.018  0.00  0.00    +0.333 C 
ATOM     11  O   UNL     1       7.218  -5.774  28.129  0.00  0.00    -0.245 OA
BRANCH  10  12
ATOM     12  O   UNL     1       5.799  -6.453  26.517  0.00  0.00    -0.477 OA
ATOM     13  H   UNL     1       5.098  -6.697  27.147  0.00  0.00    +0.295 HD
ENDBRANCH  10  12
ENDBRANCH   8  10
ENDBRANCH   4   7
BRANCH   5  14
ATOM     14  O   UNL     1       9.960  -3.938  24.186  0.00  0.00    -0.506 OA
ATOM     15  H   UNL     1       9.303  -4.293  23.564  0.00  0.00    +0.292 HD
ENDBRANCH   5  14
BRANCH   1  16
ATOM     16  N   UNL     1       9.979   0.829  23.380  0.00  0.00    -0.330 N 
BRANCH  16  18
ATOM     17  C   UNL     1       8.421   1.315  21.482  0.00  0.00    +0.024 C 
ATOM     18  C   UNL     1       9.722   0.672  21.936  0.00  0.00    +0.102 C 
ENDBRANCH  16  18
BRANCH  16  19
ATOM     19  C   UNL     1       9.820   2.161  23.988  0.00  0.00    +0.102 C 
ATOM     20  C   UNL     1      10.870   3.162  23.523  0.00  0.00    +0.024 C 
ENDBRANCH  16  19
ENDBRANCH   1  16
TORSDOF 7
ENDMDL
