MODEL 1
REMARK VINA RESULT:      -6.2      0.000      0.000
REMARK  Name = 
REMARK  14 active torsions:
REMARK  status: ('A' for Active; 'I' for Inactive)
REMARK    1  A    between atoms: C_2  and  C_3
REMARK    2  A    between atoms: C_2  and  N_4
REMARK    3  A    between atoms: C_2  and  P_5
REMARK    4  A    between atoms: P_5  and  O_6
REMARK    5  A    between atoms: P_5  and  C_8
REMARK    6  A    between atoms: C_8  and  C_9
REMARK    7  A    between atoms: C_9  and  C_11
REMARK    8  A    between atoms: C_9  and  C_18
REMARK    9  A    between atoms: C_11  and  C_12
REMARK   10  A    between atoms: N_20  and  CA_21
REMARK   11  A    between atoms: CA_21  and  CB_23
REMARK   12  A    between atoms: CA_21  and  C_30
REMARK   13  A    between atoms: CB_23  and  CG_24
REMARK   14  A    between atoms: C_30  and  O_31
REMARK                            x       y       z     vdW  Elec       q    Type
REMARK                         _______ _______ _______ _____ _____    ______ ____
ROOT
ATOM      1  C   UNK A   0       7.392  -2.440  25.455  0.00  0.00    +0.088 C 
ENDROOT
BRANCH   1   2
ATOM      2  C   UNK A   0       6.455  -2.792  26.620  0.00  0.00    +0.218 C 
ATOM      3  N   PHE A   1       6.431  -4.138  26.963  0.00  0.00    -0.302 N 
ATOM      4  H   PHE A   1       6.576  -4.808  26.210  0.00  0.00    +0.150 HD
ATOM      5  O   UNK A   0       5.843  -1.951  27.261  0.00  0.00    -0.275 OA
BRANCH   3   6
ATOM      6  CA  PHE A   1       5.635  -4.612  28.126  0.00  0.00    +0.186 C 
BRANCH   6   7
ATOM      7  C   PHE A   1       6.376  -5.711  28.897  0.00  0.00    +0.326 C 
ATOM      8  OXT PHE A   1       6.127  -6.036  30.054  0.00  0.00    -0.249 OA
BRANCH   7   9
ATOM      9  O   PHE A   1       7.312  -6.367  28.170  0.00  0.00    -0.479 OA
ATOM     10  H   PHE A   1       7.090  -6.326  27.219  0.00  0.00    +0.295 HD
ENDBRANCH   7   9
ENDBRANCH   6   7
BRANCH   6  11
ATOM     11  CB  PHE A   1       4.262  -5.198  27.731  0.00  0.00    +0.069 C 
BRANCH  11  12
ATOM     12  CG  PHE A   1       4.136  -5.493  26.256  0.00  0.00    -0.045 A 
ATOM     13  CD2 PHE A   1       4.645  -6.684  25.722  0.00  0.00    +0.004 A 
ATOM     14  CE2 PHE A   1       4.458  -6.995  24.377  0.00  0.00    +0.000 A 
ATOM     15  CZ  PHE A   1       3.782  -6.105  23.545  0.00  0.00    +0.000 A 
ATOM     16  CE1 PHE A   1       3.327  -4.889  24.050  0.00  0.00    +0.000 A 
ATOM     17  CD1 PHE A   1       3.511  -4.578  25.398  0.00  0.00    +0.004 A 
ENDBRANCH  11  12
ENDBRANCH   6  11
ENDBRANCH   3   6
ENDBRANCH   1   2
BRANCH   1  18
ATOM     18  C   UNK A   0       8.443  -1.346  25.825  0.00  0.00    +0.111 C 
BRANCH  18  19
ATOM     19  P   UNK A   0       9.460  -0.879  24.377  0.00  0.00    +0.219 P 
ATOM     20  O   UNK A   0       8.219  -0.251  23.724  0.00  0.00    -0.289 OA
BRANCH  19  21
ATOM     21  C   UNK A   0      10.477  -0.413  22.928  0.00  0.00    +0.135 C 
ATOM     22  C   UNK A   0       9.888   0.872  22.340  0.00  0.00    +0.034 C 
BRANCH  21  23
ATOM     23  N   UNK A   0      10.442  -1.492  21.902  0.00  0.00    -0.320 NA
ATOM     24  H   UNK A   0      11.395  -1.823  21.725  0.00  0.00    +0.119 HD
ATOM     25  H   UNK A   0       9.969  -2.297  22.323  0.00  0.00    +0.119 HD
ENDBRANCH  21  23
ENDBRANCH  19  21
BRANCH  19  26
ATOM     26  O   UNK A   0      10.167   0.312  25.282  0.00  0.00    -0.343 OA
ATOM     27  H   UNK A   0      11.149   0.213  25.172  0.00  0.00    +0.218 HD
ENDBRANCH  19  26
ENDBRANCH  18  19
ENDBRANCH   1  18
BRANCH   1  28
ATOM     28  C   UNK A   0       7.924  -3.744  24.793  0.00  0.00    +0.048 C 
BRANCH  28  29
ATOM     29  C   UNK A   0       7.370  -4.284  23.488  0.00  0.00    -0.047 A 
ATOM     30  C   UNK A   0       6.537  -3.442  22.719  0.00  0.00    +0.003 A 
ATOM     31  C   UNK A   0       5.960  -3.882  21.522  0.00  0.00    +0.000 A 
ATOM     32  C   UNK A   0       6.210  -5.169  21.064  0.00  0.00    +0.000 A 
ATOM     33  C   UNK A   0       7.044  -6.007  21.798  0.00  0.00    +0.000 A 
ATOM     34  C   UNK A   0       7.626  -5.565  22.993  0.00  0.00    +0.003 A 
ENDBRANCH  28  29
ENDBRANCH   1  28
TORSDOF 13
ENDMDL
MODEL 2
REMARK VINA RESULT:      -6.2      1.543      2.191
REMARK  Name = 
REMARK  14 active torsions:
REMARK  status: ('A' for Active; 'I' for Inactive)
REMARK    1  A    between atoms: C_2  and  C_3
REMARK    2  A    between atoms: C_2  and  N_4
REMARK    3  A    between atoms: C_2  and  P_5
REMARK    4  A    between atoms: P_5  and  O_6
REMARK    5  A    between atoms: P_5  and  C_8
REMARK    6  A    between atoms: C_8  and  C_9
REMARK    7  A    between atoms: C_9  and  C_11
REMARK    8  A    between atoms: C_9  and  C_18
REMARK    9  A    between atoms: C_11  and  C_12
REMARK   10  A    between atoms: N_20  and  CA_21
REMARK   11  A    between atoms: CA_21  and  CB_23
REMARK   12  A    between atoms: CA_21  and  C_30
REMARK   13  A    between atoms: CB_23  and  CG_24
REMARK   14  A    between atoms: C_30  and  O_31
REMARK                            x       y       z     vdW  Elec       q    Type
REMARK                         _______ _______ _______ _____ _____    ______ ____
ROOT
ATOM      1  C   UNK A   0       7.776  -1.564  24.273  0.00  0.00    +0.088 C 
ENDROOT
BRANCH   1   2
ATOM      2  C   UNK A   0       7.675  -2.194  25.669  0.00  0.00    +0.218 C 
ATOM      3  N   PHE A   1       6.816  -3.283  25.759  0.00  0.00    -0.302 N 
ATOM      4  H   PHE A   1       6.003  -3.279  25.146  0.00  0.00    +0.150 HD
ATOM      5  O   UNK A   0       8.360  -1.832  26.615  0.00  0.00    -0.275 OA
BRANCH   3   6
ATOM      6  CA  PHE A   1       6.684  -4.045  27.029  0.00  0.00    +0.186 C 
BRANCH   6   7
ATOM      7  C   PHE A   1       7.711  -5.181  27.105  0.00  0.00    +0.326 C 
ATOM      8  OXT PHE A   1       8.740  -5.232  26.439  0.00  0.00    -0.249 OA
BRANCH   7   9
ATOM      9  O   PHE A   1       7.429  -6.124  28.035  0.00  0.00    -0.479 OA
ATOM     10  H   PHE A   1       8.040  -6.882  27.944  0.00  0.00    +0.295 HD
ENDBRANCH   7   9
ENDBRANCH   6   7
BRANCH   6  11
ATOM     11  CB  PHE A   1       5.293  -4.691  27.213  0.00  0.00    +0.069 C 
BRANCH  11  12
ATOM     12  CG  PHE A   1       4.670  -5.156  25.919  0.00  0.00    -0.045 A 
ATOM     13  CD2 PHE A   1       3.831  -4.305  25.187  0.00  0.00    +0.004 A 
ATOM     14  CE2 PHE A   1       3.321  -4.703  23.953  0.00  0.00    +0.000 A 
ATOM     15  CZ  PHE A   1       3.623  -5.966  23.450  0.00  0.00    +0.000 A 
ATOM     16  CE1 PHE A   1       4.405  -6.844  24.198  0.00  0.00    +0.000 A 
ATOM     17  CD1 PHE A   1       4.919  -6.446  25.432  0.00  0.00    +0.004 A 
ENDBRANCH  11  12
ENDBRANCH   6  11
ENDBRANCH   3   6
ENDBRANCH   1   2
BRANCH   1  18
ATOM     18  C   UNK A   0       9.232  -1.558  23.708  0.00  0.00    +0.111 C 
BRANCH  18  19
ATOM     19  P   UNK A   0       9.623   0.030  22.888  0.00  0.00    +0.219 P 
ATOM     20  O   UNK A   0      10.874   0.163  23.770  0.00  0.00    -0.289 OA
BRANCH  19  21
ATOM     21  C   UNK A   0      10.015   1.619  22.068  0.00  0.00    +0.135 C 
ATOM     22  C   UNK A   0      10.495   2.594  23.147  0.00  0.00    +0.034 C 
BRANCH  21  23
ATOM     23  N   UNK A   0       8.802   2.172  21.402  0.00  0.00    -0.320 NA
ATOM     24  H   UNK A   0       8.873   3.192  21.360  0.00  0.00    +0.119 HD
ATOM     25  H   UNK A   0       8.831   1.875  20.422  0.00  0.00    +0.119 HD
ENDBRANCH  21  23
ENDBRANCH  19  21
BRANCH  19  26
ATOM     26  O   UNK A   0      10.088  -0.805  21.537  0.00  0.00    -0.343 OA
ATOM     27  H   UNK A   0      10.616  -0.176  20.978  0.00  0.00    +0.218 HD
ENDBRANCH  19  26
ENDBRANCH  18  19
ENDBRANCH   1  18
BRANCH   1  28
ATOM     28  C   UNK A   0       6.658  -2.138  23.354  0.00  0.00    +0.048 C 
BRANCH  28  29
ATOM     29  C   UNK A   0       6.759  -3.501  22.696  0.00  0.00    -0.047 A 
ATOM     30  C   UNK A   0       6.010  -3.732  21.522  0.00  0.00    +0.003 A 
ATOM     31  C   UNK A   0       6.024  -4.975  20.880  0.00  0.00    +0.000 A 
ATOM     32  C   UNK A   0       6.793  -6.011  21.392  0.00  0.00    +0.000 A 
ATOM     33  C   UNK A   0       7.555  -5.798  22.537  0.00  0.00    +0.000 A 
ATOM     34  C   UNK A   0       7.544  -4.552  23.177  0.00  0.00    +0.003 A 
ENDBRANCH  28  29
ENDBRANCH   1  28
TORSDOF 13
ENDMDL
MODEL 3
REMARK VINA RESULT:      -6.2      3.023      7.186
REMARK  Name = 
REMARK  14 active torsions:
REMARK  status: ('A' for Active; 'I' for Inactive)
REMARK    1  A    between atoms: C_2  and  C_3
REMARK    2  A    between atoms: C_2  and  N_4
REMARK    3  A    between atoms: C_2  and  P_5
REMARK    4  A    between atoms: P_5  and  O_6
REMARK    5  A    between atoms: P_5  and  C_8
REMARK    6  A    between atoms: C_8  and  C_9
REMARK    7  A    between atoms: C_9  and  C_11
REMARK    8  A    between atoms: C_9  and  C_18
REMARK    9  A    between atoms: C_11  and  C_12
REMARK   10  A    between atoms: N_20  and  CA_21
REMARK   11  A    between atoms: CA_21  and  CB_23
REMARK   12  A    between atoms: CA_21  and  C_30
REMARK   13  A    between atoms: CB_23  and  CG_24
REMARK   14  A    between atoms: C_30  and  O_31
REMARK                            x       y       z     vdW  Elec       q    Type
REMARK                         _______ _______ _______ _____ _____    ______ ____
ROOT
ATOM      1  C   UNK A   0       5.813  -0.610  24.678  0.00  0.00    +0.088 C 
ENDROOT
BRANCH   1   2
ATOM      2  C   UNK A   0       6.770  -1.440  23.811  0.00  0.00    +0.218 C 
ATOM      3  N   PHE A   1       7.887  -1.930  24.478  0.00  0.00    -0.302 N 
ATOM      4  H   PHE A   1       8.257  -1.359  25.236  0.00  0.00    +0.150 HD
ATOM      5  O   UNK A   0       6.534  -1.731  22.647  0.00  0.00    -0.275 OA
BRANCH   3   6
ATOM      6  CA  PHE A   1       8.856  -2.821  23.787  0.00  0.00    +0.186 C 
BRANCH   6   7
ATOM      7  C   PHE A   1       9.069  -4.123  24.567  0.00  0.00    +0.326 C 
ATOM      8  OXT PHE A   1      10.156  -4.673  24.715  0.00  0.00    -0.249 OA
BRANCH   7   9
ATOM      9  O   PHE A   1       7.951  -4.607  25.158  0.00  0.00    -0.479 OA
ATOM     10  H   PHE A   1       7.341  -3.876  25.378  0.00  0.00    +0.295 HD
ENDBRANCH   7   9
ENDBRANCH   6   7
BRANCH   6  11
ATOM     11  CB  PHE A   1      10.250  -2.182  23.601  0.00  0.00    +0.069 C 
BRANCH  11  12
ATOM     12  CG  PHE A   1      10.200  -0.700  23.317  0.00  0.00    -0.045 A 
ATOM     13  CD2 PHE A   1      10.545   0.227  24.310  0.00  0.00    +0.004 A 
ATOM     14  CE2 PHE A   1      10.577   1.590  24.026  0.00  0.00    +0.000 A 
ATOM     15  CZ  PHE A   1      10.241   2.043  22.752  0.00  0.00    +0.000 A 
ATOM     16  CE1 PHE A   1       9.837   1.136  21.775  0.00  0.00    +0.000 A 
ATOM     17  CD1 PHE A   1       9.806  -0.230  22.058  0.00  0.00    +0.004 A 
ENDBRANCH  11  12
ENDBRANCH   6  11
ENDBRANCH   3   6
ENDBRANCH   1   2
BRANCH   1  18
ATOM     18  C   UNK A   0       5.071  -1.461  25.757  0.00  0.00    +0.111 C 
BRANCH  18  19
ATOM     19  P   UNK A   0       4.460  -3.038  25.060  0.00  0.00    +0.219 P 
ATOM     20  O   UNK A   0       5.172  -3.798  26.190  0.00  0.00    -0.289 OA
BRANCH  19  21
ATOM     21  C   UNK A   0       3.848  -4.617  24.363  0.00  0.00    +0.135 C 
ATOM     22  C   UNK A   0       4.612  -5.754  25.047  0.00  0.00    +0.034 C 
BRANCH  21  23
ATOM     23  N   UNK A   0       4.094  -4.664  22.894  0.00  0.00    -0.320 NA
ATOM     24  H   UNK A   0       4.595  -5.525  22.662  0.00  0.00    +0.119 HD
ATOM     25  H   UNK A   0       3.183  -4.770  22.437  0.00  0.00    +0.119 HD
ENDBRANCH  21  23
ENDBRANCH  19  21
BRANCH  19  26
ATOM     26  O   UNK A   0       2.946  -2.676  25.621  0.00  0.00    -0.343 OA
ATOM     27  H   UNK A   0       2.371  -2.532  24.824  0.00  0.00    +0.218 HD
ENDBRANCH  19  26
ENDBRANCH  18  19
ENDBRANCH   1  18
BRANCH   1  28
ATOM     28  C   UNK A   0       6.528   0.686  25.159  0.00  0.00    +0.048 C 
BRANCH  28  29
ATOM     29  C   UNK A   0       6.756   1.879  24.251  0.00  0.00    -0.047 A 
ATOM     30  C   UNK A   0       7.317   3.047  24.813  0.00  0.00    +0.003 A 
ATOM     31  C   UNK A   0       7.524   4.199  24.047  0.00  0.00    +0.000 A 
ATOM     32  C   UNK A   0       7.184   4.207  22.700  0.00  0.00    +0.000 A 
ATOM     33  C   UNK A   0       6.648   3.059  22.123  0.00  0.00    +0.000 A 
ATOM     34  C   UNK A   0       6.446   1.905  22.889  0.00  0.00    +0.003 A 
ENDBRANCH  28  29
ENDBRANCH   1  28
TORSDOF 13
ENDMDL
MODEL 4
REMARK VINA RESULT:      -6.0      2.609      6.235
REMARK  Name = 
REMARK  14 active torsions:
REMARK  status: ('A' for Active; 'I' for Inactive)
REMARK    1  A    between atoms: C_2  and  C_3
REMARK    2  A    between atoms: C_2  and  N_4
REMARK    3  A    between atoms: C_2  and  P_5
REMARK    4  A    between atoms: P_5  and  O_6
REMARK    5  A    between atoms: P_5  and  C_8
REMARK    6  A    between atoms: C_8  and  C_9
REMARK    7  A    between atoms: C_9  and  C_11
REMARK    8  A    between atoms: C_9  and  C_18
REMARK    9  A    between atoms: C_11  and  C_12
REMARK   10  A    between atoms: N_20  and  CA_21
REMARK   11  A    between atoms: CA_21  and  CB_23
REMARK   12  A    between atoms: CA_21  and  C_30
REMARK   13  A    between atoms: CB_23  and  CG_24
REMARK   14  A    between atoms: C_30  and  O_31
REMARK                            x       y       z     vdW  Elec       q    Type
REMARK                         _______ _______ _______ _____ _____    ______ ____
ROOT
ATOM      1  C   UNK A   0       8.107  -3.700  26.401  0.00  0.00    +0.088 C 
ENDROOT
BRANCH   1   2
ATOM      2  C   UNK A   0       7.863  -2.185  26.426  0.00  0.00    +0.218 C 
ATOM      3  N   PHE A   1       6.638  -1.782  25.908  0.00  0.00    -0.302 N 
ATOM      4  H   PHE A   1       6.251  -2.344  25.152  0.00  0.00    +0.150 HD
ATOM      5  O   UNK A   0       8.638  -1.393  26.942  0.00  0.00    -0.275 OA
BRANCH   3   6
ATOM      6  CA  PHE A   1       6.230  -0.353  25.946  0.00  0.00    +0.186 C 
BRANCH   6   7
ATOM      7  C   PHE A   1       4.982  -0.153  26.815  0.00  0.00    +0.326 C 
ATOM      8  OXT PHE A   1       3.883   0.183  26.384  0.00  0.00    -0.249 OA
BRANCH   7   9
ATOM      9  O   PHE A   1       5.164  -0.447  28.124  0.00  0.00    -0.479 OA
ATOM     10  H   PHE A   1       4.703   0.209  28.684  0.00  0.00    +0.295 HD
ENDBRANCH   7   9
ENDBRANCH   6   7
BRANCH   6  11
ATOM     11  CB  PHE A   1       5.896   0.226  24.553  0.00  0.00    +0.069 C 
BRANCH  11  12
ATOM     12  CG  PHE A   1       7.072   0.894  23.881  0.00  0.00    -0.045 A 
ATOM     13  CD2 PHE A   1       6.972   1.352  22.561  0.00  0.00    +0.004 A 
ATOM     14  CE2 PHE A   1       8.028   2.040  21.968  0.00  0.00    +0.000 A 
ATOM     15  CZ  PHE A   1       9.205   2.256  22.681  0.00  0.00    +0.000 A 
ATOM     16  CE1 PHE A   1       9.339   1.750  23.972  0.00  0.00    +0.000 A 
ATOM     17  CD1 PHE A   1       8.281   1.063  24.568  0.00  0.00    +0.004 A 
ENDBRANCH  11  12
ENDBRANCH   6  11
ENDBRANCH   3   6
ENDBRANCH   1   2
BRANCH   1  18
ATOM     18  C   UNK A   0       6.845  -4.530  26.797  0.00  0.00    +0.111 C 
BRANCH  18  19
ATOM     19  P   UNK A   0       6.084  -5.327  25.336  0.00  0.00    +0.219 P 
ATOM     20  O   UNK A   0       5.648  -6.505  26.221  0.00  0.00    -0.289 OA
BRANCH  19  21
ATOM     21  C   UNK A   0       5.322  -6.124  23.874  0.00  0.00    +0.135 C 
ATOM     22  C   UNK A   0       4.419  -5.089  23.198  0.00  0.00    +0.034 C 
BRANCH  21  23
ATOM     23  N   UNK A   0       4.507  -7.299  24.291  0.00  0.00    -0.320 NA
ATOM     24  H   UNK A   0       3.513  -7.072  24.201  0.00  0.00    +0.119 HD
ATOM     25  H   UNK A   0       4.661  -8.037  23.598  0.00  0.00    +0.119 HD
ENDBRANCH  21  23
ENDBRANCH  19  21
BRANCH  19  26
ATOM     26  O   UNK A   0       4.857  -4.217  25.396  0.00  0.00    -0.343 OA
ATOM     27  H   UNK A   0       5.282  -3.320  25.417  0.00  0.00    +0.218 HD
ENDBRANCH  19  26
ENDBRANCH  18  19
ENDBRANCH   1  18
BRANCH   1  28
ATOM     28  C   UNK A   0       8.834  -4.095  25.082  0.00  0.00    +0.048 C 
BRANCH  28  29
ATOM     29  C   UNK A   0       9.043  -3.119  23.940  0.00  0.00    -0.047 A 
ATOM     30  C   UNK A   0       8.000  -2.959  23.001  0.00  0.00    +0.003 A 
ATOM     31  C   UNK A   0       8.133  -2.105  21.901  0.00  0.00    +0.000 A 
ATOM     32  C   UNK A   0       9.307  -1.386  21.720  0.00  0.00    +0.000 A 
ATOM     33  C   UNK A   0      10.339  -1.514  22.645  0.00  0.00    +0.000 A 
ATOM     34  C   UNK A   0      10.204  -2.366  23.749  0.00  0.00    +0.003 A 
ENDBRANCH  28  29
ENDBRANCH   1  28
TORSDOF 13
ENDMDL
MODEL 5
REMARK VINA RESULT:      -5.9      2.974      6.831
REMARK  Name = 
REMARK  14 active torsions:
REMARK  status: ('A' for Active; 'I' for Inactive)
REMARK    1  A    between atoms: C_2  and  C_3
REMARK    2  A    between atoms: C_2  and  N_4
REMARK    3  A    between atoms: C_2  and  P_5
REMARK    4  A    between atoms: P_5  and  O_6
REMARK    5  A    between atoms: P_5  and  C_8
REMARK    6  A    between atoms: C_8  and  C_9
REMARK    7  A    between atoms: C_9  and  C_11
REMARK    8  A    between atoms: C_9  and  C_18
REMARK    9  A    between atoms: C_11  and  C_12
REMARK   10  A    between atoms: N_20  and  CA_21
REMARK   11  A    between atoms: CA_21  and  CB_23
REMARK   12  A    between atoms: CA_21  and  C_30
REMARK   13  A    between atoms: CB_23  and  CG_24
REMARK   14  A    between atoms: C_30  and  O_31
REMARK                            x       y       z     vdW  Elec       q    Type
REMARK                         _______ _______ _______ _____ _____    ______ ____
ROOT
ATOM      1  C   UNK A   0       8.972  -2.880  24.729  0.00  0.00    +0.088 C 
ENDROOT
BRANCH   1   2
ATOM      2  C   UNK A   0       7.710  -2.006  24.703  0.00  0.00    +0.218 C 
ATOM      3  N   PHE A   1       7.688  -0.983  25.643  0.00  0.00    -0.302 N 
ATOM      4  H   PHE A   1       8.163  -1.160  26.527  0.00  0.00    +0.150 HD
ATOM      5  O   UNK A   0       6.828  -2.133  23.866  0.00  0.00    -0.275 OA
BRANCH   3   6
ATOM      6  CA  PHE A   1       6.568  -0.006  25.678  0.00  0.00    +0.186 C 
BRANCH   6   7
ATOM      7  C   PHE A   1       5.343  -0.588  26.393  0.00  0.00    +0.326 C 
ATOM      8  OXT PHE A   1       5.114  -0.458  27.591  0.00  0.00    -0.249 OA
BRANCH   7   9
ATOM      9  O   PHE A   1       4.468  -1.219  25.574  0.00  0.00    -0.479 OA
ATOM     10  H   PHE A   1       4.211  -0.630  24.837  0.00  0.00    +0.295 HD
ENDBRANCH   7   9
ENDBRANCH   6   7
BRANCH   6  11
ATOM     11  CB  PHE A   1       6.095   0.432  24.274  0.00  0.00    +0.069 C 
BRANCH  11  12
ATOM     12  CG  PHE A   1       6.576   1.807  23.879  0.00  0.00    -0.045 A 
ATOM     13  CD2 PHE A   1       7.301   2.595  24.783  0.00  0.00    +0.004 A 
ATOM     14  CE2 PHE A   1       7.815   3.829  24.393  0.00  0.00    +0.000 A 
ATOM     15  CZ  PHE A   1       7.588   4.301  23.102  0.00  0.00    +0.000 A 
ATOM     16  CE1 PHE A   1       6.815   3.555  22.214  0.00  0.00    +0.000 A 
ATOM     17  CD1 PHE A   1       6.302   2.317  22.603  0.00  0.00    +0.004 A 
ENDBRANCH  11  12
ENDBRANCH   6  11
ENDBRANCH   3   6
ENDBRANCH   1   2
BRANCH   1  18
ATOM     18  C   UNK A   0       8.658  -4.410  24.692  0.00  0.00    +0.111 C 
BRANCH  18  19
ATOM     19  P   UNK A   0       7.436  -4.872  25.973  0.00  0.00    +0.219 P 
ATOM     20  O   UNK A   0       6.592  -5.571  24.897  0.00  0.00    -0.289 OA
BRANCH  19  21
ATOM     21  C   UNK A   0       6.213  -5.334  27.255  0.00  0.00    +0.135 C 
ATOM     22  C   UNK A   0       5.580  -4.043  27.781  0.00  0.00    +0.034 C 
BRANCH  21  23
ATOM     23  N   UNK A   0       6.884  -6.053  28.375  0.00  0.00    -0.320 NA
ATOM     24  H   UNK A   0       6.216  -6.188  29.138  0.00  0.00    +0.119 HD
ATOM     25  H   UNK A   0       7.090  -7.001  28.047  0.00  0.00    +0.119 HD
ENDBRANCH  21  23
ENDBRANCH  19  21
BRANCH  19  26
ATOM     26  O   UNK A   0       8.497  -6.005  26.547  0.00  0.00    -0.343 OA
ATOM     27  H   UNK A   0       9.167  -6.161  25.831  0.00  0.00    +0.218 HD
ENDBRANCH  19  26
ENDBRANCH  18  19
ENDBRANCH   1  18
BRANCH   1  28
ATOM     28  C   UNK A   0      10.008  -2.341  23.701  0.00  0.00    +0.048 C 
BRANCH  28  29
ATOM     29  C   UNK A   0      10.006  -0.903  23.215  0.00  0.00    -0.047 A 
ATOM     30  C   UNK A   0       9.423  -0.624  21.960  0.00  0.00    +0.003 A 
ATOM     31  C   UNK A   0       9.416   0.671  21.430  0.00  0.00    +0.000 A 
ATOM     32  C   UNK A   0       9.984   1.716  22.147  0.00  0.00    +0.000 A 
ATOM     33  C   UNK A   0      10.546   1.465  23.395  0.00  0.00    +0.000 A 
ATOM     34  C   UNK A   0      10.549   0.170  23.928  0.00  0.00    +0.003 A 
ENDBRANCH  28  29
ENDBRANCH   1  28
TORSDOF 13
ENDMDL
MODEL 6
REMARK VINA RESULT:      -5.8      3.078      5.435
REMARK  Name = 
REMARK  14 active torsions:
REMARK  status: ('A' for Active; 'I' for Inactive)
REMARK    1  A    between atoms: C_2  and  C_3
REMARK    2  A    between atoms: C_2  and  N_4
REMARK    3  A    between atoms: C_2  and  P_5
REMARK    4  A    between atoms: P_5  and  O_6
REMARK    5  A    between atoms: P_5  and  C_8
REMARK    6  A    between atoms: C_8  and  C_9
REMARK    7  A    between atoms: C_9  and  C_11
REMARK    8  A    between atoms: C_9  and  C_18
REMARK    9  A    between atoms: C_11  and  C_12
REMARK   10  A    between atoms: N_20  and  CA_21
REMARK   11  A    between atoms: CA_21  and  CB_23
REMARK   12  A    between atoms: CA_21  and  C_30
REMARK   13  A    between atoms: CB_23  and  CG_24
REMARK   14  A    between atoms: C_30  and  O_31
REMARK                            x       y       z     vdW  Elec       q    Type
REMARK                         _______ _______ _______ _____ _____    ______ ____
ROOT
ATOM      1  C   UNK A   0       8.800  -0.763  23.562  0.00  0.00    +0.088 C 
ENDROOT
BRANCH   1   2
ATOM      2  C   UNK A   0       8.819  -2.237  23.132  0.00  0.00    +0.218 C 
ATOM      3  N   PHE A   1       7.568  -2.789  22.881  0.00  0.00    -0.302 N 
ATOM      4  H   PHE A   1       6.790  -2.433  23.432  0.00  0.00    +0.150 HD
ATOM      5  O   UNK A   0       9.852  -2.861  22.934  0.00  0.00    -0.275 OA
BRANCH   3   6
ATOM      6  CA  PHE A   1       7.440  -4.181  22.374  0.00  0.00    +0.186 C 
BRANCH   6   7
ATOM      7  C   PHE A   1       6.244  -4.319  21.424  0.00  0.00    +0.326 C 
ATOM      8  OXT PHE A   1       6.031  -5.296  20.714  0.00  0.00    -0.249 OA
BRANCH   7   9
ATOM      9  O   PHE A   1       5.373  -3.283  21.472  0.00  0.00    -0.479 OA
ATOM     10  H   PHE A   1       4.455  -3.609  21.390  0.00  0.00    +0.295 HD
ENDBRANCH   7   9
ENDBRANCH   6   7
BRANCH   6  11
ATOM     11  CB  PHE A   1       7.237  -5.224  23.495  0.00  0.00    +0.069 C 
BRANCH  11  12
ATOM     12  CG  PHE A   1       6.698  -4.634  24.776  0.00  0.00    -0.045 A 
ATOM     13  CD2 PHE A   1       5.327  -4.385  24.922  0.00  0.00    +0.004 A 
ATOM     14  CE2 PHE A   1       4.818  -3.917  26.132  0.00  0.00    +0.000 A 
ATOM     15  CZ  PHE A   1       5.678  -3.669  27.200  0.00  0.00    +0.000 A 
ATOM     16  CE1 PHE A   1       7.050  -3.854  27.045  0.00  0.00    +0.000 A 
ATOM     17  CD1 PHE A   1       7.561  -4.325  25.835  0.00  0.00    +0.004 A 
ENDBRANCH  11  12
ENDBRANCH   6  11
ENDBRANCH   3   6
ENDBRANCH   1   2
BRANCH   1  18
ATOM     18  C   UNK A   0       9.689   0.149  22.659  0.00  0.00    +0.111 C 
BRANCH  18  19
ATOM     19  P   UNK A   0       9.462   1.918  23.069  0.00  0.00    +0.219 P 
ATOM     20  O   UNK A   0      10.559   1.798  24.139  0.00  0.00    -0.289 OA
BRANCH  19  21
ATOM     21  C   UNK A   0       9.236   3.688  23.479  0.00  0.00    +0.135 C 
ATOM     22  C   UNK A   0       8.606   3.766  24.873  0.00  0.00    +0.034 C 
BRANCH  21  23
ATOM     23  N   UNK A   0       8.332   4.338  22.488  0.00  0.00    -0.320 NA
ATOM     24  H   UNK A   0       8.893   4.755  21.741  0.00  0.00    +0.119 HD
ATOM     25  H   UNK A   0       7.806   3.592  22.023  0.00  0.00    +0.119 HD
ENDBRANCH  21  23
ENDBRANCH  19  21
BRANCH  19  26
ATOM     26  O   UNK A   0      10.227   2.322  21.658  0.00  0.00    -0.343 OA
ATOM     27  H   UNK A   0      10.606   1.483  21.286  0.00  0.00    +0.218 HD
ENDBRANCH  19  26
ENDBRANCH  18  19
ENDBRANCH   1  18
BRANCH   1  28
ATOM     28  C   UNK A   0       7.333  -0.306  23.812  0.00  0.00    +0.048 C 
BRANCH  28  29
ATOM     29  C   UNK A   0       6.745  -0.168  25.203  0.00  0.00    -0.047 A 
ATOM     30  C   UNK A   0       7.632   0.026  26.285  0.00  0.00    +0.003 A 
ATOM     31  C   UNK A   0       7.167   0.127  27.601  0.00  0.00    +0.000 A 
ATOM     32  C   UNK A   0       5.806   0.044  27.864  0.00  0.00    +0.000 A 
ATOM     33  C   UNK A   0       4.914  -0.127  26.809  0.00  0.00    +0.000 A 
ATOM     34  C   UNK A   0       5.379  -0.222  25.491  0.00  0.00    +0.003 A 
ENDBRANCH  28  29
ENDBRANCH   1  28
TORSDOF 13
ENDMDL
MODEL 7
REMARK VINA RESULT:      -5.8      3.098      6.605
REMARK  Name = 
REMARK  14 active torsions:
REMARK  status: ('A' for Active; 'I' for Inactive)
REMARK    1  A    between atoms: C_2  and  C_3
REMARK    2  A    between atoms: C_2  and  N_4
REMARK    3  A    between atoms: C_2  and  P_5
REMARK    4  A    between atoms: P_5  and  O_6
REMARK    5  A    between atoms: P_5  and  C_8
REMARK    6  A    between atoms: C_8  and  C_9
REMARK    7  A    between atoms: C_9  and  C_11
REMARK    8  A    between atoms: C_9  and  C_18
REMARK    9  A    between atoms: C_11  and  C_12
REMARK   10  A    between atoms: N_20  and  CA_21
REMARK   11  A    between atoms: CA_21  and  CB_23
REMARK   12  A    between atoms: CA_21  and  C_30
REMARK   13  A    between atoms: CB_23  and  CG_24
REMARK   14  A    between atoms: C_30  and  O_31
REMARK                            x       y       z     vdW  Elec       q    Type
REMARK                         _______ _______ _______ _____ _____    ______ ____
ROOT
ATOM      1  C   UNK A   0       8.682  -2.887  25.485  0.00  0.00    +0.088 C 
ENDROOT
BRANCH   1   2
ATOM      2  C   UNK A   0       8.159  -1.523  25.960  0.00  0.00    +0.218 C 
ATOM      3  N   PHE A   1       7.037  -1.061  25.282  0.00  0.00    -0.302 N 
ATOM      4  H   PHE A   1       6.951  -1.322  24.302  0.00  0.00    +0.150 HD
ATOM      5  O   UNK A   0       8.628  -0.925  26.917  0.00  0.00    -0.275 OA
BRANCH   3   6
ATOM      6  CA  PHE A   1       6.370   0.204  25.691  0.00  0.00    +0.186 C 
BRANCH   6   7
ATOM      7  C   PHE A   1       5.147  -0.072  26.573  0.00  0.00    +0.326 C 
ATOM      8  OXT PHE A   1       3.984   0.061  26.206  0.00  0.00    -0.249 OA
BRANCH   7   9
ATOM      9  O   PHE A   1       5.445  -0.551  27.804  0.00  0.00    -0.479 OA
ATOM     10  H   PHE A   1       6.239  -0.103  28.157  0.00  0.00    +0.295 HD
ENDBRANCH   7   9
ENDBRANCH   6   7
BRANCH   6  11
ATOM     11  CB  PHE A   1       5.873   1.048  24.496  0.00  0.00    +0.069 C 
BRANCH  11  12
ATOM     12  CG  PHE A   1       6.826   2.151  24.102  0.00  0.00    -0.045 A 
ATOM     13  CD2 PHE A   1       6.730   2.758  22.842  0.00  0.00    +0.004 A 
ATOM     14  CE2 PHE A   1       7.554   3.830  22.508  0.00  0.00    +0.000 A 
ATOM     15  CZ  PHE A   1       8.501   4.291  23.420  0.00  0.00    +0.000 A 
ATOM     16  CE1 PHE A   1       8.647   3.655  24.651  0.00  0.00    +0.000 A 
ATOM     17  CD1 PHE A   1       7.821   2.583  24.988  0.00  0.00    +0.004 A 
ENDBRANCH  11  12
ENDBRANCH   6  11
ENDBRANCH   3   6
ENDBRANCH   1   2
BRANCH   1  18
ATOM     18  C   UNK A   0       7.575  -3.987  25.445  0.00  0.00    +0.111 C 
BRANCH  18  19
ATOM     19  P   UNK A   0       7.278  -4.573  23.737  0.00  0.00    +0.219 P 
ATOM     20  O   UNK A   0       6.414  -5.715  24.293  0.00  0.00    -0.289 OA
BRANCH  19  21
ATOM     21  C   UNK A   0       6.981  -5.160  22.028  0.00  0.00    +0.135 C 
ATOM     22  C   UNK A   0       6.089  -4.129  21.331  0.00  0.00    +0.034 C 
BRANCH  21  23
ATOM     23  N   UNK A   0       6.295  -6.481  22.046  0.00  0.00    -0.320 NA
ATOM     24  H   UNK A   0       6.844  -7.142  22.602  0.00  0.00    +0.119 HD
ATOM     25  H   UNK A   0       5.426  -6.366  22.577  0.00  0.00    +0.119 HD
ENDBRANCH  21  23
ENDBRANCH  19  21
BRANCH  19  26
ATOM     26  O   UNK A   0       6.260  -3.291  23.495  0.00  0.00    -0.343 OA
ATOM     27  H   UNK A   0       5.767  -3.470  22.651  0.00  0.00    +0.218 HD
ENDBRANCH  19  26
ENDBRANCH  18  19
ENDBRANCH   1  18
BRANCH   1  28
ATOM     28  C   UNK A   0       9.551  -2.702  24.207  0.00  0.00    +0.048 C 
BRANCH  28  29
ATOM     29  C   UNK A   0       9.703  -1.365  23.508  0.00  0.00    -0.047 A 
ATOM     30  C   UNK A   0       9.069  -1.188  22.260  0.00  0.00    +0.003 A 
ATOM     31  C   UNK A   0       9.194   0.005  21.539  0.00  0.00    +0.000 A 
ATOM     32  C   UNK A   0       9.949   1.050  22.054  0.00  0.00    +0.000 A 
ATOM     33  C   UNK A   0      10.566   0.903  23.293  0.00  0.00    +0.000 A 
ATOM     34  C   UNK A   0      10.436  -0.289  24.017  0.00  0.00    +0.003 A 
ENDBRANCH  28  29
ENDBRANCH   1  28
TORSDOF 13
ENDMDL
MODEL 8
REMARK VINA RESULT:      -5.7      3.152      7.677
REMARK  Name = 
REMARK  14 active torsions:
REMARK  status: ('A' for Active; 'I' for Inactive)
REMARK    1  A    between atoms: C_2  and  C_3
REMARK    2  A    between atoms: C_2  and  N_4
REMARK    3  A    between atoms: C_2  and  P_5
REMARK    4  A    between atoms: P_5  and  O_6
REMARK    5  A    between atoms: P_5  and  C_8
REMARK    6  A    between atoms: C_8  and  C_9
REMARK    7  A    between atoms: C_9  and  C_11
REMARK    8  A    between atoms: C_9  and  C_18
REMARK    9  A    between atoms: C_11  and  C_12
REMARK   10  A    between atoms: N_20  and  CA_21
REMARK   11  A    between atoms: CA_21  and  CB_23
REMARK   12  A    between atoms: CA_21  and  C_30
REMARK   13  A    between atoms: CB_23  and  CG_24
REMARK   14  A    between atoms: C_30  and  O_31
REMARK                            x       y       z     vdW  Elec       q    Type
REMARK                         _______ _______ _______ _____ _____    ______ ____
ROOT
ATOM      1  C   UNK A   0       5.984  -1.228  24.822  0.00  0.00    +0.088 C 
ENDROOT
BRANCH   1   2
ATOM      2  C   UNK A   0       6.732  -1.586  23.530  0.00  0.00    +0.218 C 
ATOM      3  N   PHE A   1       7.949  -0.936  23.360  0.00  0.00    -0.302 N 
ATOM      4  H   PHE A   1       8.026   0.003  23.746  0.00  0.00    +0.150 HD
ATOM      5  O   UNK A   0       6.342  -2.442  22.749  0.00  0.00    -0.275 OA
BRANCH   3   6
ATOM      6  CA  PHE A   1       8.822  -1.250  22.198  0.00  0.00    +0.186 C 
BRANCH   6   7
ATOM      7  C   PHE A   1      10.124  -1.923  22.646  0.00  0.00    +0.326 C 
ATOM      8  OXT PHE A   1      11.234  -1.652  22.199  0.00  0.00    -0.249 OA
BRANCH   7   9
ATOM      9  O   PHE A   1       9.971  -2.820  23.649  0.00  0.00    -0.479 OA
ATOM     10  H   PHE A   1      10.083  -2.381  24.515  0.00  0.00    +0.295 HD
ENDBRANCH   7   9
ENDBRANCH   6   7
BRANCH   6  11
ATOM     11  CB  PHE A   1       9.227  -0.001  21.382  0.00  0.00    +0.069 C 
BRANCH  11  12
ATOM     12  CG  PHE A   1       8.948   1.299  22.096  0.00  0.00    -0.045 A 
ATOM     13  CD2 PHE A   1       9.796   1.748  23.117  0.00  0.00    +0.004 A 
ATOM     14  CE2 PHE A   1       9.587   2.986  23.720  0.00  0.00    +0.000 A 
ATOM     15  CZ  PHE A   1       8.511   3.779  23.325  0.00  0.00    +0.000 A 
ATOM     16  CE1 PHE A   1       7.624   3.315  22.355  0.00  0.00    +0.000 A 
ATOM     17  CD1 PHE A   1       7.835   2.077  21.749  0.00  0.00    +0.004 A 
ENDBRANCH  11  12
ENDBRANCH   6  11
ENDBRANCH   3   6
ENDBRANCH   1   2
BRANCH   1  18
ATOM     18  C   UNK A   0       5.433  -2.479  25.578  0.00  0.00    +0.111 C 
BRANCH  18  19
ATOM     19  P   UNK A   0       6.789  -3.576  26.130  0.00  0.00    +0.219 P 
ATOM     20  O   UNK A   0       5.991  -3.901  27.401  0.00  0.00    -0.289 OA
BRANCH  19  21
ATOM     21  C   UNK A   0       8.146  -4.674  26.682  0.00  0.00    +0.135 C 
ATOM     22  C   UNK A   0       8.765  -5.311  25.435  0.00  0.00    +0.034 C 
BRANCH  21  23
ATOM     23  N   UNK A   0       7.618  -5.741  27.576  0.00  0.00    -0.320 NA
ATOM     24  H   UNK A   0       8.153  -5.749  28.448  0.00  0.00    +0.119 HD
ATOM     25  H   UNK A   0       6.675  -5.460  27.862  0.00  0.00    +0.119 HD
ENDBRANCH  21  23
ENDBRANCH  19  21
BRANCH  19  26
ATOM     26  O   UNK A   0       6.329  -4.685  24.990  0.00  0.00    -0.343 OA
ATOM     27  H   UNK A   0       5.541  -5.165  25.358  0.00  0.00    +0.218 HD
ENDBRANCH  19  26
ENDBRANCH  18  19
ENDBRANCH   1  18
BRANCH   1  28
ATOM     28  C   UNK A   0       6.819  -0.207  25.649  0.00  0.00    +0.048 C 
BRANCH  28  29
ATOM     29  C   UNK A   0       6.465   1.267  25.726  0.00  0.00    -0.047 A 
ATOM     30  C   UNK A   0       5.385   1.734  24.947  0.00  0.00    +0.003 A 
ATOM     31  C   UNK A   0       5.023   3.086  24.938  0.00  0.00    +0.000 A 
ATOM     32  C   UNK A   0       5.726   3.998  25.714  0.00  0.00    +0.000 A 
ATOM     33  C   UNK A   0       6.782   3.553  26.505  0.00  0.00    +0.000 A 
ATOM     34  C   UNK A   0       7.141   2.199  26.518  0.00  0.00    +0.003 A 
ENDBRANCH  28  29
ENDBRANCH   1  28
TORSDOF 13
ENDMDL
MODEL 9
REMARK VINA RESULT:      -5.7      3.162      6.836
REMARK  Name = 
REMARK  14 active torsions:
REMARK  status: ('A' for Active; 'I' for Inactive)
REMARK    1  A    between atoms: C_2  and  C_3
REMARK    2  A    between atoms: C_2  and  N_4
REMARK    3  A    between atoms: C_2  and  P_5
REMARK    4  A    between atoms: P_5  and  O_6
REMARK    5  A    between atoms: P_5  and  C_8
REMARK    6  A    between atoms: C_8  and  C_9
REMARK    7  A    between atoms: C_9  and  C_11
REMARK    8  A    between atoms: C_9  and  C_18
REMARK    9  A    between atoms: C_11  and  C_12
REMARK   10  A    between atoms: N_20  and  CA_21
REMARK   11  A    between atoms: CA_21  and  CB_23
REMARK   12  A    between atoms: CA_21  and  C_30
REMARK   13  A    between atoms: CB_23  and  CG_24
REMARK   14  A    between atoms: C_30  and  O_31
REMARK                            x       y       z     vdW  Elec       q    Type
REMARK                         _______ _______ _______ _____ _____    ______ ____
ROOT
ATOM      1  C   UNK A   0       8.275  -2.458  23.551  0.00  0.00    +0.088 C 
ENDROOT
BRANCH   1   2
ATOM      2  C   UNK A   0       7.778  -1.776  24.834  0.00  0.00    +0.218 C 
ATOM      3  N   PHE A   1       6.654  -0.975  24.672  0.00  0.00    -0.302 N 
ATOM      4  H   PHE A   1       6.551  -0.503  23.775  0.00  0.00    +0.150 HD
ATOM      5  O   UNK A   0       8.269  -1.985  25.934  0.00  0.00    -0.275 OA
BRANCH   3   6
ATOM      6  CA  PHE A   1       6.012  -0.321  25.842  0.00  0.00    +0.186 C 
BRANCH   6   7
ATOM      7  C   PHE A   1       4.956  -1.233  26.480  0.00  0.00    +0.326 C 
ATOM      8  OXT PHE A   1       3.754  -1.170  26.246  0.00  0.00    -0.249 OA
BRANCH   7   9
ATOM      9  O   PHE A   1       5.465  -2.187  27.295  0.00  0.00    -0.479 OA
ATOM     10  H   PHE A   1       4.755  -2.791  27.592  0.00  0.00    +0.295 HD
ENDBRANCH   7   9
ENDBRANCH   6   7
BRANCH   6  11
ATOM     11  CB  PHE A   1       5.298   1.003  25.489  0.00  0.00    +0.069 C 
BRANCH  11  12
ATOM     12  CG  PHE A   1       6.239   2.089  25.028  0.00  0.00    -0.045 A 
ATOM     13  CD2 PHE A   1       6.186   2.566  23.712  0.00  0.00    +0.004 A 
ATOM     14  CE2 PHE A   1       6.998   3.625  23.309  0.00  0.00    +0.000 A 
ATOM     15  CZ  PHE A   1       7.889   4.201  24.211  0.00  0.00    +0.000 A 
ATOM     16  CE1 PHE A   1       7.995   3.693  25.504  0.00  0.00    +0.000 A 
ATOM     17  CD1 PHE A   1       7.181   2.635  25.910  0.00  0.00    +0.004 A 
ENDBRANCH  11  12
ENDBRANCH   6  11
ENDBRANCH   3   6
ENDBRANCH   1   2
BRANCH   1  18
ATOM     18  C   UNK A   0       7.192  -2.511  22.428  0.00  0.00    +0.111 C 
BRANCH  18  19
ATOM     19  P   UNK A   0       6.212  -4.054  22.517  0.00  0.00    +0.219 P 
ATOM     20  O   UNK A   0       5.182  -3.334  23.400  0.00  0.00    -0.289 OA
BRANCH  19  21
ATOM     21  C   UNK A   0       5.232  -5.598  22.606  0.00  0.00    +0.135 C 
ATOM     22  C   UNK A   0       4.962  -5.893  24.084  0.00  0.00    +0.034 C 
BRANCH  21  23
ATOM     23  N   UNK A   0       5.992  -6.729  22.003  0.00  0.00    -0.320 NA
ATOM     24  H   UNK A   0       5.484  -7.083  21.188  0.00  0.00    +0.119 HD
ATOM     25  H   UNK A   0       6.856  -6.342  21.614  0.00  0.00    +0.119 HD
ENDBRANCH  21  23
ENDBRANCH  19  21
BRANCH  19  26
ATOM     26  O   UNK A   0       5.734  -3.817  20.950  0.00  0.00    -0.343 OA
ATOM     27  H   UNK A   0       5.430  -4.698  20.606  0.00  0.00    +0.218 HD
ENDBRANCH  19  26
ENDBRANCH  18  19
ENDBRANCH   1  18
BRANCH   1  28
ATOM     28  C   UNK A   0       9.675  -1.898  23.165  0.00  0.00    +0.048 C 
BRANCH  28  29
ATOM     29  C   UNK A   0       9.954  -0.413  23.031  0.00  0.00    -0.047 A 
ATOM     30  C   UNK A   0      10.539   0.256  24.128  0.00  0.00    +0.003 A 
ATOM     31  C   UNK A   0      10.792   1.632  24.092  0.00  0.00    +0.000 A 
ATOM     32  C   UNK A   0      10.474   2.367  22.957  0.00  0.00    +0.000 A 
ATOM     33  C   UNK A   0       9.915   1.721  21.858  0.00  0.00    +0.000 A 
ATOM     34  C   UNK A   0       9.666   0.343  21.892  0.00  0.00    +0.003 A 
ENDBRANCH  28  29
ENDBRANCH   1  28
TORSDOF 13
ENDMDL
