MODEL 1
REMARK VINA RESULT:      -7.4      0.000      0.000
REMARK  Name = 
REMARK  11 active torsions:
REMARK  status: ('A' for Active; 'I' for Inactive)
REMARK    1  A    between atoms: C_2  and  C_3
REMARK    2  A    between atoms: C_2  and  C_4
REMARK    3  A    between atoms: C_2  and  C_15
REMARK    4  A    between atoms: C_5  and  C_6
REMARK    5  A    between atoms: C_7  and  N_8
REMARK    6  A    between atoms: C_13  and  C_14
REMARK    7  A    between atoms: C_17  and  O_18
REMARK    8  A    between atoms: O_18  and  C_19
REMARK    9  A    between atoms: C_21  and  C_23
REMARK   10  A    between atoms: C_24  and  C_25
REMARK   11  A    between atoms: C_29  and  C_30
REMARK                            x       y       z     vdW  Elec       q    Type
REMARK                         _______ _______ _______ _____ _____    ______ ____
ROOT
ATOM      1  C   UNL     1       8.128  -4.600  23.866  0.00  0.00    +0.091 C 
ATOM      2  C   UNL     1       7.541  -5.047  22.516  0.00  0.00    +0.026 C 
ENDROOT
BRANCH   1   3
ATOM      3  C   UNL     1       7.093  -4.799  24.970  0.00  0.00    -0.029 A 
ATOM      4  C   UNL     1       5.709  -4.623  24.742  0.00  0.00    +0.013 A 
ATOM      5  C   UNL     1       4.708  -5.106  25.620  0.00  0.00    -0.014 A 
ATOM      6  C   UNL     1       5.192  -5.721  26.789  0.00  0.00    +0.054 A 
ATOM      7  C   UNL     1       6.547  -5.708  27.140  0.00  0.00    +0.121 A 
ATOM      8  C   UNL     1       7.496  -5.291  26.215  0.00  0.00    +0.050 A 
BRANCH   5   9
ATOM      9  C   UNL     1       3.222  -4.958  25.338  0.00  0.00    -0.012 A 
ATOM     10  C   UNL     1       2.470  -5.981  24.670  0.00  0.00    -0.042 A 
ATOM     11  C   UNL     1       2.996  -7.353  24.324  0.00  0.00    +0.044 C 
ATOM     12  C   UNL     1       1.130  -5.762  24.275  0.00  0.00    +0.004 A 
ATOM     13  C   UNL     1       0.452  -4.608  24.619  0.00  0.00    +0.001 A 
ATOM     14  C   UNL     1       1.114  -3.643  25.355  0.00  0.00    +0.004 A 
ATOM     15  C   UNL     1       2.483  -3.774  25.690  0.00  0.00    -0.042 A 
ATOM     16  C   UNL     1       3.024  -2.593  26.462  0.00  0.00    +0.044 C 
ENDBRANCH   5   9
BRANCH   7  17
ATOM     17  O   UNL     1       7.025  -6.143  28.349  0.00  0.00    -0.495 OA
ATOM     18  C   UNL     1       6.009  -6.409  29.319  0.00  0.00    +0.277 C 
ENDBRANCH   7  17
ENDBRANCH   1   3
BRANCH   1  19
ATOM     19  C   UNL     1       8.673  -3.232  23.747  0.00  0.00    -0.089 C 
ATOM     20  C   UNL     1       9.021  -2.085  23.592  0.00  0.00    -0.060 C 
BRANCH  20  21
ATOM     21  C   UNL     1       9.402  -0.709  23.444  0.00  0.00    +0.085 A 
ATOM     22  C   UNL     1       9.532   0.165  24.520  0.00  0.00    +0.060 A 
ATOM     23  C   UNL     1       9.169  -0.231  25.922  0.00  0.00    +0.067 C 
ATOM     24  N   UNL     1       9.956   1.447  24.374  0.00  0.00    -0.219 NA
ATOM     25  C   UNL     1      10.221   1.864  23.136  0.00  0.00    +0.215 A 
ATOM     26  N   UNL     1      10.671   3.158  22.982  0.00  0.00    -0.327 N 
ATOM     27  H   UNL     1      11.088   3.490  23.838  0.00  0.00    +0.145 HD
ATOM     28  H   UNL     1      11.210   3.237  22.133  0.00  0.00    +0.145 HD
ATOM     29  N   UNL     1      10.115   1.111  22.040  0.00  0.00    -0.199 NA
ATOM     30  C   UNL     1       9.702  -0.158  22.206  0.00  0.00    +0.137 A 
BRANCH  30  31
ATOM     31  N   UNL     1       9.513  -0.870  21.018  0.00  0.00    -0.342 N 
ATOM     32  H   UNL     1      10.388  -0.873  20.506  0.00  0.00    +0.144 HD
ATOM     33  H   UNL     1       9.124  -1.793  21.167  0.00  0.00    +0.144 HD
ENDBRANCH  30  31
ENDBRANCH  20  21
ENDBRANCH   1  19
TORSDOF 6
ENDMDL
MODEL 2
REMARK VINA RESULT:      -7.3      0.434      1.686
REMARK  Name = 
REMARK  11 active torsions:
REMARK  status: ('A' for Active; 'I' for Inactive)
REMARK    1  A    between atoms: C_2  and  C_3
REMARK    2  A    between atoms: C_2  and  C_4
REMARK    3  A    between atoms: C_2  and  C_15
REMARK    4  A    between atoms: C_5  and  C_6
REMARK    5  A    between atoms: C_7  and  N_8
REMARK    6  A    between atoms: C_13  and  C_14
REMARK    7  A    between atoms: C_17  and  O_18
REMARK    8  A    between atoms: O_18  and  C_19
REMARK    9  A    between atoms: C_21  and  C_23
REMARK   10  A    between atoms: C_24  and  C_25
REMARK   11  A    between atoms: C_29  and  C_30
REMARK                            x       y       z     vdW  Elec       q    Type
REMARK                         _______ _______ _______ _____ _____    ______ ____
ROOT
ATOM      1  C   UNL     1       8.260  -4.654  24.134  0.00  0.00    +0.091 C 
ATOM      2  C   UNL     1       7.751  -5.280  22.824  0.00  0.00    +0.026 C 
ENDROOT
BRANCH   1   3
ATOM      3  C   UNL     1       7.180  -4.758  25.208  0.00  0.00    -0.029 A 
ATOM      4  C   UNL     1       5.838  -4.390  24.962  0.00  0.00    +0.013 A 
ATOM      5  C   UNL     1       4.760  -4.770  25.798  0.00  0.00    -0.014 A 
ATOM      6  C   UNL     1       5.129  -5.491  26.948  0.00  0.00    +0.054 A 
ATOM      7  C   UNL     1       6.464  -5.674  27.326  0.00  0.00    +0.121 A 
ATOM      8  C   UNL     1       7.484  -5.349  26.438  0.00  0.00    +0.050 A 
BRANCH   5   9
ATOM      9  C   UNL     1       3.314  -4.413  25.495  0.00  0.00    -0.012 A 
ATOM     10  C   UNL     1       2.696  -3.231  26.021  0.00  0.00    -0.042 A 
ATOM     11  C   UNL     1       3.421  -2.142  26.777  0.00  0.00    +0.044 C 
ATOM     12  C   UNL     1       1.311  -2.996  25.860  0.00  0.00    +0.004 A 
ATOM     13  C   UNL     1       0.520  -3.828  25.092  0.00  0.00    +0.001 A 
ATOM     14  C   UNL     1       1.103  -4.922  24.481  0.00  0.00    +0.004 A 
ATOM     15  C   UNL     1       2.463  -5.252  24.692  0.00  0.00    -0.042 A 
ATOM     16  C   UNL     1       2.893  -6.506  23.965  0.00  0.00    +0.044 C 
ENDBRANCH   5   9
BRANCH   7  17
ATOM     17  O   UNL     1       6.850  -6.217  28.523  0.00  0.00    -0.495 OA
ATOM     18  C   UNL     1       5.845  -6.170  29.539  0.00  0.00    +0.277 C 
ENDBRANCH   7  17
ENDBRANCH   1   3
BRANCH   1  19
ATOM     19  C   UNL     1       8.766  -3.291  23.875  0.00  0.00    -0.089 C 
ATOM     20  C   UNL     1       9.071  -2.139  23.673  0.00  0.00    -0.060 C 
BRANCH  20  21
ATOM     21  C   UNL     1       9.426  -0.761  23.482  0.00  0.00    +0.085 A 
ATOM     22  C   UNL     1       9.552   0.144  24.531  0.00  0.00    +0.060 A 
ATOM     23  C   UNL     1       9.210  -0.217  25.948  0.00  0.00    +0.067 C 
ATOM     24  N   UNL     1       9.952   1.429  24.345  0.00  0.00    -0.219 NA
ATOM     25  C   UNL     1      10.198   1.816  23.093  0.00  0.00    +0.215 A 
ATOM     26  N   UNL     1      10.624   3.112  22.898  0.00  0.00    -0.327 N 
ATOM     27  H   UNL     1      11.044   3.475  23.740  0.00  0.00    +0.145 HD
ATOM     28  H   UNL     1      11.153   3.176  22.042  0.00  0.00    +0.145 HD
ATOM     29  N   UNL     1      10.094   1.030  22.020  0.00  0.00    -0.199 NA
ATOM     30  C   UNL     1       9.704  -0.241  22.226  0.00  0.00    +0.137 A 
BRANCH  30  31
ATOM     31  N   UNL     1       9.515  -0.989  21.060  0.00  0.00    -0.342 N 
ATOM     32  H   UNL     1       8.747  -1.632  21.216  0.00  0.00    +0.144 HD
ATOM     33  H   UNL     1       9.405  -0.413  20.234  0.00  0.00    +0.144 HD
ENDBRANCH  30  31
ENDBRANCH  20  21
ENDBRANCH   1  19
TORSDOF 6
ENDMDL
MODEL 3
REMARK VINA RESULT:      -7.0      2.031      3.370
REMARK  Name = 
REMARK  11 active torsions:
REMARK  status: ('A' for Active; 'I' for Inactive)
REMARK    1  A    between atoms: C_2  and  C_3
REMARK    2  A    between atoms: C_2  and  C_4
REMARK    3  A    between atoms: C_2  and  C_15
REMARK    4  A    between atoms: C_5  and  C_6
REMARK    5  A    between atoms: C_7  and  N_8
REMARK    6  A    between atoms: C_13  and  C_14
REMARK    7  A    between atoms: C_17  and  O_18
REMARK    8  A    between atoms: O_18  and  C_19
REMARK    9  A    between atoms: C_21  and  C_23
REMARK   10  A    between atoms: C_24  and  C_25
REMARK   11  A    between atoms: C_29  and  C_30
REMARK                            x       y       z     vdW  Elec       q    Type
REMARK                         _______ _______ _______ _____ _____    ______ ____
ROOT
ATOM      1  C   UNL     1       7.232  -5.253  23.018  0.00  0.00    +0.091 C 
ATOM      2  C   UNL     1       7.079  -5.641  21.537  0.00  0.00    +0.026 C 
ENDROOT
BRANCH   1   3
ATOM      3  C   UNL     1       5.870  -5.296  23.706  0.00  0.00    -0.029 A 
ATOM      4  C   UNL     1       5.702  -4.934  25.062  0.00  0.00    +0.013 A 
ATOM      5  C   UNL     1       4.442  -4.645  25.641  0.00  0.00    -0.014 A 
ATOM      6  C   UNL     1       3.343  -4.813  24.779  0.00  0.00    +0.054 A 
ATOM      7  C   UNL     1       3.464  -5.381  23.506  0.00  0.00    +0.121 A 
ATOM      8  C   UNL     1       4.725  -5.578  22.955  0.00  0.00    +0.050 A 
BRANCH   5   9
ATOM      9  C   UNL     1       4.280  -4.205  27.086  0.00  0.00    -0.012 A 
ATOM     10  C   UNL     1       4.150  -5.150  28.158  0.00  0.00    -0.042 A 
ATOM     11  C   UNL     1       4.321  -6.644  28.017  0.00  0.00    +0.044 C 
ATOM     12  C   UNL     1       3.842  -4.728  29.471  0.00  0.00    +0.004 A 
ATOM     13  C   UNL     1       3.771  -3.388  29.803  0.00  0.00    +0.001 A 
ATOM     14  C   UNL     1       3.994  -2.446  28.818  0.00  0.00    +0.004 A 
ATOM     15  C   UNL     1       4.210  -2.820  27.470  0.00  0.00    -0.042 A 
ATOM     16  C   UNL     1       4.394  -1.638  26.545  0.00  0.00    +0.044 C 
ENDBRANCH   5   9
BRANCH   7  17
ATOM     17  O   UNL     1       2.396  -5.716  22.716  0.00  0.00    -0.495 OA
ATOM     18  C   UNL     1       1.123  -5.402  23.287  0.00  0.00    +0.277 C 
ENDBRANCH   7  17
ENDBRANCH   1   3
BRANCH   1  19
ATOM     19  C   UNL     1       7.957  -3.970  23.127  0.00  0.00    -0.089 C 
ATOM     20  C   UNL     1       8.455  -2.879  23.271  0.00  0.00    -0.060 C 
BRANCH  20  21
ATOM     21  C   UNL     1       9.056  -1.594  23.491  0.00  0.00    +0.085 A 
ATOM     22  C   UNL     1       9.146  -1.001  24.747  0.00  0.00    +0.060 A 
ATOM     23  C   UNL     1       8.514  -1.608  25.967  0.00  0.00    +0.067 C 
ATOM     24  N   UNL     1       9.774   0.186  24.953  0.00  0.00    -0.219 NA
ATOM     25  C   UNL     1      10.288   0.797  23.886  0.00  0.00    +0.215 A 
ATOM     26  N   UNL     1      10.944   1.991  24.089  0.00  0.00    -0.327 N 
ATOM     27  H   UNL     1      11.268   2.058  25.042  0.00  0.00    +0.145 HD
ATOM     28  H   UNL     1      11.614   2.147  23.351  0.00  0.00    +0.145 HD
ATOM     29  N   UNL     1      10.242   0.319  22.640  0.00  0.00    -0.199 NA
ATOM     30  C   UNL     1       9.623  -0.861  22.459  0.00  0.00    +0.137 A 
BRANCH  30  31
ATOM     31  N   UNL     1       9.517  -1.264  21.124  0.00  0.00    -0.342 N 
ATOM     32  H   UNL     1       8.873  -0.638  20.653  0.00  0.00    +0.144 HD
ATOM     33  H   UNL     1      10.415  -1.347  20.664  0.00  0.00    +0.144 HD
ENDBRANCH  30  31
ENDBRANCH  20  21
ENDBRANCH   1  19
TORSDOF 6
ENDMDL
MODEL 4
REMARK VINA RESULT:      -7.0      4.595     10.098
REMARK  Name = 
REMARK  11 active torsions:
REMARK  status: ('A' for Active; 'I' for Inactive)
REMARK    1  A    between atoms: C_2  and  C_3
REMARK    2  A    between atoms: C_2  and  C_4
REMARK    3  A    between atoms: C_2  and  C_15
REMARK    4  A    between atoms: C_5  and  C_6
REMARK    5  A    between atoms: C_7  and  N_8
REMARK    6  A    between atoms: C_13  and  C_14
REMARK    7  A    between atoms: C_17  and  O_18
REMARK    8  A    between atoms: O_18  and  C_19
REMARK    9  A    between atoms: C_21  and  C_23
REMARK   10  A    between atoms: C_24  and  C_25
REMARK   11  A    between atoms: C_29  and  C_30
REMARK                            x       y       z     vdW  Elec       q    Type
REMARK                         _______ _______ _______ _____ _____    ______ ____
ROOT
ATOM      1  C   UNL     1       8.379   0.859  22.244  0.00  0.00    +0.091 C 
ATOM      2  C   UNL     1       9.822   0.863  21.708  0.00  0.00    +0.026 C 
ENDROOT
BRANCH   1   3
ATOM      3  C   UNL     1       8.029   2.240  22.791  0.00  0.00    -0.029 A 
ATOM      4  C   UNL     1       8.979   3.048  23.455  0.00  0.00    +0.013 A 
ATOM      5  C   UNL     1       8.800   4.435  23.682  0.00  0.00    -0.014 A 
ATOM      6  C   UNL     1       7.562   4.949  23.256  0.00  0.00    +0.054 A 
ATOM      7  C   UNL     1       6.523   4.129  22.800  0.00  0.00    +0.121 A 
ATOM      8  C   UNL     1       6.771   2.789  22.526  0.00  0.00    +0.050 A 
BRANCH   5   9
ATOM      9  C   UNL     1       9.853   5.304  24.350  0.00  0.00    -0.012 A 
ATOM     10  C   UNL     1       9.553   6.115  25.495  0.00  0.00    -0.042 A 
ATOM     11  C   UNL     1       8.250   6.082  26.259  0.00  0.00    +0.044 C 
ATOM     12  C   UNL     1      10.497   7.035  26.006  0.00  0.00    +0.004 A 
ATOM     13  C   UNL     1      11.782   7.107  25.505  0.00  0.00    +0.001 A 
ATOM     14  C   UNL     1      12.140   6.266  24.469  0.00  0.00    +0.004 A 
ATOM     15  C   UNL     1      11.202   5.398  23.861  0.00  0.00    -0.042 A 
ATOM     16  C   UNL     1      11.786   4.593  22.721  0.00  0.00    +0.044 C 
ENDBRANCH   5   9
BRANCH   7  17
ATOM     17  O   UNL     1       5.254   4.578  22.545  0.00  0.00    -0.495 OA
ATOM     18  C   UNL     1       4.979   5.882  23.062  0.00  0.00    +0.277 C 
ENDBRANCH   7  17
ENDBRANCH   1   3
BRANCH   1  19
ATOM     19  C   UNL     1       8.199  -0.262  23.189  0.00  0.00    -0.089 C 
ATOM     20  C   UNL     1       8.099  -1.247  23.880  0.00  0.00    -0.060 C 
BRANCH  20  21
ATOM     21  C   UNL     1       8.032  -2.416  24.713  0.00  0.00    +0.085 A 
ATOM     22  C   UNL     1       7.662  -3.670  24.235  0.00  0.00    +0.060 A 
ATOM     23  C   UNL     1       7.188  -3.883  22.826  0.00  0.00    +0.067 C 
ATOM     24  N   UNL     1       7.664  -4.780  25.017  0.00  0.00    -0.219 NA
ATOM     25  C   UNL     1       8.009  -4.625  26.295  0.00  0.00    +0.215 A 
ATOM     26  N   UNL     1       8.033  -5.751  27.090  0.00  0.00    -0.327 N 
ATOM     27  H   UNL     1       8.148  -6.579  26.525  0.00  0.00    +0.145 HD
ATOM     28  H   UNL     1       8.668  -5.615  27.862  0.00  0.00    +0.145 HD
ATOM     29  N   UNL     1       8.366  -3.466  26.852  0.00  0.00    -0.199 NA
ATOM     30  C   UNL     1       8.365  -2.380  26.059  0.00  0.00    +0.137 A 
BRANCH  30  31
ATOM     31  N   UNL     1       8.648  -1.179  26.716  0.00  0.00    -0.342 N 
ATOM     32  H   UNL     1       9.470  -0.767  26.286  0.00  0.00    +0.144 HD
ATOM     33  H   UNL     1       7.853  -0.553  26.758  0.00  0.00    +0.144 HD
ENDBRANCH  30  31
ENDBRANCH  20  21
ENDBRANCH   1  19
TORSDOF 6
ENDMDL
MODEL 5
REMARK VINA RESULT:      -7.0      4.361      8.348
REMARK  Name = 
REMARK  11 active torsions:
REMARK  status: ('A' for Active; 'I' for Inactive)
REMARK    1  A    between atoms: C_2  and  C_3
REMARK    2  A    between atoms: C_2  and  C_4
REMARK    3  A    between atoms: C_2  and  C_15
REMARK    4  A    between atoms: C_5  and  C_6
REMARK    5  A    between atoms: C_7  and  N_8
REMARK    6  A    between atoms: C_13  and  C_14
REMARK    7  A    between atoms: C_17  and  O_18
REMARK    8  A    between atoms: O_18  and  C_19
REMARK    9  A    between atoms: C_21  and  C_23
REMARK   10  A    between atoms: C_24  and  C_25
REMARK   11  A    between atoms: C_29  and  C_30
REMARK                            x       y       z     vdW  Elec       q    Type
REMARK                         _______ _______ _______ _____ _____    ______ ____
ROOT
ATOM      1  C   UNL     1       5.720  -3.090  22.629  0.00  0.00    +0.091 C 
ATOM      2  C   UNL     1       5.914  -3.986  21.393  0.00  0.00    +0.026 C 
ENDROOT
BRANCH   1   3
ATOM      3  C   UNL     1       7.062  -2.502  23.056  0.00  0.00    -0.029 A 
ATOM      4  C   UNL     1       7.267  -1.108  23.177  0.00  0.00    +0.013 A 
ATOM      5  C   UNL     1       8.363  -0.539  23.872  0.00  0.00    -0.014 A 
ATOM      6  C   UNL     1       9.286  -1.469  24.382  0.00  0.00    +0.054 A 
ATOM      7  C   UNL     1       9.222  -2.835  24.085  0.00  0.00    +0.121 A 
ATOM      8  C   UNL     1       8.091  -3.355  23.465  0.00  0.00    +0.050 A 
BRANCH   5   9
ATOM      9  C   UNL     1       8.544   0.960  24.040  0.00  0.00    -0.012 A 
ATOM     10  C   UNL     1       9.328   1.738  23.124  0.00  0.00    -0.042 A 
ATOM     11  C   UNL     1       9.911   1.220  21.831  0.00  0.00    +0.044 C 
ATOM     12  C   UNL     1       9.617   3.098  23.382  0.00  0.00    +0.004 A 
ATOM     13  C   UNL     1       9.061   3.765  24.457  0.00  0.00    +0.001 A 
ATOM     14  C   UNL     1       8.216   3.074  25.304  0.00  0.00    +0.004 A 
ATOM     15  C   UNL     1       7.974   1.689  25.142  0.00  0.00    -0.042 A 
ATOM     16  C   UNL     1       7.052   1.116  26.195  0.00  0.00    +0.044 C 
ENDBRANCH   5   9
BRANCH   7  17
ATOM     17  O   UNL     1      10.199  -3.735  24.422  0.00  0.00    -0.495 OA
ATOM     18  C   UNL     1       9.733  -4.846  25.191  0.00  0.00    +0.277 C 
ENDBRANCH   7  17
ENDBRANCH   1   3
BRANCH   1  19
ATOM     19  C   UNL     1       4.991  -3.833  23.677  0.00  0.00    -0.089 C 
ATOM     20  C   UNL     1       4.492  -4.504  24.548  0.00  0.00    -0.060 C 
BRANCH  20  21
ATOM     21  C   UNL     1       3.926  -5.277  25.619  0.00  0.00    +0.085 A 
ATOM     22  C   UNL     1       2.562  -5.308  25.895  0.00  0.00    +0.060 A 
ATOM     23  C   UNL     1       1.576  -4.441  25.167  0.00  0.00    +0.067 C 
ATOM     24  N   UNL     1       2.032  -6.092  26.869  0.00  0.00    -0.219 NA
ATOM     25  C   UNL     1       2.878  -6.827  27.590  0.00  0.00    +0.215 A 
ATOM     26  N   UNL     1       2.346  -7.641  28.566  0.00  0.00    -0.327 N 
ATOM     27  H   UNL     1       1.380  -7.851  28.361  0.00  0.00    +0.145 HD
ATOM     28  H   UNL     1       2.968  -8.412  28.750  0.00  0.00    +0.145 HD
ATOM     29  N   UNL     1       4.201  -6.856  27.413  0.00  0.00    -0.199 NA
ATOM     30  C   UNL     1       4.706  -6.079  26.439  0.00  0.00    +0.137 A 
BRANCH  30  31
ATOM     31  N   UNL     1       6.102  -6.072  26.364  0.00  0.00    -0.342 N 
ATOM     32  H   UNL     1       6.384  -5.319  25.745  0.00  0.00    +0.144 HD
ATOM     33  H   UNL     1       6.547  -6.041  27.273  0.00  0.00    +0.144 HD
ENDBRANCH  30  31
ENDBRANCH  20  21
ENDBRANCH   1  19
TORSDOF 6
ENDMDL
MODEL 6
REMARK VINA RESULT:      -6.9      4.711      9.449
REMARK  Name = 
REMARK  11 active torsions:
REMARK  status: ('A' for Active; 'I' for Inactive)
REMARK    1  A    between atoms: C_2  and  C_3
REMARK    2  A    between atoms: C_2  and  C_4
REMARK    3  A    between atoms: C_2  and  C_15
REMARK    4  A    between atoms: C_5  and  C_6
REMARK    5  A    between atoms: C_7  and  N_8
REMARK    6  A    between atoms: C_13  and  C_14
REMARK    7  A    between atoms: C_17  and  O_18
REMARK    8  A    between atoms: O_18  and  C_19
REMARK    9  A    between atoms: C_21  and  C_23
REMARK   10  A    between atoms: C_24  and  C_25
REMARK   11  A    between atoms: C_29  and  C_30
REMARK                            x       y       z     vdW  Elec       q    Type
REMARK                         _______ _______ _______ _____ _____    ______ ____
ROOT
ATOM      1  C   UNL     1       6.168   1.233  26.257  0.00  0.00    +0.091 C 
ATOM      2  C   UNL     1       4.659   0.940  26.321  0.00  0.00    +0.026 C 
ENDROOT
BRANCH   1   3
ATOM      3  C   UNL     1       6.439   2.322  25.223  0.00  0.00    -0.029 A 
ATOM      4  C   UNL     1       7.704   2.940  25.097  0.00  0.00    +0.013 A 
ATOM      5  C   UNL     1       8.092   3.698  23.965  0.00  0.00    -0.014 A 
ATOM      6  C   UNL     1       7.092   3.856  22.988  0.00  0.00    +0.054 A 
ATOM      7  C   UNL     1       5.770   3.444  23.191  0.00  0.00    +0.121 A 
ATOM      8  C   UNL     1       5.456   2.640  24.281  0.00  0.00    +0.050 A 
BRANCH   5   9
ATOM      9  C   UNL     1       9.473   4.314  23.818  0.00  0.00    -0.012 A 
ATOM     10  C   UNL     1      10.583   3.573  23.292  0.00  0.00    -0.042 A 
ATOM     11  C   UNL     1      10.489   2.194  22.682  0.00  0.00    +0.044 C 
ATOM     12  C   UNL     1      11.892   4.107  23.309  0.00  0.00    +0.004 A 
ATOM     13  C   UNL     1      12.140   5.403  23.719  0.00  0.00    +0.001 A 
ATOM     14  C   UNL     1      11.079   6.183  24.134  0.00  0.00    +0.004 A 
ATOM     15  C   UNL     1       9.766   5.662  24.226  0.00  0.00    -0.042 A 
ATOM     16  C   UNL     1       8.759   6.667  24.738  0.00  0.00    +0.044 C 
ENDBRANCH   5   9
BRANCH   7  17
ATOM     17  O   UNL     1       4.740   3.738  22.335  0.00  0.00    -0.495 OA
ATOM     18  C   UNL     1       3.448   3.372  22.826  0.00  0.00    +0.277 C 
ENDBRANCH   7  17
ENDBRANCH   1   3
BRANCH   1  19
ATOM     19  C   UNL     1       6.915  -0.027  26.062  0.00  0.00    -0.089 C 
ATOM     20  C   UNL     1       7.426  -1.112  25.924  0.00  0.00    -0.060 C 
BRANCH  20  21
ATOM     21  C   UNL     1       8.011  -2.407  25.715  0.00  0.00    +0.085 A 
ATOM     22  C   UNL     1       9.064  -2.633  24.833  0.00  0.00    +0.060 A 
ATOM     23  C   UNL     1       9.601  -1.557  23.934  0.00  0.00    +0.067 C 
ATOM     24  N   UNL     1       9.651  -3.850  24.691  0.00  0.00    -0.219 NA
ATOM     25  C   UNL     1       9.159  -4.853  25.417  0.00  0.00    +0.215 A 
ATOM     26  N   UNL     1       9.763  -6.085  25.295  0.00  0.00    -0.327 N 
ATOM     27  H   UNL     1      10.710  -5.982  24.963  0.00  0.00    +0.145 HD
ATOM     28  H   UNL     1       9.612  -6.629  26.131  0.00  0.00    +0.145 HD
ATOM     29  N   UNL     1       8.146  -4.743  26.279  0.00  0.00    -0.199 NA
ATOM     30  C   UNL     1       7.583  -3.528  26.411  0.00  0.00    +0.137 A 
BRANCH  30  31
ATOM     31  N   UNL     1       6.465  -3.493  27.249  0.00  0.00    -0.342 N 
ATOM     32  H   UNL     1       5.665  -3.838  26.729  0.00  0.00    +0.144 HD
ATOM     33  H   UNL     1       6.615  -3.969  28.130  0.00  0.00    +0.144 HD
ENDBRANCH  30  31
ENDBRANCH  20  21
ENDBRANCH   1  19
TORSDOF 6
ENDMDL
MODEL 7
REMARK VINA RESULT:      -6.9      2.058      3.651
REMARK  Name = 
REMARK  11 active torsions:
REMARK  status: ('A' for Active; 'I' for Inactive)
REMARK    1  A    between atoms: C_2  and  C_3
REMARK    2  A    between atoms: C_2  and  C_4
REMARK    3  A    between atoms: C_2  and  C_15
REMARK    4  A    between atoms: C_5  and  C_6
REMARK    5  A    between atoms: C_7  and  N_8
REMARK    6  A    between atoms: C_13  and  C_14
REMARK    7  A    between atoms: C_17  and  O_18
REMARK    8  A    between atoms: O_18  and  C_19
REMARK    9  A    between atoms: C_21  and  C_23
REMARK   10  A    between atoms: C_24  and  C_25
REMARK   11  A    between atoms: C_29  and  C_30
REMARK                            x       y       z     vdW  Elec       q    Type
REMARK                         _______ _______ _______ _____ _____    ______ ____
ROOT
ATOM      1  C   UNL     1       7.214  -5.248  23.084  0.00  0.00    +0.091 C 
ATOM      2  C   UNL     1       7.132  -5.722  21.623  0.00  0.00    +0.026 C 
ENDROOT
BRANCH   1   3
ATOM      3  C   UNL     1       5.830  -5.306  23.724  0.00  0.00    -0.029 A 
ATOM      4  C   UNL     1       5.606  -4.925  25.067  0.00  0.00    +0.013 A 
ATOM      5  C   UNL     1       4.321  -4.650  25.595  0.00  0.00    -0.014 A 
ATOM      6  C   UNL     1       3.257  -4.853  24.698  0.00  0.00    +0.054 A 
ATOM      7  C   UNL     1       3.434  -5.440  23.439  0.00  0.00    +0.121 A 
ATOM      8  C   UNL     1       4.718  -5.622  22.937  0.00  0.00    +0.050 A 
BRANCH   5   9
ATOM      9  C   UNL     1       4.098  -4.190  27.026  0.00  0.00    -0.012 A 
ATOM     10  C   UNL     1       4.143  -2.805  27.394  0.00  0.00    -0.042 A 
ATOM     11  C   UNL     1       4.244  -1.655  26.419  0.00  0.00    +0.044 C 
ATOM     12  C   UNL     1       4.092  -2.407  28.750  0.00  0.00    +0.004 A 
ATOM     13  C   UNL     1       3.877  -3.320  29.765  0.00  0.00    +0.001 A 
ATOM     14  C   UNL     1       3.724  -4.653  29.438  0.00  0.00    +0.004 A 
ATOM     15  C   UNL     1       3.863  -5.112  28.106  0.00  0.00    -0.042 A 
ATOM     16  C   UNL     1       3.697  -6.609  27.969  0.00  0.00    +0.044 C 
ENDBRANCH   5   9
BRANCH   7  17
ATOM     17  O   UNL     1       2.401  -5.809  22.617  0.00  0.00    -0.495 OA
ATOM     18  C   UNL     1       1.104  -5.515  23.140  0.00  0.00    +0.277 C 
ENDBRANCH   7  17
ENDBRANCH   1   3
BRANCH   1  19
ATOM     19  C   UNL     1       7.887  -3.935  23.148  0.00  0.00    -0.089 C 
ATOM     20  C   UNL     1       8.375  -2.840  23.297  0.00  0.00    -0.060 C 
BRANCH  20  21
ATOM     21  C   UNL     1       8.983  -1.557  23.511  0.00  0.00    +0.085 A 
ATOM     22  C   UNL     1       9.022  -0.932  24.754  0.00  0.00    +0.060 A 
ATOM     23  C   UNL     1       8.326  -1.497  25.958  0.00  0.00    +0.067 C 
ATOM     24  N   UNL     1       9.656   0.252  24.957  0.00  0.00    -0.219 NA
ATOM     25  C   UNL     1      10.228   0.828  23.900  0.00  0.00    +0.215 A 
ATOM     26  N   UNL     1      10.891   2.019  24.102  0.00  0.00    -0.327 N 
ATOM     27  H   UNL     1      11.171   2.107  25.067  0.00  0.00    +0.145 HD
ATOM     28  H   UNL     1      11.597   2.146  23.393  0.00  0.00    +0.145 HD
ATOM     29  N   UNL     1      10.234   0.318  22.666  0.00  0.00    -0.199 NA
ATOM     30  C   UNL     1       9.608  -0.859  22.487  0.00  0.00    +0.137 A 
BRANCH  30  31
ATOM     31  N   UNL     1       9.558  -1.297  21.160  0.00  0.00    -0.342 N 
ATOM     32  H   UNL     1       8.998  -2.141  21.124  0.00  0.00    +0.144 HD
ATOM     33  H   UNL     1       9.252  -0.576  20.518  0.00  0.00    +0.144 HD
ENDBRANCH  30  31
ENDBRANCH  20  21
ENDBRANCH   1  19
TORSDOF 6
ENDMDL
MODEL 8
REMARK VINA RESULT:      -6.8      4.651      8.874
REMARK  Name = 
REMARK  11 active torsions:
REMARK  status: ('A' for Active; 'I' for Inactive)
REMARK    1  A    between atoms: C_2  and  C_3
REMARK    2  A    between atoms: C_2  and  C_4
REMARK    3  A    between atoms: C_2  and  C_15
REMARK    4  A    between atoms: C_5  and  C_6
REMARK    5  A    between atoms: C_7  and  N_8
REMARK    6  A    between atoms: C_13  and  C_14
REMARK    7  A    between atoms: C_17  and  O_18
REMARK    8  A    between atoms: O_18  and  C_19
REMARK    9  A    between atoms: C_21  and  C_23
REMARK   10  A    between atoms: C_24  and  C_25
REMARK   11  A    between atoms: C_29  and  C_30
REMARK                            x       y       z     vdW  Elec       q    Type
REMARK                         _______ _______ _______ _____ _____    ______ ____
ROOT
ATOM      1  C   UNL     1       8.409   0.291  22.122  0.00  0.00    +0.091 C 
ATOM      2  C   UNL     1       9.457  -0.147  21.083  0.00  0.00    +0.026 C 
ENDROOT
BRANCH   1   3
ATOM      3  C   UNL     1       8.747   1.686  22.639  0.00  0.00    -0.029 A 
ATOM      4  C   UNL     1       7.760   2.552  23.164  0.00  0.00    +0.013 A 
ATOM      5  C   UNL     1       8.062   3.696  23.943  0.00  0.00    -0.014 A 
ATOM      6  C   UNL     1       9.434   3.957  24.103  0.00  0.00    +0.054 A 
ATOM      7  C   UNL     1      10.422   3.246  23.412  0.00  0.00    +0.121 A 
ATOM      8  C   UNL     1      10.083   2.088  22.721  0.00  0.00    +0.050 A 
BRANCH   5   9
ATOM      9  C   UNL     1       6.990   4.590  24.546  0.00  0.00    -0.012 A 
ATOM     10  C   UNL     1       6.490   4.386  25.874  0.00  0.00    -0.042 A 
ATOM     11  C   UNL     1       7.060   3.402  26.870  0.00  0.00    +0.044 C 
ATOM     12  C   UNL     1       5.386   5.123  26.361  0.00  0.00    +0.004 A 
ATOM     13  C   UNL     1       4.821   6.148  25.628  0.00  0.00    +0.001 A 
ATOM     14  C   UNL     1       5.345   6.444  24.384  0.00  0.00    +0.004 A 
ATOM     15  C   UNL     1       6.386   5.672  23.815  0.00  0.00    -0.042 A 
ATOM     16  C   UNL     1       6.787   6.136  22.433  0.00  0.00    +0.044 C 
ENDBRANCH   5   9
BRANCH   7  17
ATOM     17  O   UNL     1      11.749   3.587  23.413  0.00  0.00    -0.495 OA
ATOM     18  C   UNL     1      11.991   4.996  23.409  0.00  0.00    +0.277 C 
ENDBRANCH   7  17
ENDBRANCH   1   3
BRANCH   1  19
ATOM     19  C   UNL     1       8.265  -0.752  23.158  0.00  0.00    -0.089 C 
ATOM     20  C   UNL     1       8.116  -1.677  23.920  0.00  0.00    -0.060 C 
BRANCH  20  21
ATOM     21  C   UNL     1       7.983  -2.797  24.810  0.00  0.00    +0.085 A 
ATOM     22  C   UNL     1       7.603  -4.066  24.383  0.00  0.00    +0.060 A 
ATOM     23  C   UNL     1       7.184  -4.345  22.969  0.00  0.00    +0.067 C 
ATOM     24  N   UNL     1       7.542  -5.132  25.223  0.00  0.00    -0.219 NA
ATOM     25  C   UNL     1       7.837  -4.916  26.505  0.00  0.00    +0.215 A 
ATOM     26  N   UNL     1       7.798  -5.997  27.359  0.00  0.00    -0.327 N 
ATOM     27  H   UNL     1       7.916  -6.857  26.844  0.00  0.00    +0.145 HD
ATOM     28  H   UNL     1       8.402  -5.834  28.150  0.00  0.00    +0.145 HD
ATOM     29  N   UNL     1       8.198  -3.737  27.015  0.00  0.00    -0.199 NA
ATOM     30  C   UNL     1       8.259  -2.696  26.166  0.00  0.00    +0.137 A 
BRANCH  30  31
ATOM     31  N   UNL     1       8.545  -1.468  26.770  0.00  0.00    -0.342 N 
ATOM     32  H   UNL     1       7.702  -0.902  26.755  0.00  0.00    +0.144 HD
ATOM     33  H   UNL     1       8.955  -1.566  27.690  0.00  0.00    +0.144 HD
ENDBRANCH  30  31
ENDBRANCH  20  21
ENDBRANCH   1  19
TORSDOF 6
ENDMDL
MODEL 9
REMARK VINA RESULT:      -6.8      4.588      9.224
REMARK  Name = 
REMARK  11 active torsions:
REMARK  status: ('A' for Active; 'I' for Inactive)
REMARK    1  A    between atoms: C_2  and  C_3
REMARK    2  A    between atoms: C_2  and  C_4
REMARK    3  A    between atoms: C_2  and  C_15
REMARK    4  A    between atoms: C_5  and  C_6
REMARK    5  A    between atoms: C_7  and  N_8
REMARK    6  A    between atoms: C_13  and  C_14
REMARK    7  A    between atoms: C_17  and  O_18
REMARK    8  A    between atoms: O_18  and  C_19
REMARK    9  A    between atoms: C_21  and  C_23
REMARK   10  A    between atoms: C_24  and  C_25
REMARK   11  A    between atoms: C_29  and  C_30
REMARK                            x       y       z     vdW  Elec       q    Type
REMARK                         _______ _______ _______ _____ _____    ______ ____
ROOT
ATOM      1  C   UNL     1       8.119   0.202  26.457  0.00  0.00    +0.091 C 
ATOM      2  C   UNL     1       7.186   1.130  27.254  0.00  0.00    +0.026 C 
ENDROOT
BRANCH   1   3
ATOM      3  C   UNL     1       8.308   0.749  25.044  0.00  0.00    -0.029 A 
ATOM      4  C   UNL     1       7.984   2.083  24.706  0.00  0.00    +0.013 A 
ATOM      5  C   UNL     1       8.440   2.720  23.526  0.00  0.00    -0.014 A 
ATOM      6  C   UNL     1       9.190   1.901  22.663  0.00  0.00    +0.054 A 
ATOM      7  C   UNL     1       9.334   0.524  22.869  0.00  0.00    +0.121 A 
ATOM      8  C   UNL     1       8.936  -0.040  24.076  0.00  0.00    +0.050 A 
BRANCH   5   9
ATOM      9  C   UNL     1       8.129   4.171  23.199  0.00  0.00    -0.012 A 
ATOM     10  C   UNL     1       9.071   5.224  23.446  0.00  0.00    -0.042 A 
ATOM     11  C   UNL     1      10.500   5.018  23.889  0.00  0.00    +0.044 C 
ATOM     12  C   UNL     1       8.708   6.581  23.286  0.00  0.00    +0.004 A 
ATOM     13  C   UNL     1       7.479   6.947  22.771  0.00  0.00    +0.001 A 
ATOM     14  C   UNL     1       6.583   5.955  22.422  0.00  0.00    +0.004 A 
ATOM     15  C   UNL     1       6.863   4.587  22.655  0.00  0.00    -0.042 A 
ATOM     16  C   UNL     1       5.737   3.667  22.238  0.00  0.00    +0.044 C 
ENDBRANCH   5   9
BRANCH   7  17
ATOM     17  O   UNL     1       9.909  -0.327  21.961  0.00  0.00    -0.495 OA
ATOM     18  C   UNL     1      10.359  -1.563  22.519  0.00  0.00    +0.277 C 
ENDBRANCH   7  17
ENDBRANCH   1   3
BRANCH   1  19
ATOM     19  C   UNL     1       7.631  -1.190  26.537  0.00  0.00    -0.089 C 
ATOM     20  C   UNL     1       7.221  -2.312  26.718  0.00  0.00    -0.060 C 
BRANCH  20  21
ATOM     21  C   UNL     1       6.688  -3.627  26.939  0.00  0.00    +0.085 A 
ATOM     22  C   UNL     1       7.459  -4.783  26.866  0.00  0.00    +0.060 A 
ATOM     23  C   UNL     1       8.897  -4.762  26.433  0.00  0.00    +0.067 C 
ATOM     24  N   UNL     1       6.958  -6.015  27.141  0.00  0.00    -0.219 NA
ATOM     25  C   UNL     1       5.666  -6.091  27.460  0.00  0.00    +0.215 A 
ATOM     26  N   UNL     1       5.155  -7.335  27.760  0.00  0.00    -0.327 N 
ATOM     27  H   UNL     1       5.892  -7.956  28.057  0.00  0.00    +0.145 HD
ATOM     28  H   UNL     1       4.347  -7.242  28.357  0.00  0.00    +0.145 HD
ATOM     29  N   UNL     1       4.840  -5.046  27.543  0.00  0.00    -0.199 NA
ATOM     30  C   UNL     1       5.358  -3.833  27.276  0.00  0.00    +0.137 A 
BRANCH  30  31
ATOM     31  N   UNL     1       4.428  -2.789  27.280  0.00  0.00    -0.342 N 
ATOM     32  H   UNL     1       3.538  -3.156  27.601  0.00  0.00    +0.144 HD
ATOM     33  H   UNL     1       4.746  -1.979  27.797  0.00  0.00    +0.144 HD
ENDBRANCH  30  31
ENDBRANCH  20  21
ENDBRANCH   1  19
TORSDOF 6
ENDMDL
