MODEL 1
REMARK VINA RESULT:      -5.8      0.000      0.000
REMARK  Name = 
REMARK  14 active torsions:
REMARK  status: ('A' for Active; 'I' for Inactive)
REMARK    1  A    between atoms: C_1  and  C_2
REMARK    2  A    between atoms: C_2  and  O_3
REMARK    3  A    between atoms: O_3  and  C_4
REMARK    4  A    between atoms: C_4  and  C_6
REMARK    5  A    between atoms: C_7  and  C_8
REMARK    6  A    between atoms: C_8  and  O_9
REMARK    7  A    between atoms: O_9  and  C_10
REMARK    8  A    between atoms: C_10  and  C_11
REMARK    9  A    between atoms: C_11  and  N_12
REMARK   10  A    between atoms: C_14  and  C_15
REMARK   11  A    between atoms: C_16  and  C_26
REMARK   12  A    between atoms: C_17  and  C_19
REMARK   13  A    between atoms: C_26  and  O_28
REMARK   14  A    between atoms: O_28  and  C_29
REMARK                            x       y       z     vdW  Elec       q    Type
REMARK                         _______ _______ _______ _____ _____    ______ ____
ROOT
ATOM      1  C   UNL     1       7.717  -3.176  24.345  0.00  0.00    +0.068 C 
ATOM      2  C   UNL     1       6.307  -3.098  24.957  0.00  0.00    +0.097 C 
ATOM      3  C   UNL     1       6.021  -1.751  25.657  0.00  0.00    +0.065 C 
ATOM      4  C   UNL     1       6.924  -0.741  25.599  0.00  0.00    +0.016 C 
ATOM      5  C   UNL     1       6.769   0.601  26.272  0.00  0.00    +0.061 C 
ATOM      6  N   UNL     1       8.094  -0.901  24.892  0.00  0.00    -0.319 N 
ATOM      7  H   UNL     1       8.754  -0.127  24.903  0.00  0.00    +0.152 HD
ATOM      8  C   UNL     1       8.527  -2.085  24.318  0.00  0.00    +0.045 C 
ENDROOT
BRANCH   2   9
ATOM      9  C   UNL     1       5.960  -4.315  25.829  0.00  0.00    -0.017 A 
ATOM     10  C   UNL     1       4.962  -5.253  25.523  0.00  0.00    +0.045 A 
ATOM     11 CL   UNL     1       3.935  -5.101  24.146  0.00  0.00    -0.083 Cl
ATOM     12  C   UNL     1       4.754  -6.363  26.353  0.00  0.00    +0.020 A 
ATOM     13  C   UNL     1       5.518  -6.543  27.507  0.00  0.00    +0.001 A 
ATOM     14  C   UNL     1       6.486  -5.606  27.846  0.00  0.00    +0.000 A 
ATOM     15  C   UNL     1       6.705  -4.507  27.016  0.00  0.00    +0.006 A 
ENDBRANCH   2   9
BRANCH   1  16
ATOM     16  C   UNL     1       8.152  -4.489  23.791  0.00  0.00    +0.338 C 
ATOM     17  O   UNL     1       9.011  -5.209  24.277  0.00  0.00    -0.245 OA
BRANCH  16  18
ATOM     18  O   UNL     1       7.584  -4.646  22.577  0.00  0.00    -0.462 OA
BRANCH  18  20
ATOM     19  C   UNL     1       6.182  -5.688  21.021  0.00  0.00    +0.048 C 
ATOM     20  C   UNL     1       7.162  -5.941  22.148  0.00  0.00    +0.229 C 
ENDBRANCH  18  20
ENDBRANCH  16  18
ENDBRANCH   1  16
BRANCH   3  21
ATOM     21  C   UNL     1       4.768  -1.563  26.443  0.00  0.00    +0.337 C 
ATOM     22  O   UNL     1       3.662  -1.383  25.952  0.00  0.00    -0.245 OA
BRANCH  21  23
ATOM     23  O   UNL     1       5.006  -1.624  27.776  0.00  0.00    -0.465 OA
ATOM     24  C   UNL     1       4.040  -2.402  28.488  0.00  0.00    +0.280 C 
ENDBRANCH  21  23
ENDBRANCH   3  21
BRANCH   8  25
ATOM     25  C   UNL     1       9.881  -2.007  23.616  0.00  0.00    +0.211 C 
BRANCH  25  26
ATOM     26  O   UNL     1      10.190  -0.680  23.178  0.00  0.00    -0.373 OA
BRANCH  26  27
ATOM     27  C   UNL     1       9.853  -0.468  21.803  0.00  0.00    +0.175 C 
BRANCH  27  28
ATOM     28  C   UNL     1       9.071   0.840  21.660  0.00  0.00    +0.106 C 
BRANCH  28  29
ATOM     29  N   UNL     1       9.963   2.000  21.605  0.00  0.00    -0.328 NA
ATOM     30  H   UNL     1       9.413   2.850  21.506  0.00  0.00    +0.118 HD
ATOM     31  H   UNL     1      10.446   2.071  22.505  0.00  0.00    +0.118 HD
ENDBRANCH  28  29
ENDBRANCH  27  28
ENDBRANCH  26  27
ENDBRANCH  25  26
ENDBRANCH   8  25
TORSDOF 11
ENDMDL
MODEL 2
REMARK VINA RESULT:      -5.8      2.214      3.837
REMARK  Name = 
REMARK  14 active torsions:
REMARK  status: ('A' for Active; 'I' for Inactive)
REMARK    1  A    between atoms: C_1  and  C_2
REMARK    2  A    between atoms: C_2  and  O_3
REMARK    3  A    between atoms: O_3  and  C_4
REMARK    4  A    between atoms: C_4  and  C_6
REMARK    5  A    between atoms: C_7  and  C_8
REMARK    6  A    between atoms: C_8  and  O_9
REMARK    7  A    between atoms: O_9  and  C_10
REMARK    8  A    between atoms: C_10  and  C_11
REMARK    9  A    between atoms: C_11  and  N_12
REMARK   10  A    between atoms: C_14  and  C_15
REMARK   11  A    between atoms: C_16  and  C_26
REMARK   12  A    between atoms: C_17  and  C_19
REMARK   13  A    between atoms: C_26  and  O_28
REMARK   14  A    between atoms: O_28  and  C_29
REMARK                            x       y       z     vdW  Elec       q    Type
REMARK                         _______ _______ _______ _____ _____    ______ ____
ROOT
ATOM      1  C   UNL     1       8.357  -1.543  23.749  0.00  0.00    +0.068 C 
ATOM      2  C   UNL     1       6.987  -2.239  23.677  0.00  0.00    +0.097 C 
ATOM      3  C   UNL     1       6.214  -2.203  25.014  0.00  0.00    +0.065 C 
ATOM      4  C   UNL     1       6.704  -1.510  26.072  0.00  0.00    +0.016 C 
ATOM      5  C   UNL     1       6.057  -1.433  27.433  0.00  0.00    +0.061 C 
ATOM      6  N   UNL     1       7.884  -0.811  25.952  0.00  0.00    -0.319 N 
ATOM      7  H   UNL     1       8.227  -0.332  26.782  0.00  0.00    +0.152 HD
ATOM      8  C   UNL     1       8.730  -0.851  24.856  0.00  0.00    +0.045 C 
ENDROOT
BRANCH   2   9
ATOM      9  C   UNL     1       7.055  -3.645  23.059  0.00  0.00    -0.017 A 
ATOM     10  C   UNL     1       7.806  -4.708  23.583  0.00  0.00    +0.045 A 
ATOM     11 CL   UNL     1       8.825  -4.534  24.964  0.00  0.00    -0.083 Cl
ATOM     12  C   UNL     1       7.763  -5.972  22.979  0.00  0.00    +0.020 A 
ATOM     13  C   UNL     1       6.991  -6.189  21.836  0.00  0.00    +0.001 A 
ATOM     14  C   UNL     1       6.269  -5.140  21.282  0.00  0.00    +0.000 A 
ATOM     15  C   UNL     1       6.300  -3.884  21.887  0.00  0.00    +0.006 A 
ENDBRANCH   2   9
BRANCH   1  16
ATOM     16  C   UNL     1       9.251  -1.664  22.562  0.00  0.00    +0.338 C 
ATOM     17  O   UNL     1      10.331  -2.236  22.549  0.00  0.00    -0.245 OA
BRANCH  16  18
ATOM     18  O   UNL     1       8.761  -0.878  21.580  0.00  0.00    -0.462 OA
BRANCH  18  20
ATOM     19  C   UNL     1       8.203   1.390  21.459  0.00  0.00    +0.048 C 
ATOM     20  C   UNL     1       9.344   0.401  21.332  0.00  0.00    +0.229 C 
ENDBRANCH  18  20
ENDBRANCH  16  18
ENDBRANCH   1  16
BRANCH   3  21
ATOM     21  C   UNL     1       4.944  -2.967  25.170  0.00  0.00    +0.337 C 
ATOM     22  O   UNL     1       3.838  -2.547  24.857  0.00  0.00    -0.245 OA
BRANCH  21  23
ATOM     23  O   UNL     1       5.167  -4.196  25.697  0.00  0.00    -0.465 OA
ATOM     24  C   UNL     1       4.396  -5.227  25.074  0.00  0.00    +0.280 C 
ENDBRANCH  21  23
ENDBRANCH   3  21
BRANCH   8  25
ATOM     25  C   UNL     1       9.998  -0.008  24.987  0.00  0.00    +0.211 C 
BRANCH  25  26
ATOM     26  O   UNL     1       9.759   1.377  24.722  0.00  0.00    -0.373 OA
BRANCH  26  27
ATOM     27  C   UNL     1      10.850   1.995  24.031  0.00  0.00    +0.175 C 
BRANCH  27  28
ATOM     28  C   UNL     1      10.449   3.403  23.584  0.00  0.00    +0.106 C 
BRANCH  28  29
ATOM     29  N   UNL     1      11.579   4.127  22.998  0.00  0.00    -0.328 NA
ATOM     30  H   UNL     1      11.748   3.789  22.054  0.00  0.00    +0.118 HD
ATOM     31  H   UNL     1      11.313   5.112  22.910  0.00  0.00    +0.118 HD
ENDBRANCH  28  29
ENDBRANCH  27  28
ENDBRANCH  26  27
ENDBRANCH  25  26
ENDBRANCH   8  25
TORSDOF 11
ENDMDL
MODEL 3
REMARK VINA RESULT:      -5.8      2.616      6.033
REMARK  Name = 
REMARK  14 active torsions:
REMARK  status: ('A' for Active; 'I' for Inactive)
REMARK    1  A    between atoms: C_1  and  C_2
REMARK    2  A    between atoms: C_2  and  O_3
REMARK    3  A    between atoms: O_3  and  C_4
REMARK    4  A    between atoms: C_4  and  C_6
REMARK    5  A    between atoms: C_7  and  C_8
REMARK    6  A    between atoms: C_8  and  O_9
REMARK    7  A    between atoms: O_9  and  C_10
REMARK    8  A    between atoms: C_10  and  C_11
REMARK    9  A    between atoms: C_11  and  N_12
REMARK   10  A    between atoms: C_14  and  C_15
REMARK   11  A    between atoms: C_16  and  C_26
REMARK   12  A    between atoms: C_17  and  C_19
REMARK   13  A    between atoms: C_26  and  O_28
REMARK   14  A    between atoms: O_28  and  C_29
REMARK                            x       y       z     vdW  Elec       q    Type
REMARK                         _______ _______ _______ _____ _____    ______ ____
ROOT
ATOM      1  C   UNL     1       5.777  -4.554  25.940  0.00  0.00    +0.068 C 
ATOM      2  C   UNL     1       7.026  -4.625  25.045  0.00  0.00    +0.097 C 
ATOM      3  C   UNL     1       8.001  -3.448  25.266  0.00  0.00    +0.065 C 
ATOM      4  C   UNL     1       7.771  -2.541  26.248  0.00  0.00    +0.016 C 
ATOM      5  C   UNL     1       8.632  -1.334  26.533  0.00  0.00    +0.061 C 
ATOM      6  N   UNL     1       6.679  -2.680  27.074  0.00  0.00    -0.319 N 
ATOM      7  H   UNL     1       6.532  -1.958  27.776  0.00  0.00    +0.152 HD
ATOM      8  C   UNL     1       5.669  -3.615  26.916  0.00  0.00    +0.045 C 
ENDROOT
BRANCH   2   9
ATOM      9  C   UNL     1       6.694  -4.861  23.563  0.00  0.00    -0.017 A 
ATOM     10  C   UNL     1       6.073  -3.921  22.727  0.00  0.00    +0.045 A 
ATOM     11 CL   UNL     1       5.525  -2.388  23.299  0.00  0.00    -0.083 Cl
ATOM     12  C   UNL     1       5.860  -4.207  21.371  0.00  0.00    +0.020 A 
ATOM     13  C   UNL     1       6.241  -5.438  20.836  0.00  0.00    +0.001 A 
ATOM     14  C   UNL     1       6.824  -6.396  21.655  0.00  0.00    +0.000 A 
ATOM     15  C   UNL     1       7.049  -6.110  23.001  0.00  0.00    +0.006 A 
ENDBRANCH   2   9
BRANCH   1  16
ATOM     16  C   UNL     1       4.697  -5.551  25.690  0.00  0.00    +0.338 C 
ATOM     17  O   UNL     1       4.793  -6.756  25.876  0.00  0.00    -0.245 OA
BRANCH  16  18
ATOM     18  O   UNL     1       3.685  -4.929  25.050  0.00  0.00    -0.462 OA
BRANCH  18  20
ATOM     19  C   UNL     1       3.022  -6.006  23.082  0.00  0.00    +0.048 C 
ATOM     20  C   UNL     1       2.608  -5.692  24.505  0.00  0.00    +0.229 C 
ENDBRANCH  18  20
ENDBRANCH  16  18
ENDBRANCH   1  16
BRANCH   3  21
ATOM     21  C   UNL     1       9.180  -3.269  24.372  0.00  0.00    +0.337 C 
ATOM     22  O   UNL     1      10.203  -3.938  24.431  0.00  0.00    -0.245 OA
BRANCH  21  23
ATOM     23  O   UNL     1       8.975  -2.273  23.475  0.00  0.00    -0.465 OA
ATOM     24  C   UNL     1      10.188  -1.686  22.995  0.00  0.00    +0.280 C 
ENDBRANCH  21  23
ENDBRANCH   3  21
BRANCH   8  25
ATOM     25  C   UNL     1       4.548  -3.538  27.950  0.00  0.00    +0.211 C 
BRANCH  25  26
ATOM     26  O   UNL     1       4.941  -4.067  29.219  0.00  0.00    -0.373 OA
BRANCH  26  27
ATOM     27  C   UNL     1       4.551  -5.434  29.384  0.00  0.00    +0.175 C 
BRANCH  27  28
ATOM     28  C   UNL     1       5.791  -6.330  29.379  0.00  0.00    +0.106 C 
BRANCH  28  29
ATOM     29  N   UNL     1       5.567  -7.559  28.614  0.00  0.00    -0.328 NA
ATOM     30  H   UNL     1       4.713  -8.010  28.934  0.00  0.00    +0.118 HD
ATOM     31  H   UNL     1       5.409  -7.299  27.636  0.00  0.00    +0.118 HD
ENDBRANCH  28  29
ENDBRANCH  27  28
ENDBRANCH  26  27
ENDBRANCH  25  26
ENDBRANCH   8  25
TORSDOF 11
ENDMDL
MODEL 4
REMARK VINA RESULT:      -5.7      3.579      5.219
REMARK  Name = 
REMARK  14 active torsions:
REMARK  status: ('A' for Active; 'I' for Inactive)
REMARK    1  A    between atoms: C_1  and  C_2
REMARK    2  A    between atoms: C_2  and  O_3
REMARK    3  A    between atoms: O_3  and  C_4
REMARK    4  A    between atoms: C_4  and  C_6
REMARK    5  A    between atoms: C_7  and  C_8
REMARK    6  A    between atoms: C_8  and  O_9
REMARK    7  A    between atoms: O_9  and  C_10
REMARK    8  A    between atoms: C_10  and  C_11
REMARK    9  A    between atoms: C_11  and  N_12
REMARK   10  A    between atoms: C_14  and  C_15
REMARK   11  A    between atoms: C_16  and  C_26
REMARK   12  A    between atoms: C_17  and  C_19
REMARK   13  A    between atoms: C_26  and  O_28
REMARK   14  A    between atoms: O_28  and  C_29
REMARK                            x       y       z     vdW  Elec       q    Type
REMARK                         _______ _______ _______ _____ _____    ______ ____
ROOT
ATOM      1  C   UNL     1       9.144   1.986  23.815  0.00  0.00    +0.068 C 
ATOM      2  C   UNL     1       7.765   1.380  24.129  0.00  0.00    +0.097 C 
ATOM      3  C   UNL     1       6.780   2.395  24.751  0.00  0.00    +0.065 C 
ATOM      4  C   UNL     1       7.127   3.700  24.875  0.00  0.00    +0.016 C 
ATOM      5  C   UNL     1       6.264   4.771  25.497  0.00  0.00    +0.061 C 
ATOM      6  N   UNL     1       8.351   4.135  24.420  0.00  0.00    -0.319 N 
ATOM      7  H   UNL     1       8.578   5.118  24.562  0.00  0.00    +0.152 HD
ATOM      8  C   UNL     1       9.367   3.320  23.950  0.00  0.00    +0.045 C 
ENDROOT
BRANCH   2   9
ATOM      9  C   UNL     1       7.848   0.063  24.915  0.00  0.00    -0.017 A 
ATOM     10  C   UNL     1       7.335  -1.165  24.469  0.00  0.00    +0.045 A 
ATOM     11 CL   UNL     1       6.460  -1.323  22.990  0.00  0.00    -0.083 Cl
ATOM     12  C   UNL     1       7.508  -2.326  25.234  0.00  0.00    +0.020 A 
ATOM     13  C   UNL     1       8.173  -2.280  26.459  0.00  0.00    +0.001 A 
ATOM     14  C   UNL     1       8.657  -1.068  26.935  0.00  0.00    +0.000 A 
ATOM     15  C   UNL     1       8.498   0.088  26.172  0.00  0.00    +0.006 A 
ENDBRANCH   2   9
BRANCH   1  16
ATOM     16  C   UNL     1      10.216   1.054  23.365  0.00  0.00    +0.338 C 
ATOM     17  O   UNL     1      11.103   0.605  24.076  0.00  0.00    -0.245 OA
BRANCH  16  18
ATOM     18  O   UNL     1      10.154   0.953  22.021  0.00  0.00    -0.462 OA
BRANCH  18  20
ATOM     19  C   UNL     1      10.019  -1.382  22.058  0.00  0.00    +0.048 C 
ATOM     20  C   UNL     1       9.449  -0.133  21.419  0.00  0.00    +0.229 C 
ENDBRANCH  18  20
ENDBRANCH  16  18
ENDBRANCH   1  16
BRANCH   3  21
ATOM     21  C   UNL     1       5.457   1.941  25.265  0.00  0.00    +0.337 C 
ATOM     22  O   UNL     1       4.458   1.792  24.574  0.00  0.00    -0.245 OA
BRANCH  21  23
ATOM     23  O   UNL     1       5.499   1.705  26.599  0.00  0.00    -0.465 OA
ATOM     24  C   UNL     1       4.817   0.507  26.983  0.00  0.00    +0.280 C 
ENDBRANCH  21  23
ENDBRANCH   3  21
BRANCH   8  25
ATOM     25  C   UNL     1      10.643   4.049  23.537  0.00  0.00    +0.211 C 
BRANCH  25  26
ATOM     26  O   UNL     1      10.701   5.381  24.056  0.00  0.00    -0.373 OA
BRANCH  26  27
ATOM     27  C   UNL     1      12.009   5.953  23.946  0.00  0.00    +0.175 C 
BRANCH  27  28
ATOM     28  C   UNL     1      12.772   5.279  22.803  0.00  0.00    +0.106 C 
BRANCH  28  29
ATOM     29  N   UNL     1      14.193   5.120  23.122  0.00  0.00    -0.328 NA
ATOM     30  H   UNL     1      14.484   5.858  23.759  0.00  0.00    +0.118 HD
ATOM     31  H   UNL     1      14.307   4.238  23.629  0.00  0.00    +0.118 HD
ENDBRANCH  28  29
ENDBRANCH  27  28
ENDBRANCH  26  27
ENDBRANCH  25  26
ENDBRANCH   8  25
TORSDOF 11
ENDMDL
MODEL 5
REMARK VINA RESULT:      -5.7      4.573      7.919
REMARK  Name = 
REMARK  14 active torsions:
REMARK  status: ('A' for Active; 'I' for Inactive)
REMARK    1  A    between atoms: C_1  and  C_2
REMARK    2  A    between atoms: C_2  and  O_3
REMARK    3  A    between atoms: O_3  and  C_4
REMARK    4  A    between atoms: C_4  and  C_6
REMARK    5  A    between atoms: C_7  and  C_8
REMARK    6  A    between atoms: C_8  and  O_9
REMARK    7  A    between atoms: O_9  and  C_10
REMARK    8  A    between atoms: C_10  and  C_11
REMARK    9  A    between atoms: C_11  and  N_12
REMARK   10  A    between atoms: C_14  and  C_15
REMARK   11  A    between atoms: C_16  and  C_26
REMARK   12  A    between atoms: C_17  and  C_19
REMARK   13  A    between atoms: C_26  and  O_28
REMARK   14  A    between atoms: O_28  and  C_29
REMARK                            x       y       z     vdW  Elec       q    Type
REMARK                         _______ _______ _______ _____ _____    ______ ____
ROOT
ATOM      1  C   UNL     1       9.575   2.382  24.304  0.00  0.00    +0.068 C 
ATOM      2  C   UNL     1       8.766   3.552  24.889  0.00  0.00    +0.097 C 
ATOM      3  C   UNL     1       7.710   3.104  25.924  0.00  0.00    +0.065 C 
ATOM      4  C   UNL     1       7.637   1.807  26.313  0.00  0.00    +0.016 C 
ATOM      5  C   UNL     1       6.626   1.250  27.286  0.00  0.00    +0.061 C 
ATOM      6  N   UNL     1       8.524   0.884  25.808  0.00  0.00    -0.319 N 
ATOM      7  H   UNL     1       8.409  -0.083  26.107  0.00  0.00    +0.152 HD
ATOM      8  C   UNL     1       9.439   1.123  24.796  0.00  0.00    +0.045 C 
ENDROOT
BRANCH   2   9
ATOM      9  C   UNL     1       8.195   4.490  23.814  0.00  0.00    -0.017 A 
ATOM     10  C   UNL     1       7.245   4.113  22.853  0.00  0.00    +0.045 A 
ATOM     11 CL   UNL     1       6.655   2.498  22.714  0.00  0.00    -0.083 Cl
ATOM     12  C   UNL     1       6.743   5.055  21.945  0.00  0.00    +0.020 A 
ATOM     13  C   UNL     1       7.193   6.375  21.966  0.00  0.00    +0.001 A 
ATOM     14  C   UNL     1       8.160   6.759  22.887  0.00  0.00    +0.000 A 
ATOM     15  C   UNL     1       8.653   5.828  23.800  0.00  0.00    +0.006 A 
ENDBRANCH   2   9
BRANCH   1  16
ATOM     16  C   UNL     1      10.506   2.687  23.179  0.00  0.00    +0.338 C 
ATOM     17  O   UNL     1      10.440   2.201  22.060  0.00  0.00    -0.245 OA
BRANCH  16  18
ATOM     18  O   UNL     1      11.527   3.425  23.662  0.00  0.00    -0.462 OA
BRANCH  18  20
ATOM     19  C   UNL     1      12.315   5.614  23.901  0.00  0.00    +0.048 C 
ATOM     20  C   UNL     1      12.046   4.512  22.897  0.00  0.00    +0.229 C 
ENDBRANCH  18  20
ENDBRANCH  16  18
ENDBRANCH   1  16
BRANCH   3  21
ATOM     21  C   UNL     1       6.729   4.084  26.470  0.00  0.00    +0.337 C 
ATOM     22  O   UNL     1       5.593   4.240  26.045  0.00  0.00    -0.245 OA
BRANCH  21  23
ATOM     23  O   UNL     1       7.252   4.781  27.509  0.00  0.00    -0.465 OA
ATOM     24  C   UNL     1       6.298   5.067  28.536  0.00  0.00    +0.280 C 
ENDBRANCH  21  23
ENDBRANCH   3  21
BRANCH   8  25
ATOM     25  C   UNL     1      10.286  -0.082  24.392  0.00  0.00    +0.211 C 
BRANCH  25  26
ATOM     26  O   UNL     1       9.514  -1.283  24.299  0.00  0.00    -0.373 OA
BRANCH  26  27
ATOM     27  C   UNL     1       9.818  -2.036  23.121  0.00  0.00    +0.175 C 
BRANCH  27  28
ATOM     28  C   UNL     1       8.899  -1.600  21.977  0.00  0.00    +0.106 C 
BRANCH  28  29
ATOM     29  N   UNL     1       9.571  -0.663  21.072  0.00  0.00    -0.328 NA
ATOM     30  H   UNL     1      10.380  -0.259  21.538  0.00  0.00    +0.118 HD
ATOM     31  H   UNL     1       9.931  -1.196  20.276  0.00  0.00    +0.118 HD
ENDBRANCH  28  29
ENDBRANCH  27  28
ENDBRANCH  26  27
ENDBRANCH  25  26
ENDBRANCH   8  25
TORSDOF 11
ENDMDL
MODEL 6
REMARK VINA RESULT:      -5.7      2.539      5.594
REMARK  Name = 
REMARK  14 active torsions:
REMARK  status: ('A' for Active; 'I' for Inactive)
REMARK    1  A    between atoms: C_1  and  C_2
REMARK    2  A    between atoms: C_2  and  O_3
REMARK    3  A    between atoms: O_3  and  C_4
REMARK    4  A    between atoms: C_4  and  C_6
REMARK    5  A    between atoms: C_7  and  C_8
REMARK    6  A    between atoms: C_8  and  O_9
REMARK    7  A    between atoms: O_9  and  C_10
REMARK    8  A    between atoms: C_10  and  C_11
REMARK    9  A    between atoms: C_11  and  N_12
REMARK   10  A    between atoms: C_14  and  C_15
REMARK   11  A    between atoms: C_16  and  C_26
REMARK   12  A    between atoms: C_17  and  C_19
REMARK   13  A    between atoms: C_26  and  O_28
REMARK   14  A    between atoms: O_28  and  C_29
REMARK                            x       y       z     vdW  Elec       q    Type
REMARK                         _______ _______ _______ _____ _____    ______ ____
ROOT
ATOM      1  C   UNL     1       7.183  -4.308  25.182  0.00  0.00    +0.068 C 
ATOM      2  C   UNL     1       7.940  -2.989  25.415  0.00  0.00    +0.097 C 
ATOM      3  C   UNL     1       7.150  -1.976  26.272  0.00  0.00    +0.065 C 
ATOM      4  C   UNL     1       5.962  -2.326  26.827  0.00  0.00    +0.016 C 
ATOM      5  C   UNL     1       5.088  -1.412  27.650  0.00  0.00    +0.061 C 
ATOM      6  N   UNL     1       5.466  -3.597  26.651  0.00  0.00    -0.319 N 
ATOM      7  H   UNL     1       4.557  -3.802  27.060  0.00  0.00    +0.152 HD
ATOM      8  C   UNL     1       6.010  -4.561  25.818  0.00  0.00    +0.045 C 
ENDROOT
BRANCH   2   9
ATOM      9  C   UNL     1       8.497  -2.376  24.120  0.00  0.00    -0.017 A 
ATOM     10  C   UNL     1       7.712  -1.959  23.035  0.00  0.00    +0.045 A 
ATOM     11 CL   UNL     1       5.999  -2.164  22.995  0.00  0.00    -0.083 Cl
ATOM     12  C   UNL     1       8.308  -1.360  21.917  0.00  0.00    +0.020 A 
ATOM     13  C   UNL     1       9.691  -1.188  21.853  0.00  0.00    +0.001 A 
ATOM     14  C   UNL     1      10.489  -1.627  22.902  0.00  0.00    +0.000 A 
ATOM     15  C   UNL     1       9.899  -2.212  24.021  0.00  0.00    +0.006 A 
ENDBRANCH   2   9
BRANCH   1  16
ATOM     16  C   UNL     1       7.787  -5.287  24.233  0.00  0.00    +0.338 C 
ATOM     17  O   UNL     1       8.938  -5.697  24.282  0.00  0.00    -0.245 OA
BRANCH  16  18
ATOM     18  O   UNL     1       6.920  -5.484  23.218  0.00  0.00    -0.462 OA
BRANCH  18  20
ATOM     19  C   UNL     1       6.193  -5.604  20.998  0.00  0.00    +0.048 C 
ATOM     20  C   UNL     1       7.409  -5.711  21.896  0.00  0.00    +0.229 C 
ENDBRANCH  18  20
ENDBRANCH  16  18
ENDBRANCH   1  16
BRANCH   3  21
ATOM     21  C   UNL     1       7.661  -0.589  26.461  0.00  0.00    +0.337 C 
ATOM     22  O   UNL     1       8.487  -0.263  27.302  0.00  0.00    -0.245 OA
BRANCH  21  23
ATOM     23  O   UNL     1       7.101   0.270  25.574  0.00  0.00    -0.465 OA
ATOM     24  C   UNL     1       8.037   1.194  25.012  0.00  0.00    +0.280 C 
ENDBRANCH  21  23
ENDBRANCH   3  21
BRANCH   8  25
ATOM     25  C   UNL     1       5.246  -5.883  25.774  0.00  0.00    +0.211 C 
BRANCH  25  26
ATOM     26  O   UNL     1       5.741  -6.829  26.726  0.00  0.00    -0.373 OA
BRANCH  26  27
ATOM     27  C   UNL     1       4.966  -6.847  27.929  0.00  0.00    +0.175 C 
BRANCH  27  28
ATOM     28  C   UNL     1       5.859  -6.501  29.124  0.00  0.00    +0.106 C 
BRANCH  28  29
ATOM     29  N   UNL     1       5.761  -5.083  29.479  0.00  0.00    -0.328 NA
ATOM     30  H   UNL     1       6.693  -4.704  29.629  0.00  0.00    +0.118 HD
ATOM     31  H   UNL     1       5.370  -4.582  28.676  0.00  0.00    +0.118 HD
ENDBRANCH  28  29
ENDBRANCH  27  28
ENDBRANCH  26  27
ENDBRANCH  25  26
ENDBRANCH   8  25
TORSDOF 11
ENDMDL
MODEL 7
REMARK VINA RESULT:      -5.5      2.210      4.265
REMARK  Name = 
REMARK  14 active torsions:
REMARK  status: ('A' for Active; 'I' for Inactive)
REMARK    1  A    between atoms: C_1  and  C_2
REMARK    2  A    between atoms: C_2  and  O_3
REMARK    3  A    between atoms: O_3  and  C_4
REMARK    4  A    between atoms: C_4  and  C_6
REMARK    5  A    between atoms: C_7  and  C_8
REMARK    6  A    between atoms: C_8  and  O_9
REMARK    7  A    between atoms: O_9  and  C_10
REMARK    8  A    between atoms: C_10  and  C_11
REMARK    9  A    between atoms: C_11  and  N_12
REMARK   10  A    between atoms: C_14  and  C_15
REMARK   11  A    between atoms: C_16  and  C_26
REMARK   12  A    between atoms: C_17  and  C_19
REMARK   13  A    between atoms: C_26  and  O_28
REMARK   14  A    between atoms: O_28  and  C_29
REMARK                            x       y       z     vdW  Elec       q    Type
REMARK                         _______ _______ _______ _____ _____    ______ ____
ROOT
ATOM      1  C   UNL     1       7.664  -3.674  24.776  0.00  0.00    +0.068 C 
ATOM      2  C   UNL     1       6.519  -4.691  24.913  0.00  0.00    +0.097 C 
ATOM      3  C   UNL     1       6.048  -5.265  23.558  0.00  0.00    +0.065 C 
ATOM      4  C   UNL     1       6.701  -4.945  22.413  0.00  0.00    +0.016 C 
ATOM      5  C   UNL     1       6.311  -5.415  21.033  0.00  0.00    +0.061 C 
ATOM      6  N   UNL     1       7.807  -4.127  22.455  0.00  0.00    -0.319 N 
ATOM      7  H   UNL     1       8.244  -3.891  21.566  0.00  0.00    +0.152 HD
ATOM      8  C   UNL     1       8.265  -3.456  23.576  0.00  0.00    +0.045 C 
ENDROOT
BRANCH   2   9
ATOM      9  C   UNL     1       5.361  -4.183  25.786  0.00  0.00    -0.017 A 
ATOM     10  C   UNL     1       5.101  -4.619  27.095  0.00  0.00    +0.045 A 
ATOM     11 CL   UNL     1       6.022  -5.860  27.861  0.00  0.00    -0.083 Cl
ATOM     12  C   UNL     1       4.052  -4.056  27.834  0.00  0.00    +0.020 A 
ATOM     13  C   UNL     1       3.235  -3.071  27.277  0.00  0.00    +0.001 A 
ATOM     14  C   UNL     1       3.454  -2.652  25.971  0.00  0.00    +0.000 A 
ATOM     15  C   UNL     1       4.505  -3.200  25.236  0.00  0.00    +0.006 A 
ENDBRANCH   2   9
BRANCH   1  16
ATOM     16  C   UNL     1       8.081  -2.940  26.005  0.00  0.00    +0.338 C 
ATOM     17  O   UNL     1       8.542  -3.457  27.011  0.00  0.00    -0.245 OA
BRANCH  16  18
ATOM     18  O   UNL     1       7.683  -1.656  25.888  0.00  0.00    -0.462 OA
BRANCH  18  20
ATOM     19  C   UNL     1       6.087   0.008  26.283  0.00  0.00    +0.048 C 
ATOM     20  C   UNL     1       6.963  -1.031  26.951  0.00  0.00    +0.229 C 
ENDBRANCH  18  20
ENDBRANCH  16  18
ENDBRANCH   1  16
BRANCH   3  21
ATOM     21  C   UNL     1       4.843  -6.139  23.489  0.00  0.00    +0.337 C 
ATOM     22  O   UNL     1       4.747  -7.233  24.029  0.00  0.00    -0.245 OA
BRANCH  21  23
ATOM     23  O   UNL     1       3.856  -5.565  22.757  0.00  0.00    -0.465 OA
ATOM     24  C   UNL     1       2.553  -5.752  23.317  0.00  0.00    +0.280 C 
ENDBRANCH  21  23
ENDBRANCH   3  21
BRANCH   8  25
ATOM     25  C   UNL     1       9.495  -2.581  23.349  0.00  0.00    +0.211 C 
BRANCH  25  26
ATOM     26  O   UNL     1       9.339  -1.703  22.231  0.00  0.00    -0.373 OA
BRANCH  26  27
ATOM     27  C   UNL     1       9.557  -0.332  22.580  0.00  0.00    +0.175 C 
BRANCH  27  28
ATOM     28  C   UNL     1       9.164   0.569  21.407  0.00  0.00    +0.106 C 
BRANCH  28  29
ATOM     29  N   UNL     1       9.768   1.899  21.521  0.00  0.00    -0.328 NA
ATOM     30  H   UNL     1      10.557   1.971  20.883  0.00  0.00    +0.118 HD
ATOM     31  H   UNL     1       9.078   2.588  21.207  0.00  0.00    +0.118 HD
ENDBRANCH  28  29
ENDBRANCH  27  28
ENDBRANCH  26  27
ENDBRANCH  25  26
ENDBRANCH   8  25
TORSDOF 11
ENDMDL
MODEL 8
REMARK VINA RESULT:      -5.4      2.644      5.428
REMARK  Name = 
REMARK  14 active torsions:
REMARK  status: ('A' for Active; 'I' for Inactive)
REMARK    1  A    between atoms: C_1  and  C_2
REMARK    2  A    between atoms: C_2  and  O_3
REMARK    3  A    between atoms: O_3  and  C_4
REMARK    4  A    between atoms: C_4  and  C_6
REMARK    5  A    between atoms: C_7  and  C_8
REMARK    6  A    between atoms: C_8  and  O_9
REMARK    7  A    between atoms: O_9  and  C_10
REMARK    8  A    between atoms: C_10  and  C_11
REMARK    9  A    between atoms: C_11  and  N_12
REMARK   10  A    between atoms: C_14  and  C_15
REMARK   11  A    between atoms: C_16  and  C_26
REMARK   12  A    between atoms: C_17  and  C_19
REMARK   13  A    between atoms: C_26  and  O_28
REMARK   14  A    between atoms: O_28  and  C_29
REMARK                            x       y       z     vdW  Elec       q    Type
REMARK                         _______ _______ _______ _____ _____    ______ ____
ROOT
ATOM      1  C   UNL     1       6.572  -2.364  24.001  0.00  0.00    +0.068 C 
ATOM      2  C   UNL     1       6.556  -0.828  23.917  0.00  0.00    +0.097 C 
ATOM      3  C   UNL     1       7.724  -0.251  23.088  0.00  0.00    +0.065 C 
ATOM      4  C   UNL     1       8.576  -1.079  22.433  0.00  0.00    +0.016 C 
ATOM      5  C   UNL     1       9.770  -0.633  21.625  0.00  0.00    +0.061 C 
ATOM      6  N   UNL     1       8.387  -2.442  22.481  0.00  0.00    -0.319 N 
ATOM      7  H   UNL     1       9.070  -3.023  21.999  0.00  0.00    +0.152 HD
ATOM      8  C   UNL     1       7.457  -3.094  23.273  0.00  0.00    +0.045 C 
ENDROOT
BRANCH   2   9
ATOM      9  C   UNL     1       6.397  -0.149  25.286  0.00  0.00    -0.017 A 
ATOM     10  C   UNL     1       7.337  -0.226  26.326  0.00  0.00    +0.045 A 
ATOM     11 CL   UNL     1       8.772  -1.178  26.212  0.00  0.00    -0.083 Cl
ATOM     12  C   UNL     1       7.130   0.473  27.523  0.00  0.00    +0.020 A 
ATOM     13  C   UNL     1       5.978   1.238  27.710  0.00  0.00    +0.001 A 
ATOM     14  C   UNL     1       5.019   1.298  26.707  0.00  0.00    +0.000 A 
ATOM     15  C   UNL     1       5.227   0.614  25.510  0.00  0.00    +0.006 A 
ENDBRANCH   2   9
BRANCH   1  16
ATOM     16  C   UNL     1       5.584  -3.011  24.911  0.00  0.00    +0.338 C 
ATOM     17  O   UNL     1       5.836  -3.458  26.021  0.00  0.00    -0.245 OA
BRANCH  16  18
ATOM     18  O   UNL     1       4.433  -3.191  24.229  0.00  0.00    -0.462 OA
BRANCH  18  20
ATOM     19  C   UNL     1       3.813  -5.244  23.296  0.00  0.00    +0.048 C 
ATOM     20  C   UNL     1       3.619  -4.334  24.491  0.00  0.00    +0.229 C 
ENDBRANCH  18  20
ENDBRANCH  16  18
ENDBRANCH   1  16
BRANCH   3  21
ATOM     21  C   UNL     1       7.957   1.220  23.036  0.00  0.00    +0.337 C 
ATOM     22  O   UNL     1       7.325   1.998  22.335  0.00  0.00    -0.245 OA
BRANCH  21  23
ATOM     23  O   UNL     1       8.955   1.594  23.874  0.00  0.00    -0.465 OA
ATOM     24  C   UNL     1       8.656   2.778  24.619  0.00  0.00    +0.280 C 
ENDBRANCH  21  23
ENDBRANCH   3  21
BRANCH   8  25
ATOM     25  C   UNL     1       7.473  -4.617  23.169  0.00  0.00    +0.211 C 
BRANCH  25  26
ATOM     26  O   UNL     1       7.795  -5.244  24.414  0.00  0.00    -0.373 OA
BRANCH  26  27
ATOM     27  C   UNL     1       9.086  -4.860  24.899  0.00  0.00    +0.175 C 
BRANCH  27  28
ATOM     28  C   UNL     1       9.054  -4.751  26.425  0.00  0.00    +0.106 C 
BRANCH  28  29
ATOM     29  N   UNL     1       8.025  -5.617  27.007  0.00  0.00    -0.328 NA
ATOM     30  H   UNL     1       7.113  -5.358  26.639  0.00  0.00    +0.118 HD
ATOM     31  H   UNL     1       8.203  -6.575  26.693  0.00  0.00    +0.118 HD
ENDBRANCH  28  29
ENDBRANCH  27  28
ENDBRANCH  26  27
ENDBRANCH  25  26
ENDBRANCH   8  25
TORSDOF 11
ENDMDL
MODEL 9
REMARK VINA RESULT:      -5.4      3.015      5.555
REMARK  Name = 
REMARK  14 active torsions:
REMARK  status: ('A' for Active; 'I' for Inactive)
REMARK    1  A    between atoms: C_1  and  C_2
REMARK    2  A    between atoms: C_2  and  O_3
REMARK    3  A    between atoms: O_3  and  C_4
REMARK    4  A    between atoms: C_4  and  C_6
REMARK    5  A    between atoms: C_7  and  C_8
REMARK    6  A    between atoms: C_8  and  O_9
REMARK    7  A    between atoms: O_9  and  C_10
REMARK    8  A    between atoms: C_10  and  C_11
REMARK    9  A    between atoms: C_11  and  N_12
REMARK   10  A    between atoms: C_14  and  C_15
REMARK   11  A    between atoms: C_16  and  C_26
REMARK   12  A    between atoms: C_17  and  C_19
REMARK   13  A    between atoms: C_26  and  O_28
REMARK   14  A    between atoms: O_28  and  C_29
REMARK                            x       y       z     vdW  Elec       q    Type
REMARK                         _______ _______ _______ _____ _____    ______ ____
ROOT
ATOM      1  C   UNL     1       7.161  -1.930  24.252  0.00  0.00    +0.068 C 
ATOM      2  C   UNL     1       7.756  -0.894  25.221  0.00  0.00    +0.097 C 
ATOM      3  C   UNL     1       6.693  -0.203  26.103  0.00  0.00    +0.065 C 
ATOM      4  C   UNL     1       5.397  -0.602  26.055  0.00  0.00    +0.016 C 
ATOM      5  C   UNL     1       4.269   0.020  26.842  0.00  0.00    +0.061 C 
ATOM      6  N   UNL     1       5.026  -1.646  25.238  0.00  0.00    -0.319 N 
ATOM      7  H   UNL     1       4.037  -1.888  25.214  0.00  0.00    +0.152 HD
ATOM      8  C   UNL     1       5.848  -2.273  24.317  0.00  0.00    +0.045 C 
ENDROOT
BRANCH   2   9
ATOM      9  C   UNL     1       8.706   0.100  24.534  0.00  0.00    -0.017 A 
ATOM     10  C   UNL     1       8.310   1.044  23.574  0.00  0.00    +0.045 A 
ATOM     11 CL   UNL     1       6.693   1.145  22.982  0.00  0.00    -0.083 Cl
ATOM     12  C   UNL     1       9.241   1.947  23.042  0.00  0.00    +0.020 A 
ATOM     13  C   UNL     1      10.578   1.910  23.440  0.00  0.00    +0.001 A 
ATOM     14  C   UNL     1      10.996   0.959  24.363  0.00  0.00    +0.000 A 
ATOM     15  C   UNL     1      10.071   0.067  24.904  0.00  0.00    +0.006 A 
ENDBRANCH   2   9
BRANCH   1  16
ATOM     16  C   UNL     1       8.079  -2.534  23.245  0.00  0.00    +0.338 C 
ATOM     17  O   UNL     1       8.284  -2.092  22.124  0.00  0.00    -0.245 OA
BRANCH  16  18
ATOM     18  O   UNL     1       8.484  -3.735  23.706  0.00  0.00    -0.462 OA
BRANCH  18  20
ATOM     19  C   UNL     1       9.379  -5.225  25.272  0.00  0.00    +0.048 C 
ATOM     20  C   UNL     1       9.469  -3.810  24.737  0.00  0.00    +0.229 C 
ENDBRANCH  18  20
ENDBRANCH  16  18
ENDBRANCH   1  16
BRANCH   3  21
ATOM     21  C   UNL     1       7.070   0.939  26.982  0.00  0.00    +0.337 C 
ATOM     22  O   UNL     1       7.007   2.117  26.654  0.00  0.00    -0.245 OA
BRANCH  21  23
ATOM     23  O   UNL     1       7.487   0.512  28.199  0.00  0.00    -0.465 OA
ATOM     24  C   UNL     1       7.055   1.353  29.273  0.00  0.00    +0.280 C 
ENDBRANCH  21  23
ENDBRANCH   3  21
BRANCH   8  25
ATOM     25  C   UNL     1       5.182  -3.383  23.506  0.00  0.00    +0.211 C 
BRANCH  25  26
ATOM     26  O   UNL     1       5.248  -4.651  24.165  0.00  0.00    -0.373 OA
BRANCH  26  27
ATOM     27  C   UNL     1       5.327  -5.742  23.240  0.00  0.00    +0.175 C 
BRANCH  27  28
ATOM     28  C   UNL     1       5.890  -5.247  21.906  0.00  0.00    +0.106 C 
BRANCH  28  29
ATOM     29  N   UNL     1       7.244  -5.754  21.670  0.00  0.00    -0.328 NA
ATOM     30  H   UNL     1       7.890  -5.318  22.323  0.00  0.00    +0.118 HD
ATOM     31  H   UNL     1       7.249  -6.755  21.882  0.00  0.00    +0.118 HD
ENDBRANCH  28  29
ENDBRANCH  27  28
ENDBRANCH  26  27
ENDBRANCH  25  26
ENDBRANCH   8  25
TORSDOF 11
ENDMDL
