MODEL 1
REMARK VINA RESULT:      -8.1      0.000      0.000
REMARK  Name = 
REMARK  2 active torsions:
REMARK  status: ('A' for Active; 'I' for Inactive)
REMARK    1  A    between atoms: N_5  and  C_18
REMARK    2  A    between atoms: C_21  and  N_28
REMARK                            x       y       z     vdW  Elec       q    Type
REMARK                         _______ _______ _______ _____ _____    ______ ____
ROOT
ATOM      1  C   UNL     1       8.516  -0.193  22.240  0.00  0.00    +0.091 C 
ATOM      2  C   UNL     1       9.962   0.304  22.396  0.00  0.00    +0.002 C 
ATOM      3  C   UNL     1      10.411   0.236  23.867  0.00  0.00    +0.004 C 
ATOM      4  C   UNL     1       9.451   1.032  24.759  0.00  0.00    +0.004 C 
ATOM      5  C   UNL     1       8.342   1.682  23.912  0.00  0.00    +0.002 C 
ATOM      6  C   UNL     1       9.019   2.602  22.872  0.00  0.00    +0.004 C 
ATOM      7  C   UNL     1       9.969   1.788  21.972  0.00  0.00    +0.004 C 
ATOM      8  C   UNL     1       7.567   0.611  23.130  0.00  0.00    +0.091 C 
ATOM      9  C   UNL     1       6.841  -0.426  23.955  0.00  0.00    +0.230 C 
ATOM     10  O   UNL     1       6.057  -0.162  24.854  0.00  0.00    -0.274 OA
ATOM     11  N   UNL     1       7.170  -1.661  23.451  0.00  0.00    -0.209 N 
ATOM     12  C   UNL     1       8.262  -1.627  22.617  0.00  0.00    +0.230 C 
ATOM     13  O   UNL     1       8.929  -2.570  22.217  0.00  0.00    -0.274 OA
ENDROOT
BRANCH  11  14
ATOM     14  C   UNL     1       6.459  -2.848  23.736  0.00  0.00    +0.052 A 
ATOM     15  C   UNL     1       6.858  -3.674  24.839  0.00  0.00    +0.010 A 
ATOM     16  C   UNL     1       6.096  -4.828  25.159  0.00  0.00    +0.061 A 
ATOM     17  C   UNL     1       6.514  -5.623  26.262  0.00  0.00    +0.015 A 
ATOM     18  C   UNL     1       7.662  -5.332  26.995  0.00  0.00    +0.001 A 
ATOM     19  C   UNL     1       8.425  -4.230  26.658  0.00  0.00    +0.001 A 
ATOM     20  C   UNL     1       4.972  -5.110  24.340  0.00  0.00    +0.281 A 
ATOM     21  C   UNL     1       4.619  -4.327  23.231  0.00  0.00    +0.087 A 
ATOM     22  C   UNL     1       8.024  -3.413  25.603  0.00  0.00    +0.010 A 
ATOM     23  C   UNL     1       5.378  -3.205  22.921  0.00  0.00    +0.031 A 
BRANCH  20  24
ATOM     24  N   UNL     1       4.118  -6.257  24.619  0.00  0.00    +0.080 N 
ATOM     25  O   UNL     1       4.465  -7.355  24.165  0.00  0.00    +0.041 OA
ATOM     26  O   UNL     1       3.083  -6.040  25.265  0.00  0.00    -0.576 OA
ENDBRANCH  20  24
ENDBRANCH  11  14
TORSDOF 2
ENDMDL
MODEL 2
REMARK VINA RESULT:      -7.9      0.733      2.089
REMARK  Name = 
REMARK  2 active torsions:
REMARK  status: ('A' for Active; 'I' for Inactive)
REMARK    1  A    between atoms: N_5  and  C_18
REMARK    2  A    between atoms: C_21  and  N_28
REMARK                            x       y       z     vdW  Elec       q    Type
REMARK                         _______ _______ _______ _____ _____    ______ ____
ROOT
ATOM      1  C   UNL     1       8.368   0.744  24.033  0.00  0.00    +0.091 C 
ATOM      2  C   UNL     1       8.062   2.167  23.539  0.00  0.00    +0.002 C 
ATOM      3  C   UNL     1       7.476   2.140  22.116  0.00  0.00    +0.004 C 
ATOM      4  C   UNL     1       8.425   1.411  21.157  0.00  0.00    +0.004 C 
ATOM      5  C   UNL     1       9.690   0.948  21.899  0.00  0.00    +0.002 C 
ATOM      6  C   UNL     1      10.370   2.198  22.501  0.00  0.00    +0.004 C 
ATOM      7  C   UNL     1       9.412   2.913  23.475  0.00  0.00    +0.004 C 
ATOM      8  C   UNL     1       9.319   0.028  23.072  0.00  0.00    +0.091 C 
ATOM      9  C   UNL     1       8.610  -1.258  22.715  0.00  0.00    +0.230 C 
ATOM     10  O   UNL     1       9.020  -2.062  21.892  0.00  0.00    -0.274 OA
ATOM     11  N   UNL     1       7.509  -1.363  23.529  0.00  0.00    -0.209 N 
ATOM     12  C   UNL     1       7.190  -0.183  24.158  0.00  0.00    +0.230 C 
ATOM     13  O   UNL     1       6.153   0.101  24.739  0.00  0.00    -0.274 OA
ENDROOT
BRANCH  11  14
ATOM     14  C   UNL     1       6.779  -2.558  23.726  0.00  0.00    +0.052 A 
ATOM     15  C   UNL     1       7.153  -3.459  24.778  0.00  0.00    +0.010 A 
ATOM     16  C   UNL     1       6.371  -4.622  25.011  0.00  0.00    +0.061 A 
ATOM     17  C   UNL     1       6.764  -5.492  26.065  0.00  0.00    +0.015 A 
ATOM     18  C   UNL     1       7.905  -5.265  26.831  0.00  0.00    +0.001 A 
ATOM     19  C   UNL     1       8.686  -4.154  26.577  0.00  0.00    +0.001 A 
ATOM     20  C   UNL     1       5.256  -4.834  24.160  0.00  0.00    +0.281 A 
ATOM     21  C   UNL     1       4.929  -3.976  23.100  0.00  0.00    +0.087 A 
ATOM     22  C   UNL     1       8.311  -3.264  25.573  0.00  0.00    +0.010 A 
ATOM     23  C   UNL     1       5.706  -2.845  22.875  0.00  0.00    +0.031 A 
BRANCH  20  24
ATOM     24  N   UNL     1       4.384  -5.985  24.351  0.00  0.00    +0.080 N 
ATOM     25  O   UNL     1       4.760  -7.072  23.896  0.00  0.00    +0.041 OA
ATOM     26  O   UNL     1       3.308  -5.782  24.930  0.00  0.00    -0.576 OA
ENDBRANCH  20  24
ENDBRANCH  11  14
TORSDOF 2
ENDMDL
MODEL 3
REMARK VINA RESULT:      -7.9      1.862      2.981
REMARK  Name = 
REMARK  2 active torsions:
REMARK  status: ('A' for Active; 'I' for Inactive)
REMARK    1  A    between atoms: N_5  and  C_18
REMARK    2  A    between atoms: C_21  and  N_28
REMARK                            x       y       z     vdW  Elec       q    Type
REMARK                         _______ _______ _______ _____ _____    ______ ____
ROOT
ATOM      1  C   UNL     1       8.591  -2.187  22.772  0.00  0.00    +0.091 C 
ATOM      2  C   UNL     1       9.934  -1.447  22.677  0.00  0.00    +0.002 C 
ATOM      3  C   UNL     1      10.193  -0.612  23.943  0.00  0.00    +0.004 C 
ATOM      4  C   UNL     1       9.038   0.365  24.189  0.00  0.00    +0.004 C 
ATOM      5  C   UNL     1       7.978   0.236  23.081  0.00  0.00    +0.002 C 
ATOM      6  C   UNL     1       8.669   0.529  21.730  0.00  0.00    +0.004 C 
ATOM      7  C   UNL     1       9.818  -0.469  21.488  0.00  0.00    +0.004 C 
ATOM      8  C   UNL     1       7.445  -1.203  23.012  0.00  0.00    +0.091 C 
ATOM      9  C   UNL     1       6.747  -1.717  24.250  0.00  0.00    +0.230 C 
ATOM     10  O   UNL     1       5.827  -1.140  24.810  0.00  0.00    -0.274 OA
ATOM     11  N   UNL     1       7.284  -2.946  24.547  0.00  0.00    -0.209 N 
ATOM     12  C   UNL     1       8.463  -3.192  23.885  0.00  0.00    +0.230 C 
ATOM     13  O   UNL     1       9.285  -4.067  24.115  0.00  0.00    -0.274 OA
ENDROOT
BRANCH  11  14
ATOM     14  C   UNL     1       6.690  -3.880  25.426  0.00  0.00    +0.052 A 
ATOM     15  C   UNL     1       5.814  -4.891  24.909  0.00  0.00    +0.010 A 
ATOM     16  C   UNL     1       5.277  -5.866  25.791  0.00  0.00    +0.061 A 
ATOM     17  C   UNL     1       4.416  -6.859  25.247  0.00  0.00    +0.015 A 
ATOM     18  C   UNL     1       4.050  -6.871  23.903  0.00  0.00    +0.001 A 
ATOM     19  C   UNL     1       4.543  -5.898  23.054  0.00  0.00    +0.001 A 
ATOM     20  C   UNL     1       5.634  -5.769  27.161  0.00  0.00    +0.281 A 
ATOM     21  C   UNL     1       6.449  -4.745  27.667  0.00  0.00    +0.087 A 
ATOM     22  C   UNL     1       5.414  -4.931  23.549  0.00  0.00    +0.010 A 
ATOM     23  C   UNL     1       6.961  -3.790  26.796  0.00  0.00    +0.031 A 
BRANCH  20  24
ATOM     24  N   UNL     1       5.153  -6.747  28.126  0.00  0.00    +0.080 N 
ATOM     25  O   UNL     1       3.951  -6.721  28.419  0.00  0.00    +0.041 OA
ATOM     26  O   UNL     1       5.994  -7.517  28.610  0.00  0.00    -0.576 OA
ENDBRANCH  20  24
ENDBRANCH  11  14
TORSDOF 2
ENDMDL
MODEL 4
REMARK VINA RESULT:      -7.7      1.573      3.174
REMARK  Name = 
REMARK  2 active torsions:
REMARK  status: ('A' for Active; 'I' for Inactive)
REMARK    1  A    between atoms: N_5  and  C_18
REMARK    2  A    between atoms: C_21  and  N_28
REMARK                            x       y       z     vdW  Elec       q    Type
REMARK                         _______ _______ _______ _____ _____    ______ ____
ROOT
ATOM      1  C   UNL     1       8.227   1.591  24.383  0.00  0.00    +0.091 C 
ATOM      2  C   UNL     1       8.112   2.564  23.200  0.00  0.00    +0.002 C 
ATOM      3  C   UNL     1       8.305   1.828  21.862  0.00  0.00    +0.004 C 
ATOM      4  C   UNL     1       9.648   1.089  21.843  0.00  0.00    +0.004 C 
ATOM      5  C   UNL     1      10.412   1.327  23.158  0.00  0.00    +0.002 C 
ATOM      6  C   UNL     1      10.623   2.850  23.314  0.00  0.00    +0.004 C 
ATOM      7  C   UNL     1       9.265   3.579  23.346  0.00  0.00    +0.004 C 
ATOM      8  C   UNL     1       9.572   0.863  24.358  0.00  0.00    +0.091 C 
ATOM      9  C   UNL     1       9.217  -0.605  24.398  0.00  0.00    +0.230 C 
ATOM     10  O   UNL     1      10.031  -1.511  24.303  0.00  0.00    -0.274 OA
ATOM     11  N   UNL     1       7.868  -0.698  24.636  0.00  0.00    -0.209 N 
ATOM     12  C   UNL     1       7.204   0.489  24.440  0.00  0.00    +0.230 C 
ATOM     13  O   UNL     1       5.999   0.667  24.337  0.00  0.00    -0.274 OA
ENDROOT
BRANCH  11  14
ATOM     14  C   UNL     1       7.216  -1.880  25.058  0.00  0.00    +0.052 A 
ATOM     15  C   UNL     1       6.743  -2.821  24.085  0.00  0.00    +0.010 A 
ATOM     16  C   UNL     1       6.152  -4.037  24.520  0.00  0.00    +0.061 A 
ATOM     17  C   UNL     1       5.698  -4.953  23.530  0.00  0.00    +0.015 A 
ATOM     18  C   UNL     1       5.770  -4.672  22.168  0.00  0.00    +0.001 A 
ATOM     19  C   UNL     1       6.310  -3.471  21.748  0.00  0.00    +0.001 A 
ATOM     20  C   UNL     1       6.048  -4.242  25.920  0.00  0.00    +0.281 A 
ATOM     21  C   UNL     1       6.466  -3.293  26.864  0.00  0.00    +0.087 A 
ATOM     22  C   UNL     1       6.793  -2.567  22.690  0.00  0.00    +0.010 A 
ATOM     23  C   UNL     1       7.034  -2.102  26.427  0.00  0.00    +0.031 A 
BRANCH  20  24
ATOM     24  N   UNL     1       5.484  -5.476  26.450  0.00  0.00    +0.080 N 
ATOM     25  O   UNL     1       4.252  -5.549  26.546  0.00  0.00    +0.041 OA
ATOM     26  O   UNL     1       6.286  -6.354  26.799  0.00  0.00    -0.576 OA
ENDBRANCH  20  24
ENDBRANCH  11  14
TORSDOF 2
ENDMDL
MODEL 5
REMARK VINA RESULT:      -7.6      1.418      2.374
REMARK  Name = 
REMARK  2 active torsions:
REMARK  status: ('A' for Active; 'I' for Inactive)
REMARK    1  A    between atoms: N_5  and  C_18
REMARK    2  A    between atoms: C_21  and  N_28
REMARK                            x       y       z     vdW  Elec       q    Type
REMARK                         _______ _______ _______ _____ _____    ______ ____
ROOT
ATOM      1  C   UNL     1       9.027  -0.401  22.783  0.00  0.00    +0.091 C 
ATOM      2  C   UNL     1      10.208   0.513  23.143  0.00  0.00    +0.002 C 
ATOM      3  C   UNL     1      10.041   1.097  24.558  0.00  0.00    +0.004 C 
ATOM      4  C   UNL     1       8.706   1.842  24.678  0.00  0.00    +0.004 C 
ATOM      5  C   UNL     1       7.947   1.805  23.340  0.00  0.00    +0.002 C 
ATOM      6  C   UNL     1       8.847   2.457  22.267  0.00  0.00    +0.004 C 
ATOM      7  C   UNL     1      10.179   1.690  22.145  0.00  0.00    +0.004 C 
ATOM      8  C   UNL     1       7.701   0.354  22.901  0.00  0.00    +0.091 C 
ATOM      9  C   UNL     1       6.857  -0.491  23.827  0.00  0.00    +0.230 C 
ATOM     10  O   UNL     1       5.752  -0.168  24.236  0.00  0.00    -0.274 OA
ATOM     11  N   UNL     1       7.526  -1.673  24.033  0.00  0.00    -0.209 N 
ATOM     12  C   UNL     1       8.843  -1.620  23.645  0.00  0.00    +0.230 C 
ATOM     13  O   UNL     1       9.737  -2.409  23.916  0.00  0.00    -0.274 OA
ENDROOT
BRANCH  11  14
ATOM     14  C   UNL     1       6.931  -2.838  24.570  0.00  0.00    +0.052 A 
ATOM     15  C   UNL     1       6.537  -3.906  23.698  0.00  0.00    +0.010 A 
ATOM     16  C   UNL     1       6.004  -5.100  24.254  0.00  0.00    +0.061 A 
ATOM     17  C   UNL     1       5.628  -6.144  23.364  0.00  0.00    +0.015 A 
ATOM     18  C   UNL     1       5.719  -6.010  21.980  0.00  0.00    +0.001 A 
ATOM     19  C   UNL     1       6.201  -4.833  21.440  0.00  0.00    +0.001 A 
ATOM     20  C   UNL     1       5.876  -5.156  25.666  0.00  0.00    +0.281 A 
ATOM     21  C   UNL     1       6.214  -4.086  26.508  0.00  0.00    +0.087 A 
ATOM     22  C   UNL     1       6.608  -3.804  22.286  0.00  0.00    +0.010 A 
ATOM     23  C   UNL     1       6.726  -2.919  25.952  0.00  0.00    +0.031 A 
BRANCH  20  24
ATOM     24  N   UNL     1       5.368  -6.355  26.319  0.00  0.00    +0.080 N 
ATOM     25  O   UNL     1       4.328  -6.855  25.873  0.00  0.00    +0.041 OA
ATOM     26  O   UNL     1       6.002  -6.769  27.300  0.00  0.00    -0.576 OA
ENDBRANCH  20  24
ENDBRANCH  11  14
TORSDOF 2
ENDMDL
MODEL 6
REMARK VINA RESULT:      -7.6      2.771      7.479
REMARK  Name = 
REMARK  2 active torsions:
REMARK  status: ('A' for Active; 'I' for Inactive)
REMARK    1  A    between atoms: N_5  and  C_18
REMARK    2  A    between atoms: C_21  and  N_28
REMARK                            x       y       z     vdW  Elec       q    Type
REMARK                         _______ _______ _______ _____ _____    ______ ____
ROOT
ATOM      1  C   UNL     1       8.300  -3.182  23.271  0.00  0.00    +0.091 C 
ATOM      2  C   UNL     1       7.333  -4.027  22.426  0.00  0.00    +0.002 C 
ATOM      3  C   UNL     1       5.977  -3.315  22.266  0.00  0.00    +0.004 C 
ATOM      4  C   UNL     1       5.375  -2.989  23.637  0.00  0.00    +0.004 C 
ATOM      5  C   UNL     1       6.295  -3.494  24.763  0.00  0.00    +0.002 C 
ATOM      6  C   UNL     1       6.465  -5.019  24.585  0.00  0.00    +0.004 C 
ATOM      7  C   UNL     1       7.085  -5.333  23.209  0.00  0.00    +0.004 C 
ATOM      8  C   UNL     1       7.691  -2.867  24.639  0.00  0.00    +0.091 C 
ATOM      9  C   UNL     1       7.761  -1.361  24.753  0.00  0.00    +0.230 C 
ATOM     10  O   UNL     1       7.285  -0.721  25.679  0.00  0.00    -0.274 OA
ATOM     11  N   UNL     1       8.505  -0.899  23.696  0.00  0.00    -0.209 N 
ATOM     12  C   UNL     1       8.675  -1.839  22.707  0.00  0.00    +0.230 C 
ATOM     13  O   UNL     1       9.070  -1.662  21.564  0.00  0.00    -0.274 OA
ENDROOT
BRANCH  11  14
ATOM     14  C   UNL     1       9.062   0.398  23.624  0.00  0.00    +0.052 A 
ATOM     15  C   UNL     1       8.257   1.498  23.179  0.00  0.00    +0.010 A 
ATOM     16  C   UNL     1       8.805   2.808  23.177  0.00  0.00    +0.061 A 
ATOM     17  C   UNL     1       7.979   3.879  22.735  0.00  0.00    +0.015 A 
ATOM     18  C   UNL     1       6.684   3.674  22.265  0.00  0.00    +0.001 A 
ATOM     19  C   UNL     1       6.166   2.393  22.231  0.00  0.00    +0.001 A 
ATOM     20  C   UNL     1      10.149   2.949  23.608  0.00  0.00    +0.281 A 
ATOM     21  C   UNL     1      10.947   1.861  23.992  0.00  0.00    +0.087 A 
ATOM     22  C   UNL     1       6.938   1.327  22.687  0.00  0.00    +0.010 A 
ATOM     23  C   UNL     1      10.403   0.581  23.981  0.00  0.00    +0.031 A 
BRANCH  20  24
ATOM     24  N   UNL     1      10.778   4.262  23.667  0.00  0.00    +0.080 N 
ATOM     25  O   UNL     1      11.881   4.394  23.123  0.00  0.00    +0.041 OA
ATOM     26  O   UNL     1      10.172   5.145  24.289  0.00  0.00    -0.576 OA
ENDBRANCH  20  24
ENDBRANCH  11  14
TORSDOF 2
ENDMDL
MODEL 7
REMARK VINA RESULT:      -7.4      2.275      3.312
REMARK  Name = 
REMARK  2 active torsions:
REMARK  status: ('A' for Active; 'I' for Inactive)
REMARK    1  A    between atoms: N_5  and  C_18
REMARK    2  A    between atoms: C_21  and  N_28
REMARK                            x       y       z     vdW  Elec       q    Type
REMARK                         _______ _______ _______ _____ _____    ______ ____
ROOT
ATOM      1  C   UNL     1       9.800   0.214  24.528  0.00  0.00    +0.091 C 
ATOM      2  C   UNL     1       9.566   1.731  24.466  0.00  0.00    +0.002 C 
ATOM      3  C   UNL     1       8.097   2.049  24.135  0.00  0.00    +0.004 C 
ATOM      4  C   UNL     1       7.682   1.370  22.825  0.00  0.00    +0.004 C 
ATOM      5  C   UNL     1       8.867   0.596  22.220  0.00  0.00    +0.002 C 
ATOM      6  C   UNL     1      10.015   1.602  21.980  0.00  0.00    +0.004 C 
ATOM      7  C   UNL     1      10.433   2.266  23.306  0.00  0.00    +0.004 C 
ATOM      8  C   UNL     1       9.387  -0.453  23.214  0.00  0.00    +0.091 C 
ATOM      9  C   UNL     1       8.411  -1.532  23.620  0.00  0.00    +0.230 C 
ATOM     10  O   UNL     1       7.790  -2.228  22.830  0.00  0.00    -0.274 OA
ATOM     11  N   UNL     1       8.431  -1.616  24.991  0.00  0.00    -0.209 N 
ATOM     12  C   UNL     1       9.034  -0.533  25.586  0.00  0.00    +0.230 C 
ATOM     13  O   UNL     1       8.994  -0.206  26.763  0.00  0.00    -0.274 OA
ENDROOT
BRANCH  11  14
ATOM     14  C   UNL     1       7.909  -2.703  25.727  0.00  0.00    +0.052 A 
ATOM     15  C   UNL     1       6.568  -2.645  26.232  0.00  0.00    +0.010 A 
ATOM     16  C   UNL     1       6.028  -3.770  26.911  0.00  0.00    +0.061 A 
ATOM     17  C   UNL     1       4.694  -3.684  27.396  0.00  0.00    +0.015 A 
ATOM     18  C   UNL     1       3.930  -2.526  27.269  0.00  0.00    +0.001 A 
ATOM     19  C   UNL     1       4.470  -1.419  26.642  0.00  0.00    +0.001 A 
ATOM     20  C   UNL     1       6.873  -4.900  27.066  0.00  0.00    +0.281 A 
ATOM     21  C   UNL     1       8.201  -4.929  26.615  0.00  0.00    +0.087 A 
ATOM     22  C   UNL     1       5.763  -1.482  26.128  0.00  0.00    +0.010 A 
ATOM     23  C   UNL     1       8.722  -3.818  25.961  0.00  0.00    +0.031 A 
BRANCH  20  24
ATOM     24  N   UNL     1       6.388  -6.106  27.722  0.00  0.00    +0.080 N 
ATOM     25  O   UNL     1       6.841  -6.372  28.842  0.00  0.00    +0.041 OA
ATOM     26  O   UNL     1       5.577  -6.799  27.091  0.00  0.00    -0.576 OA
ENDBRANCH  20  24
ENDBRANCH  11  14
TORSDOF 2
ENDMDL
MODEL 8
REMARK VINA RESULT:      -7.4      1.083      2.179
REMARK  Name = 
REMARK  2 active torsions:
REMARK  status: ('A' for Active; 'I' for Inactive)
REMARK    1  A    between atoms: N_5  and  C_18
REMARK    2  A    between atoms: C_21  and  N_28
REMARK                            x       y       z     vdW  Elec       q    Type
REMARK                         _______ _______ _______ _____ _____    ______ ____
ROOT
ATOM      1  C   UNL     1       8.261   0.033  24.602  0.00  0.00    +0.091 C 
ATOM      2  C   UNL     1       8.406   1.359  23.840  0.00  0.00    +0.002 C 
ATOM      3  C   UNL     1       8.641   1.110  22.340  0.00  0.00    +0.004 C 
ATOM      4  C   UNL     1       9.868   0.214  22.130  0.00  0.00    +0.004 C 
ATOM      5  C   UNL     1      10.510  -0.145  23.481  0.00  0.00    +0.002 C 
ATOM      6  C   UNL     1      10.905   1.174  24.182  0.00  0.00    +0.004 C 
ATOM      7  C   UNL     1       9.662   2.059  24.401  0.00  0.00    +0.004 C 
ATOM      8  C   UNL     1       9.492  -0.851  24.390  0.00  0.00    +0.091 C 
ATOM      9  C   UNL     1       8.942  -2.164  23.883  0.00  0.00    +0.230 C 
ATOM     10  O   UNL     1       9.633  -3.101  23.513  0.00  0.00    -0.274 OA
ATOM     11  N   UNL     1       7.574  -2.112  24.000  0.00  0.00    -0.209 N 
ATOM     12  C   UNL     1       7.101  -0.838  24.206  0.00  0.00    +0.230 C 
ATOM     13  O   UNL     1       5.948  -0.442  24.109  0.00  0.00    -0.274 OA
ENDROOT
BRANCH  11  14
ATOM     14  C   UNL     1       6.729  -3.243  23.935  0.00  0.00    +0.052 A 
ATOM     15  C   UNL     1       6.526  -4.051  25.103  0.00  0.00    +0.010 A 
ATOM     16  C   UNL     1       5.622  -5.145  25.046  0.00  0.00    +0.061 A 
ATOM     17  C   UNL     1       5.437  -5.924  26.222  0.00  0.00    +0.015 A 
ATOM     18  C   UNL     1       6.147  -5.678  27.395  0.00  0.00    +0.001 A 
ATOM     19  C   UNL     1       7.056  -4.638  27.436  0.00  0.00    +0.001 A 
ATOM     20  C   UNL     1       4.973  -5.385  23.807  0.00  0.00    +0.281 A 
ATOM     21  C   UNL     1       5.217  -4.623  22.656  0.00  0.00    +0.087 A 
ATOM     22  C   UNL     1       7.235  -3.836  26.312  0.00  0.00    +0.010 A 
ATOM     23  C   UNL     1       6.112  -3.561  22.720  0.00  0.00    +0.031 A 
BRANCH  20  24
ATOM     24  N   UNL     1       4.006  -6.467  23.672  0.00  0.00    +0.080 N 
ATOM     25  O   UNL     1       4.325  -7.579  24.111  0.00  0.00    +0.041 OA
ATOM     26  O   UNL     1       2.944  -6.199  23.094  0.00  0.00    -0.576 OA
ENDBRANCH  20  24
ENDBRANCH  11  14
TORSDOF 2
ENDMDL
MODEL 9
REMARK VINA RESULT:      -7.3      2.733      7.595
REMARK  Name = 
REMARK  2 active torsions:
REMARK  status: ('A' for Active; 'I' for Inactive)
REMARK    1  A    between atoms: N_5  and  C_18
REMARK    2  A    between atoms: C_21  and  N_28
REMARK                            x       y       z     vdW  Elec       q    Type
REMARK                         _______ _______ _______ _____ _____    ______ ____
ROOT
ATOM      1  C   UNL     1       6.878  -2.541  24.891  0.00  0.00    +0.091 C 
ATOM      2  C   UNL     1       7.003  -3.711  25.879  0.00  0.00    +0.002 C 
ATOM      3  C   UNL     1       8.439  -4.265  25.896  0.00  0.00    +0.004 C 
ATOM      4  C   UNL     1       8.872  -4.681  24.485  0.00  0.00    +0.004 C 
ATOM      5  C   UNL     1       7.732  -4.444  23.480  0.00  0.00    +0.002 C 
ATOM      6  C   UNL     1       6.511  -5.268  23.947  0.00  0.00    +0.004 C 
ATOM      7  C   UNL     1       6.076  -4.831  25.359  0.00  0.00    +0.004 C 
ATOM      8  C   UNL     1       7.307  -2.968  23.486  0.00  0.00    +0.091 C 
ATOM      9  C   UNL     1       8.366  -1.966  23.085  0.00  0.00    +0.230 C 
ATOM     10  O   UNL     1       9.016  -2.031  22.053  0.00  0.00    -0.274 OA
ATOM     11  N   UNL     1       8.381  -0.976  24.037  0.00  0.00    -0.209 N 
ATOM     12  C   UNL     1       7.717  -1.328  25.188  0.00  0.00    +0.230 C 
ATOM     13  O   UNL     1       7.760  -0.775  26.278  0.00  0.00    -0.274 OA
ENDROOT
BRANCH  11  14
ATOM     14  C   UNL     1       8.994   0.284  23.861  0.00  0.00    +0.052 A 
ATOM     15  C   UNL     1       8.238   1.379  23.327  0.00  0.00    +0.010 A 
ATOM     16  C   UNL     1       8.844   2.659  23.218  0.00  0.00    +0.061 A 
ATOM     17  C   UNL     1       8.065   3.726  22.689  0.00  0.00    +0.015 A 
ATOM     18  C   UNL     1       6.761   3.542  22.235  0.00  0.00    +0.001 A 
ATOM     19  C   UNL     1       6.187   2.287  22.305  0.00  0.00    +0.001 A 
ATOM     20  C   UNL     1      10.194   2.775  23.638  0.00  0.00    +0.281 A 
ATOM     21  C   UNL     1      10.943   1.687  24.110  0.00  0.00    +0.087 A 
ATOM     22  C   UNL     1       6.912   1.228  22.848  0.00  0.00    +0.010 A 
ATOM     23  C   UNL     1      10.343   0.436  24.203  0.00  0.00    +0.031 A 
BRANCH  20  24
ATOM     24  N   UNL     1      10.880   4.059  23.590  0.00  0.00    +0.080 N 
ATOM     25  O   UNL     1      11.964   4.108  22.995  0.00  0.00    +0.041 OA
ATOM     26  O   UNL     1      10.340   5.005  24.180  0.00  0.00    -0.576 OA
ENDBRANCH  20  24
ENDBRANCH  11  14
TORSDOF 2
ENDMDL
