MODEL 1
REMARK VINA RESULT:      -6.7      0.000      0.000
REMARK  Name = 
REMARK  12 active torsions:
REMARK  status: ('A' for Active; 'I' for Inactive)
REMARK    1  A    between atoms: O_1  and  C_2
REMARK    2  A    between atoms: C_2  and  C_4
REMARK    3  A    between atoms: C_4  and  N_5
REMARK    4  A    between atoms: C_6  and  C_8
REMARK    5  A    between atoms: C_8  and  C_9
REMARK    6  A    between atoms: C_9  and  C_10
REMARK    7  A    between atoms: C_10  and  P_11
REMARK    8  A    between atoms: P_11  and  O_12
REMARK    9  A    between atoms: P_11  and  O_14
REMARK   10  A    between atoms: O_14  and  C_15
REMARK   11  A    between atoms: C_15  and  C_16
REMARK   12  A    between atoms: C_19  and  N_22
REMARK                            x       y       z     vdW  Elec       q    Type
REMARK                         _______ _______ _______ _____ _____    ______ ____
ROOT
ATOM      1  P   UNL     1       9.111  -4.246  25.063  0.00  0.00    +0.331 P 
ATOM      2  O   UNL     1       8.249  -4.712  23.887  0.00  0.00    -0.259 OA
ENDROOT
BRANCH   1   3
ATOM      3  O   UNL     1      10.377  -5.284  25.085  0.00  0.00    -0.324 OA
ATOM      4  H   UNL     1      10.425  -5.695  25.971  0.00  0.00    +0.220 HD
ENDBRANCH   1   3
BRANCH   1   5
ATOM      5  C   UNL     1       8.144  -5.347  26.157  0.00  0.00    +0.128 C 
BRANCH   5   6
ATOM      6  C   UNL     1       6.689  -4.877  26.253  0.00  0.00    +0.021 C 
BRANCH   6   7
ATOM      7  C   UNL     1       5.678  -6.019  26.286  0.00  0.00    +0.096 C 
BRANCH   7  10
ATOM      8  N   UNL     1       5.276  -5.255  24.013  0.00  0.00    -0.305 N 
ATOM      9  H   UNL     1       5.906  -4.495  24.243  0.00  0.00    +0.149 HD
ATOM     10  C   UNL     1       5.104  -6.278  24.907  0.00  0.00    +0.213 C 
ATOM     11  O   UNL     1       4.589  -7.337  24.553  0.00  0.00    -0.276 OA
BRANCH   8  12
ATOM     12  C   UNL     1       4.774  -5.337  22.646  0.00  0.00    +0.224 C 
BRANCH  12  13
ATOM     13  C   UNL     1       5.844  -5.756  21.643  0.00  0.00    +0.322 C 
ATOM     14  O   UNL     1       5.974  -5.238  20.541  0.00  0.00    -0.249 OA
BRANCH  13  15
ATOM     15  O   UNL     1       6.591  -6.811  22.039  0.00  0.00    -0.480 OA
ATOM     16  H   UNL     1       6.206  -7.677  21.759  0.00  0.00    +0.295 HD
ENDBRANCH  13  15
ENDBRANCH  12  13
ENDBRANCH   8  12
ENDBRANCH   7  10
ENDBRANCH   6   7
ENDBRANCH   5   6
ENDBRANCH   1   5
BRANCH   1  17
ATOM     17  O   UNL     1      10.026  -3.203  24.028  0.00  0.00    -0.303 OA
BRANCH  17  18
ATOM     18  C   UNL     1       9.217  -2.474  23.124  0.00  0.00    +0.205 C 
BRANCH  18  19
ATOM     19  C   UNL     1       9.594  -1.018  23.203  0.00  0.00    -0.021 A 
ATOM     20  C   UNL     1       9.537  -0.201  22.064  0.00  0.00    +0.012 A 
ATOM     21  C   UNL     1       9.853   1.158  22.146  0.00  0.00    +0.084 A 
ATOM     22  C   UNL     1      10.230   1.707  23.379  0.00  0.00    +0.273 A 
ATOM     23  C   UNL     1      10.309   0.903  24.521  0.00  0.00    +0.084 A 
ATOM     24  C   UNL     1       9.992  -0.455  24.427  0.00  0.00    +0.012 A 
BRANCH  22  25
ATOM     25  N   UNL     1      10.529   3.141  23.474  0.00  0.00    +0.080 N 
ATOM     26  O   UNL     1      11.719   3.486  23.448  0.00  0.00    +0.041 OA
ATOM     27  O   UNL     1       9.574   3.925  23.574  0.00  0.00    -0.576 OA
ENDBRANCH  22  25
ENDBRANCH  18  19
ENDBRANCH  17  18
ENDBRANCH   1  17
TORSDOF 12
ENDMDL
MODEL 2
REMARK VINA RESULT:      -6.5      1.457      3.047
REMARK  Name = 
REMARK  12 active torsions:
REMARK  status: ('A' for Active; 'I' for Inactive)
REMARK    1  A    between atoms: O_1  and  C_2
REMARK    2  A    between atoms: C_2  and  C_4
REMARK    3  A    between atoms: C_4  and  N_5
REMARK    4  A    between atoms: C_6  and  C_8
REMARK    5  A    between atoms: C_8  and  C_9
REMARK    6  A    between atoms: C_9  and  C_10
REMARK    7  A    between atoms: C_10  and  P_11
REMARK    8  A    between atoms: P_11  and  O_12
REMARK    9  A    between atoms: P_11  and  O_14
REMARK   10  A    between atoms: O_14  and  C_15
REMARK   11  A    between atoms: C_15  and  C_16
REMARK   12  A    between atoms: C_19  and  N_22
REMARK                            x       y       z     vdW  Elec       q    Type
REMARK                         _______ _______ _______ _____ _____    ______ ____
ROOT
ATOM      1  P   UNL     1       7.533  -3.112  22.835  0.00  0.00    +0.331 P 
ATOM      2  O   UNL     1       7.873  -4.570  23.157  0.00  0.00    -0.259 OA
ENDROOT
BRANCH   1   3
ATOM      3  O   UNL     1       6.586  -2.624  24.078  0.00  0.00    -0.324 OA
ATOM      4  H   UNL     1       6.919  -1.765  24.402  0.00  0.00    +0.220 HD
ENDBRANCH   1   3
BRANCH   1   5
ATOM      5  C   UNL     1       6.071  -3.701  21.906  0.00  0.00    +0.128 C 
BRANCH   5   6
ATOM      6  C   UNL     1       5.926  -5.221  22.028  0.00  0.00    +0.021 C 
BRANCH   6   7
ATOM      7  C   UNL     1       4.623  -5.659  22.690  0.00  0.00    +0.096 C 
BRANCH   7  10
ATOM      8  N   UNL     1       5.492  -5.437  24.950  0.00  0.00    -0.305 N 
ATOM      9  H   UNL     1       5.564  -4.448  24.738  0.00  0.00    +0.149 HD
ATOM     10  C   UNL     1       4.884  -6.273  24.051  0.00  0.00    +0.213 C 
ATOM     11  O   UNL     1       4.522  -7.398  24.390  0.00  0.00    -0.276 OA
BRANCH   8  12
ATOM     12  C   UNL     1       5.822  -5.872  26.302  0.00  0.00    +0.224 C 
BRANCH  12  13
ATOM     13  C   UNL     1       7.095  -5.229  26.842  0.00  0.00    +0.322 C 
ATOM     14  O   UNL     1       7.500  -4.131  26.482  0.00  0.00    -0.249 OA
BRANCH  13  15
ATOM     15  O   UNL     1       7.790  -6.013  27.697  0.00  0.00    -0.480 OA
ATOM     16  H   UNL     1       7.810  -6.960  27.416  0.00  0.00    +0.295 HD
ENDBRANCH  13  15
ENDBRANCH  12  13
ENDBRANCH   8  12
ENDBRANCH   7  10
ENDBRANCH   6   7
ENDBRANCH   5   6
ENDBRANCH   1   5
BRANCH   1  17
ATOM     17  O   UNL     1       8.917  -2.555  23.713  0.00  0.00    -0.303 OA
BRANCH  17  18
ATOM     18  C   UNL     1       9.967  -2.119  22.870  0.00  0.00    +0.205 C 
BRANCH  18  19
ATOM     19  C   UNL     1      10.118  -0.627  23.017  0.00  0.00    -0.021 A 
ATOM     20  C   UNL     1       9.834   0.229  21.943  0.00  0.00    +0.012 A 
ATOM     21  C   UNL     1       9.940   1.615  22.091  0.00  0.00    +0.084 A 
ATOM     22  C   UNL     1      10.335   2.151  23.324  0.00  0.00    +0.273 A 
ATOM     23  C   UNL     1      10.640   1.309  24.400  0.00  0.00    +0.084 A 
ATOM     24  C   UNL     1      10.531  -0.074  24.241  0.00  0.00    +0.012 A 
BRANCH  22  25
ATOM     25  N   UNL     1      10.414   3.607  23.491  0.00  0.00    +0.080 N 
ATOM     26  O   UNL     1       9.368   4.215  23.760  0.00  0.00    +0.041 OA
ATOM     27  O   UNL     1      11.522   4.145  23.354  0.00  0.00    -0.576 OA
ENDBRANCH  22  25
ENDBRANCH  18  19
ENDBRANCH  17  18
ENDBRANCH   1  17
TORSDOF 12
ENDMDL
MODEL 3
REMARK VINA RESULT:      -6.4      0.637      1.359
REMARK  Name = 
REMARK  12 active torsions:
REMARK  status: ('A' for Active; 'I' for Inactive)
REMARK    1  A    between atoms: O_1  and  C_2
REMARK    2  A    between atoms: C_2  and  C_4
REMARK    3  A    between atoms: C_4  and  N_5
REMARK    4  A    between atoms: C_6  and  C_8
REMARK    5  A    between atoms: C_8  and  C_9
REMARK    6  A    between atoms: C_9  and  C_10
REMARK    7  A    between atoms: C_10  and  P_11
REMARK    8  A    between atoms: P_11  and  O_12
REMARK    9  A    between atoms: P_11  and  O_14
REMARK   10  A    between atoms: O_14  and  C_15
REMARK   11  A    between atoms: C_15  and  C_16
REMARK   12  A    between atoms: C_19  and  N_22
REMARK                            x       y       z     vdW  Elec       q    Type
REMARK                         _______ _______ _______ _____ _____    ______ ____
ROOT
ATOM      1  P   UNL     1       9.238  -3.961  25.087  0.00  0.00    +0.331 P 
ATOM      2  O   UNL     1       8.252  -4.252  23.953  0.00  0.00    -0.259 OA
ENDROOT
BRANCH   1   3
ATOM      3  O   UNL     1      10.340  -5.169  24.997  0.00  0.00    -0.324 OA
ATOM      4  H   UNL     1      11.128  -4.834  24.526  0.00  0.00    +0.220 HD
ENDBRANCH   1   3
BRANCH   1   5
ATOM      5  C   UNL     1       8.187  -4.956  26.204  0.00  0.00    +0.128 C 
BRANCH   5   6
ATOM      6  C   UNL     1       6.702  -4.684  25.938  0.00  0.00    +0.021 C 
BRANCH   6   7
ATOM      7  C   UNL     1       5.815  -5.912  26.116  0.00  0.00    +0.096 C 
BRANCH   7  10
ATOM      8  N   UNL     1       5.806  -5.763  23.689  0.00  0.00    -0.305 N 
ATOM      9  H   UNL     1       6.629  -5.182  23.802  0.00  0.00    +0.149 HD
ATOM     10  C   UNL     1       5.269  -6.387  24.784  0.00  0.00    +0.213 C 
ATOM     11  O   UNL     1       4.468  -7.310  24.646  0.00  0.00    -0.276 OA
BRANCH   8  12
ATOM     12  C   UNL     1       5.385  -6.094  22.332  0.00  0.00    +0.224 C 
BRANCH  12  13
ATOM     13  C   UNL     1       6.005  -5.185  21.276  0.00  0.00    +0.322 C 
ATOM     14  O   UNL     1       6.016  -5.451  20.081  0.00  0.00    -0.249 OA
BRANCH  13  15
ATOM     15  O   UNL     1       6.622  -4.092  21.781  0.00  0.00    -0.480 OA
ATOM     16  H   UNL     1       6.047  -3.584  22.404  0.00  0.00    +0.295 HD
ENDBRANCH  13  15
ENDBRANCH  12  13
ENDBRANCH   8  12
ENDBRANCH   7  10
ENDBRANCH   6   7
ENDBRANCH   5   6
ENDBRANCH   1   5
BRANCH   1  17
ATOM     17  O   UNL     1      10.233  -3.018  24.030  0.00  0.00    -0.303 OA
BRANCH  17  18
ATOM     18  C   UNL     1       9.494  -2.347  23.027  0.00  0.00    +0.205 C 
BRANCH  18  19
ATOM     19  C   UNL     1       9.743  -0.867  23.149  0.00  0.00    -0.021 A 
ATOM     20  C   UNL     1      10.065  -0.297  24.390  0.00  0.00    +0.012 A 
ATOM     21  C   UNL     1      10.330   1.072  24.496  0.00  0.00    +0.084 A 
ATOM     22  C   UNL     1      10.274   1.879  23.352  0.00  0.00    +0.273 A 
ATOM     23  C   UNL     1       9.936   1.329  22.110  0.00  0.00    +0.084 A 
ATOM     24  C   UNL     1       9.672  -0.040  22.016  0.00  0.00    +0.012 A 
BRANCH  22  25
ATOM     25  N   UNL     1      10.586   3.309  23.456  0.00  0.00    +0.080 N 
ATOM     26  O   UNL     1       9.641   4.097  23.607  0.00  0.00    +0.041 OA
ATOM     27  O   UNL     1      11.776   3.647  23.387  0.00  0.00    -0.576 OA
ENDBRANCH  22  25
ENDBRANCH  18  19
ENDBRANCH  17  18
ENDBRANCH   1  17
TORSDOF 12
ENDMDL
MODEL 4
REMARK VINA RESULT:      -6.1      3.585      9.579
REMARK  Name = 
REMARK  12 active torsions:
REMARK  status: ('A' for Active; 'I' for Inactive)
REMARK    1  A    between atoms: O_1  and  C_2
REMARK    2  A    between atoms: C_2  and  C_4
REMARK    3  A    between atoms: C_4  and  N_5
REMARK    4  A    between atoms: C_6  and  C_8
REMARK    5  A    between atoms: C_8  and  C_9
REMARK    6  A    between atoms: C_9  and  C_10
REMARK    7  A    between atoms: C_10  and  P_11
REMARK    8  A    between atoms: P_11  and  O_12
REMARK    9  A    between atoms: P_11  and  O_14
REMARK   10  A    between atoms: O_14  and  C_15
REMARK   11  A    between atoms: C_15  and  C_16
REMARK   12  A    between atoms: C_19  and  N_22
REMARK                            x       y       z     vdW  Elec       q    Type
REMARK                         _______ _______ _______ _____ _____    ______ ____
ROOT
ATOM      1  P   UNL     1       7.610   2.796  22.667  0.00  0.00    +0.331 P 
ATOM      2  O   UNL     1       8.083   3.218  24.061  0.00  0.00    -0.259 OA
ENDROOT
BRANCH   1   3
ATOM      3  O   UNL     1       8.971   2.772  21.758  0.00  0.00    -0.324 OA
ATOM      4  H   UNL     1       8.722   2.575  20.834  0.00  0.00    +0.220 HD
ENDBRANCH   1   3
BRANCH   1   5
ATOM      5  C   UNL     1       7.334   4.560  22.270  0.00  0.00    +0.128 C 
BRANCH   5   6
ATOM      6  C   UNL     1       7.689   5.449  23.467  0.00  0.00    +0.021 C 
BRANCH   6   7
ATOM      7  C   UNL     1       8.738   6.510  23.149  0.00  0.00    +0.096 C 
BRANCH   7  10
ATOM      8  N   UNL     1      10.711   5.090  23.098  0.00  0.00    -0.305 N 
ATOM      9  H   UNL     1      10.352   4.761  22.209  0.00  0.00    +0.149 HD
ATOM     10  C   UNL     1      10.087   6.133  23.729  0.00  0.00    +0.213 C 
ATOM     11  O   UNL     1      10.649   6.740  24.639  0.00  0.00    -0.276 OA
BRANCH   8  12
ATOM     12  C   UNL     1      12.011   4.595  23.535  0.00  0.00    +0.224 C 
BRANCH  12  13
ATOM     13  C   UNL     1      13.171   5.173  22.730  0.00  0.00    +0.322 C 
ATOM     14  O   UNL     1      13.037   5.675  21.621  0.00  0.00    -0.249 OA
BRANCH  13  15
ATOM     15  O   UNL     1      14.382   5.009  23.309  0.00  0.00    -0.480 OA
ATOM     16  H   UNL     1      15.100   4.843  22.652  0.00  0.00    +0.295 HD
ENDBRANCH  13  15
ENDBRANCH  12  13
ENDBRANCH   8  12
ENDBRANCH   7  10
ENDBRANCH   6   7
ENDBRANCH   5   6
ENDBRANCH   1   5
BRANCH   1  17
ATOM     17  O   UNL     1       7.871   1.127  23.043  0.00  0.00    -0.303 OA
BRANCH  17  18
ATOM     18  C   UNL     1       8.857   0.931  24.039  0.00  0.00    +0.205 C 
BRANCH  18  19
ATOM     19  C   UNL     1       8.927  -0.536  24.371  0.00  0.00    -0.021 A 
ATOM     20  C   UNL     1       9.509  -1.445  23.474  0.00  0.00    +0.012 A 
ATOM     21  C   UNL     1       9.605  -2.801  23.798  0.00  0.00    +0.084 A 
ATOM     22  C   UNL     1       9.114  -3.254  25.030  0.00  0.00    +0.273 A 
ATOM     23  C   UNL     1       8.514  -2.364  25.928  0.00  0.00    +0.084 A 
ATOM     24  C   UNL     1       8.423  -1.011  25.594  0.00  0.00    +0.012 A 
BRANCH  22  25
ATOM     25  N   UNL     1       9.245  -4.672  25.386  0.00  0.00    +0.080 N 
ATOM     26  O   UNL     1      10.346  -5.214  25.207  0.00  0.00    +0.041 OA
ATOM     27  O   UNL     1       8.248  -5.247  25.845  0.00  0.00    -0.576 OA
ENDBRANCH  22  25
ENDBRANCH  18  19
ENDBRANCH  17  18
ENDBRANCH   1  17
TORSDOF 12
ENDMDL
MODEL 5
REMARK VINA RESULT:      -6.1      1.698      3.228
REMARK  Name = 
REMARK  12 active torsions:
REMARK  status: ('A' for Active; 'I' for Inactive)
REMARK    1  A    between atoms: O_1  and  C_2
REMARK    2  A    between atoms: C_2  and  C_4
REMARK    3  A    between atoms: C_4  and  N_5
REMARK    4  A    between atoms: C_6  and  C_8
REMARK    5  A    between atoms: C_8  and  C_9
REMARK    6  A    between atoms: C_9  and  C_10
REMARK    7  A    between atoms: C_10  and  P_11
REMARK    8  A    between atoms: P_11  and  O_12
REMARK    9  A    between atoms: P_11  and  O_14
REMARK   10  A    between atoms: O_14  and  C_15
REMARK   11  A    between atoms: C_15  and  C_16
REMARK   12  A    between atoms: C_19  and  N_22
REMARK                            x       y       z     vdW  Elec       q    Type
REMARK                         _______ _______ _______ _____ _____    ______ ____
ROOT
ATOM      1  P   UNL     1       6.147  -3.137  22.483  0.00  0.00    +0.331 P 
ATOM      2  O   UNL     1       5.590  -3.345  21.072  0.00  0.00    -0.259 OA
ENDROOT
BRANCH   1   3
ATOM      3  O   UNL     1       7.129  -4.422  22.735  0.00  0.00    -0.324 OA
ATOM      4  H   UNL     1       7.572  -4.643  21.892  0.00  0.00    +0.220 HD
ENDBRANCH   1   3
BRANCH   1   5
ATOM      5  C   UNL     1       4.712  -4.060  23.143  0.00  0.00    +0.128 C 
BRANCH   5   6
ATOM      6  C   UNL     1       5.174  -5.287  23.936  0.00  0.00    +0.021 C 
BRANCH   6   7
ATOM      7  C   UNL     1       5.103  -5.099  25.448  0.00  0.00    +0.096 C 
BRANCH   7  10
ATOM      8  N   UNL     1       7.345  -4.242  25.841  0.00  0.00    -0.305 N 
ATOM      9  H   UNL     1       7.000  -3.381  25.433  0.00  0.00    +0.149 HD
ATOM     10  C   UNL     1       6.470  -5.268  26.083  0.00  0.00    +0.213 C 
ATOM     11  O   UNL     1       6.783  -6.194  26.828  0.00  0.00    -0.276 OA
BRANCH   8  12
ATOM     12  C   UNL     1       8.704  -4.251  26.370  0.00  0.00    +0.224 C 
BRANCH  12  13
ATOM     13  C   UNL     1       9.702  -4.934  25.440  0.00  0.00    +0.322 C 
ATOM     14  O   UNL     1      10.333  -4.338  24.576  0.00  0.00    -0.249 OA
BRANCH  13  15
ATOM     15  O   UNL     1       9.771  -6.275  25.592  0.00  0.00    -0.480 OA
ATOM     16  H   UNL     1      10.681  -6.630  25.441  0.00  0.00    +0.295 HD
ENDBRANCH  13  15
ENDBRANCH  12  13
ENDBRANCH   8  12
ENDBRANCH   7  10
ENDBRANCH   6   7
ENDBRANCH   5   6
ENDBRANCH   1   5
BRANCH   1  17
ATOM     17  O   UNL     1       7.504  -2.262  21.860  0.00  0.00    -0.303 OA
BRANCH  17  18
ATOM     18  C   UNL     1       8.610  -2.253  22.744  0.00  0.00    +0.205 C 
BRANCH  18  19
ATOM     19  C   UNL     1       9.089  -0.834  22.905  0.00  0.00    -0.021 A 
ATOM     20  C   UNL     1       9.065   0.056  21.821  0.00  0.00    +0.012 A 
ATOM     21  C   UNL     1       9.477   1.382  21.980  0.00  0.00    +0.084 A 
ATOM     22  C   UNL     1       9.918   1.824  23.235  0.00  0.00    +0.273 A 
ATOM     23  C   UNL     1       9.965   0.944  24.322  0.00  0.00    +0.084 A 
ATOM     24  C   UNL     1       9.551  -0.380  24.151  0.00  0.00    +0.012 A 
BRANCH  22  25
ATOM     25  N   UNL     1      10.318   3.225  23.412  0.00  0.00    +0.080 N 
ATOM     26  O   UNL     1       9.421   4.069  23.550  0.00  0.00    +0.041 OA
ATOM     27  O   UNL     1      11.530   3.483  23.413  0.00  0.00    -0.576 OA
ENDBRANCH  22  25
ENDBRANCH  18  19
ENDBRANCH  17  18
ENDBRANCH   1  17
TORSDOF 12
ENDMDL
MODEL 6
REMARK VINA RESULT:      -6.0      2.287      9.443
REMARK  Name = 
REMARK  12 active torsions:
REMARK  status: ('A' for Active; 'I' for Inactive)
REMARK    1  A    between atoms: O_1  and  C_2
REMARK    2  A    between atoms: C_2  and  C_4
REMARK    3  A    between atoms: C_4  and  N_5
REMARK    4  A    between atoms: C_6  and  C_8
REMARK    5  A    between atoms: C_8  and  C_9
REMARK    6  A    between atoms: C_9  and  C_10
REMARK    7  A    between atoms: C_10  and  P_11
REMARK    8  A    between atoms: P_11  and  O_12
REMARK    9  A    between atoms: P_11  and  O_14
REMARK   10  A    between atoms: O_14  and  C_15
REMARK   11  A    between atoms: C_15  and  C_16
REMARK   12  A    between atoms: C_19  and  N_22
REMARK                            x       y       z     vdW  Elec       q    Type
REMARK                         _______ _______ _______ _____ _____    ______ ____
ROOT
ATOM      1  P   UNL     1       9.419  -1.376  22.830  0.00  0.00    +0.331 P 
ATOM      2  O   UNL     1      10.176  -2.329  23.759  0.00  0.00    -0.259 OA
ENDROOT
BRANCH   1   3
ATOM      3  O   UNL     1      10.188  -1.504  21.390  0.00  0.00    -0.324 OA
ATOM      4  H   UNL     1       9.829  -2.280  20.916  0.00  0.00    +0.220 HD
ENDBRANCH   1   3
BRANCH   1   5
ATOM      5  C   UNL     1      10.548  -0.034  23.352  0.00  0.00    +0.128 C 
BRANCH   5   6
ATOM      6  C   UNL     1      10.006   1.332  22.917  0.00  0.00    +0.021 C 
BRANCH   6   7
ATOM      7  C   UNL     1       9.645   2.245  24.084  0.00  0.00    +0.096 C 
BRANCH   7  10
ATOM      8  N   UNL     1      11.343   3.947  23.718  0.00  0.00    -0.305 N 
ATOM      9  H   UNL     1      11.999   3.174  23.697  0.00  0.00    +0.149 HD
ATOM     10  C   UNL     1      10.000   3.687  23.776  0.00  0.00    +0.213 C 
ATOM     11  O   UNL     1       9.181   4.566  23.513  0.00  0.00    -0.276 OA
BRANCH   8  12
ATOM     12  C   UNL     1      11.855   5.284  23.442  0.00  0.00    +0.224 C 
BRANCH  12  13
ATOM     13  C   UNL     1      13.123   5.275  22.593  0.00  0.00    +0.322 C 
ATOM     14  O   UNL     1      13.116   5.359  21.371  0.00  0.00    -0.249 OA
BRANCH  13  15
ATOM     15  O   UNL     1      14.259   5.081  23.300  0.00  0.00    -0.480 OA
ATOM     16  H   UNL     1      14.575   5.903  23.748  0.00  0.00    +0.295 HD
ENDBRANCH  13  15
ENDBRANCH  12  13
ENDBRANCH   8  12
ENDBRANCH   7  10
ENDBRANCH   6   7
ENDBRANCH   5   6
ENDBRANCH   1   5
BRANCH   1  17
ATOM     17  O   UNL     1       8.350  -2.644  22.337  0.00  0.00    -0.303 OA
BRANCH  17  18
ATOM     18  C   UNL     1       6.998  -2.388  22.668  0.00  0.00    +0.205 C 
BRANCH  18  19
ATOM     19  C   UNL     1       6.443  -3.582  23.399  0.00  0.00    -0.021 A 
ATOM     20  C   UNL     1       6.401  -3.606  24.801  0.00  0.00    +0.012 A 
ATOM     21  C   UNL     1       5.854  -4.700  25.477  0.00  0.00    +0.084 A 
ATOM     22  C   UNL     1       5.345  -5.782  24.746  0.00  0.00    +0.273 A 
ATOM     23  C   UNL     1       5.397  -5.782  23.348  0.00  0.00    +0.084 A 
ATOM     24  C   UNL     1       5.946  -4.684  22.682  0.00  0.00    +0.012 A 
BRANCH  22  25
ATOM     25  N   UNL     1       4.739  -6.916  25.454  0.00  0.00    +0.080 N 
ATOM     26  O   UNL     1       3.946  -7.632  24.826  0.00  0.00    +0.041 OA
ATOM     27  O   UNL     1       5.055  -7.092  26.640  0.00  0.00    -0.576 OA
ENDBRANCH  22  25
ENDBRANCH  18  19
ENDBRANCH  17  18
ENDBRANCH   1  17
TORSDOF 12
ENDMDL
MODEL 7
REMARK VINA RESULT:      -6.0      2.786      9.304
REMARK  Name = 
REMARK  12 active torsions:
REMARK  status: ('A' for Active; 'I' for Inactive)
REMARK    1  A    between atoms: O_1  and  C_2
REMARK    2  A    between atoms: C_2  and  C_4
REMARK    3  A    between atoms: C_4  and  N_5
REMARK    4  A    between atoms: C_6  and  C_8
REMARK    5  A    between atoms: C_8  and  C_9
REMARK    6  A    between atoms: C_9  and  C_10
REMARK    7  A    between atoms: C_10  and  P_11
REMARK    8  A    between atoms: P_11  and  O_12
REMARK    9  A    between atoms: P_11  and  O_14
REMARK   10  A    between atoms: O_14  and  C_15
REMARK   11  A    between atoms: C_15  and  C_16
REMARK   12  A    between atoms: C_19  and  N_22
REMARK                            x       y       z     vdW  Elec       q    Type
REMARK                         _______ _______ _______ _____ _____    ______ ____
ROOT
ATOM      1  P   UNL     1       9.079  -0.498  22.513  0.00  0.00    +0.331 P 
ATOM      2  O   UNL     1       9.896  -0.595  23.804  0.00  0.00    -0.259 OA
ENDROOT
BRANCH   1   3
ATOM      3  O   UNL     1       9.889  -1.431  21.439  0.00  0.00    -0.324 OA
ATOM      4  H   UNL     1      10.633  -0.911  21.077  0.00  0.00    +0.220 HD
ENDBRANCH   1   3
BRANCH   1   5
ATOM      5  C   UNL     1      10.071   0.965  22.043  0.00  0.00    +0.128 C 
BRANCH   5   6
ATOM      6  C   UNL     1       9.254   2.251  22.204  0.00  0.00    +0.021 C 
BRANCH   6   7
ATOM      7  C   UNL     1       9.163   2.740  23.646  0.00  0.00    +0.096 C 
BRANCH   7  10
ATOM      8  N   UNL     1      11.134   4.145  23.416  0.00  0.00    -0.305 N 
ATOM      9  H   UNL     1      11.527   3.369  22.896  0.00  0.00    +0.149 HD
ATOM     10  C   UNL     1       9.821   4.096  23.804  0.00  0.00    +0.213 C 
ATOM     11  O   UNL     1       9.239   5.116  24.171  0.00  0.00    -0.276 OA
BRANCH   8  12
ATOM     12  C   UNL     1      11.918   5.371  23.512  0.00  0.00    +0.224 C 
BRANCH  12  13
ATOM     13  C   UNL     1      13.162   5.354  22.629  0.00  0.00    +0.322 C 
ATOM     14  O   UNL     1      13.136   5.568  21.424  0.00  0.00    -0.249 OA
BRANCH  13  15
ATOM     15  O   UNL     1      14.294   4.997  23.277  0.00  0.00    -0.480 OA
ATOM     16  H   UNL     1      14.411   4.017  23.329  0.00  0.00    +0.295 HD
ENDBRANCH  13  15
ENDBRANCH  12  13
ENDBRANCH   8  12
ENDBRANCH   7  10
ENDBRANCH   6   7
ENDBRANCH   5   6
ENDBRANCH   1   5
BRANCH   1  17
ATOM     17  O   UNL     1       8.139  -1.881  22.958  0.00  0.00    -0.303 OA
BRANCH  17  18
ATOM     18  C   UNL     1       8.932  -3.009  23.279  0.00  0.00    +0.205 C 
BRANCH  18  19
ATOM     19  C   UNL     1       8.240  -3.795  24.361  0.00  0.00    -0.021 A 
ATOM     20  C   UNL     1       7.289  -4.774  24.036  0.00  0.00    +0.012 A 
ATOM     21  C   UNL     1       6.673  -5.528  25.039  0.00  0.00    +0.084 A 
ATOM     22  C   UNL     1       7.011  -5.302  26.380  0.00  0.00    +0.273 A 
ATOM     23  C   UNL     1       7.944  -4.316  26.723  0.00  0.00    +0.084 A 
ATOM     24  C   UNL     1       8.553  -3.568  25.712  0.00  0.00    +0.012 A 
BRANCH  22  25
ATOM     25  N   UNL     1       6.390  -6.116  27.432  0.00  0.00    +0.080 N 
ATOM     26  O   UNL     1       6.967  -6.183  28.527  0.00  0.00    +0.041 OA
ATOM     27  O   UNL     1       5.324  -6.689  27.165  0.00  0.00    -0.576 OA
ENDBRANCH  22  25
ENDBRANCH  18  19
ENDBRANCH  17  18
ENDBRANCH   1  17
TORSDOF 12
ENDMDL
MODEL 8
REMARK VINA RESULT:      -5.8      2.115      3.578
REMARK  Name = 
REMARK  12 active torsions:
REMARK  status: ('A' for Active; 'I' for Inactive)
REMARK    1  A    between atoms: O_1  and  C_2
REMARK    2  A    between atoms: C_2  and  C_4
REMARK    3  A    between atoms: C_4  and  N_5
REMARK    4  A    between atoms: C_6  and  C_8
REMARK    5  A    between atoms: C_8  and  C_9
REMARK    6  A    between atoms: C_9  and  C_10
REMARK    7  A    between atoms: C_10  and  P_11
REMARK    8  A    between atoms: P_11  and  O_12
REMARK    9  A    between atoms: P_11  and  O_14
REMARK   10  A    between atoms: O_14  and  C_15
REMARK   11  A    between atoms: C_15  and  C_16
REMARK   12  A    between atoms: C_19  and  N_22
REMARK                            x       y       z     vdW  Elec       q    Type
REMARK                         _______ _______ _______ _____ _____    ______ ____
ROOT
ATOM      1  P   UNL     1       9.030  -1.774  23.235  0.00  0.00    +0.331 P 
ATOM      2  O   UNL     1       9.726  -1.332  21.945  0.00  0.00    -0.259 OA
ENDROOT
BRANCH   1   3
ATOM      3  O   UNL     1       9.942  -3.013  23.795  0.00  0.00    -0.324 OA
ATOM      4  H   UNL     1      10.397  -2.719  24.608  0.00  0.00    +0.220 HD
ENDBRANCH   1   3
BRANCH   1   5
ATOM      5  C   UNL     1       8.011  -2.925  22.244  0.00  0.00    +0.128 C 
BRANCH   5   6
ATOM      6  C   UNL     1       6.529  -2.788  22.606  0.00  0.00    +0.021 C 
BRANCH   6   7
ATOM      7  C   UNL     1       5.703  -4.029  22.280  0.00  0.00    +0.096 C 
BRANCH   7  10
ATOM      8  N   UNL     1       6.240  -4.540  24.596  0.00  0.00    -0.305 N 
ATOM      9  H   UNL     1       6.345  -3.538  24.709  0.00  0.00    +0.149 HD
ATOM     10  C   UNL     1       5.764  -5.036  23.411  0.00  0.00    +0.213 C 
ATOM     11  O   UNL     1       5.354  -6.193  23.338  0.00  0.00    -0.276 OA
BRANCH   8  12
ATOM     12  C   UNL     1       6.371  -5.378  25.782  0.00  0.00    +0.224 C 
BRANCH  12  13
ATOM     13  C   UNL     1       7.770  -5.338  26.389  0.00  0.00    +0.322 C 
ATOM     14  O   UNL     1       8.750  -4.906  25.795  0.00  0.00    -0.249 OA
BRANCH  13  15
ATOM     15  O   UNL     1       7.857  -5.902  27.615  0.00  0.00    -0.480 OA
ATOM     16  H   UNL     1       6.999  -5.884  28.104  0.00  0.00    +0.295 HD
ENDBRANCH  13  15
ENDBRANCH  12  13
ENDBRANCH   8  12
ENDBRANCH   7  10
ENDBRANCH   6   7
ENDBRANCH   5   6
ENDBRANCH   1   5
BRANCH   1  17
ATOM     17  O   UNL     1       9.992  -0.683  24.173  0.00  0.00    -0.303 OA
BRANCH  17  18
ATOM     18  C   UNL     1       9.219   0.161  25.007  0.00  0.00    +0.205 C 
BRANCH  18  19
ATOM     19  C   UNL     1       9.447   1.591  24.593  0.00  0.00    -0.021 A 
ATOM     20  C   UNL     1       8.543   2.596  24.968  0.00  0.00    +0.012 A 
ATOM     21  C   UNL     1       8.774   3.928  24.613  0.00  0.00    +0.084 A 
ATOM     22  C   UNL     1       9.919   4.260  23.877  0.00  0.00    +0.273 A 
ATOM     23  C   UNL     1      10.821   3.266  23.479  0.00  0.00    +0.084 A 
ATOM     24  C   UNL     1      10.580   1.938  23.838  0.00  0.00    +0.012 A 
BRANCH  22  25
ATOM     25  N   UNL     1      10.180   5.663  23.533  0.00  0.00    +0.080 N 
ATOM     26  O   UNL     1      11.356   6.054  23.556  0.00  0.00    +0.041 OA
ATOM     27  O   UNL     1       9.210   6.376  23.240  0.00  0.00    -0.576 OA
ENDBRANCH  22  25
ENDBRANCH  18  19
ENDBRANCH  17  18
ENDBRANCH   1  17
TORSDOF 12
ENDMDL
MODEL 9
REMARK VINA RESULT:      -5.7      1.741      2.194
REMARK  Name = 
REMARK  12 active torsions:
REMARK  status: ('A' for Active; 'I' for Inactive)
REMARK    1  A    between atoms: O_1  and  C_2
REMARK    2  A    between atoms: C_2  and  C_4
REMARK    3  A    between atoms: C_4  and  N_5
REMARK    4  A    between atoms: C_6  and  C_8
REMARK    5  A    between atoms: C_8  and  C_9
REMARK    6  A    between atoms: C_9  and  C_10
REMARK    7  A    between atoms: C_10  and  P_11
REMARK    8  A    between atoms: P_11  and  O_12
REMARK    9  A    between atoms: P_11  and  O_14
REMARK   10  A    between atoms: O_14  and  C_15
REMARK   11  A    between atoms: C_15  and  C_16
REMARK   12  A    between atoms: C_19  and  N_22
REMARK                            x       y       z     vdW  Elec       q    Type
REMARK                         _______ _______ _______ _____ _____    ______ ____
ROOT
ATOM      1  P   UNL     1       7.597  -4.573  26.688  0.00  0.00    +0.331 P 
ATOM      2  O   UNL     1       6.806  -4.399  25.388  0.00  0.00    -0.259 OA
ENDROOT
BRANCH   1   3
ATOM      3  O   UNL     1       8.579  -5.852  26.405  0.00  0.00    -0.324 OA
ATOM      4  H   UNL     1       8.375  -6.209  25.519  0.00  0.00    +0.220 HD
ENDBRANCH   1   3
BRANCH   1   5
ATOM      5  C   UNL     1       6.274  -5.679  27.298  0.00  0.00    +0.128 C 
BRANCH   5   6
ATOM      6  C   UNL     1       4.898  -5.183  26.844  0.00  0.00    +0.021 C 
BRANCH   6   7
ATOM      7  C   UNL     1       3.935  -6.306  26.472  0.00  0.00    +0.096 C 
BRANCH   7  10
ATOM      8  N   UNL     1       4.422  -5.624  24.189  0.00  0.00    -0.305 N 
ATOM      9  H   UNL     1       4.759  -4.763  24.604  0.00  0.00    +0.149 HD
ATOM     10  C   UNL     1       4.056  -6.663  25.004  0.00  0.00    +0.213 C 
ATOM     11  O   UNL     1       3.924  -7.798  24.548  0.00  0.00    -0.276 OA
BRANCH   8  12
ATOM     12  C   UNL     1       4.574  -5.794  22.749  0.00  0.00    +0.224 C 
BRANCH  12  13
ATOM     13  C   UNL     1       5.764  -5.029  22.180  0.00  0.00    +0.322 C 
ATOM     14  O   UNL     1       5.653  -4.108  21.380  0.00  0.00    -0.249 OA
BRANCH  13  15
ATOM     15  O   UNL     1       6.967  -5.509  22.570  0.00  0.00    -0.480 OA
ATOM     16  H   UNL     1       7.683  -5.319  21.916  0.00  0.00    +0.295 HD
ENDBRANCH  13  15
ENDBRANCH  12  13
ENDBRANCH   8  12
ENDBRANCH   7  10
ENDBRANCH   6   7
ENDBRANCH   5   6
ENDBRANCH   1   5
BRANCH   1  17
ATOM     17  O   UNL     1       8.848  -3.526  26.111  0.00  0.00    -0.303 OA
BRANCH  17  18
ATOM     18  C   UNL     1       9.215  -3.789  24.769  0.00  0.00    +0.205 C 
BRANCH  18  19
ATOM     19  C   UNL     1       9.238  -2.489  24.009  0.00  0.00    -0.021 A 
ATOM     20  C   UNL     1       9.782  -1.332  24.587  0.00  0.00    +0.012 A 
ATOM     21  C   UNL     1       9.834  -0.135  23.867  0.00  0.00    +0.084 A 
ATOM     22  C   UNL     1       9.337  -0.092  22.558  0.00  0.00    +0.273 A 
ATOM     23  C   UNL     1       8.774  -1.232  21.974  0.00  0.00    +0.084 A 
ATOM     24  C   UNL     1       8.726  -2.424  22.702  0.00  0.00    +0.012 A 
BRANCH  22  25
ATOM     25  N   UNL     1       9.423   1.155  21.790  0.00  0.00    +0.080 N 
ATOM     26  O   UNL     1      10.350   1.935  22.055  0.00  0.00    +0.041 OA
ATOM     27  O   UNL     1       8.564   1.358  20.920  0.00  0.00    -0.576 OA
ENDBRANCH  22  25
ENDBRANCH  18  19
ENDBRANCH  17  18
ENDBRANCH   1  17
TORSDOF 12
ENDMDL
