MODEL 1
REMARK VINA RESULT:      -6.4      0.000      0.000
REMARK  Name = 
REMARK  7 active torsions:
REMARK  status: ('A' for Active; 'I' for Inactive)
REMARK    1  A    between atoms: O_1  and  P_2
REMARK    2  A    between atoms: P_2  and  O_4
REMARK    3  A    between atoms: P_2  and  O_12
REMARK    4  A    between atoms: O_4  and  C_5
REMARK    5  A    between atoms: C_5  and  C_6
REMARK    6  A    between atoms: O_12  and  C_13
REMARK    7  A    between atoms: C_14  and  C_15
REMARK                            x       y       z     vdW  Elec       q    Type
REMARK                         _______ _______ _______ _____ _____    ______ ____
ROOT
ATOM      1  P   UNL     1       8.820  -4.868  25.174  0.00  0.00    +0.531 P 
ATOM      2  O   UNL     1       9.257  -4.141  26.447  0.00  0.00    -0.215 OA
ENDROOT
BRANCH   1   3
ATOM      3  O   UNL     1      10.442  -5.451  25.035  0.00  0.00    -0.293 OA
ATOM      4  H   UNL     1      10.631  -5.299  24.085  0.00  0.00    +0.223 HD
ENDBRANCH   1   3
BRANCH   1   5
ATOM      5  O   UNL     1       7.196  -4.285  25.314  0.00  0.00    -0.403 OA
BRANCH   5   6
ATOM      6  C   UNL     1       6.218  -5.260  25.234  0.00  0.00    +0.142 A 
ATOM      7  C   UNL     1       5.700  -5.653  23.989  0.00  0.00    +0.047 A 
ATOM      8  C   UNL     1       4.662  -6.586  23.907  0.00  0.00    +0.004 A 
ATOM      9  C   UNL     1       4.148  -7.161  25.065  0.00  0.00    +0.001 A 
ATOM     10  C   UNL     1       4.674  -6.801  26.305  0.00  0.00    +0.015 A 
ATOM     11  C   UNL     1       5.706  -5.852  26.395  0.00  0.00    +0.056 A 
BRANCH  11  12
ATOM     12  C   UNL     1       6.199  -5.484  27.743  0.00  0.00    +0.262 C 
ATOM     13  O   UNL     1       7.120  -6.086  28.280  0.00  0.00    -0.296 OA
ENDBRANCH  11  12
ENDBRANCH   5   6
ENDBRANCH   1   5
BRANCH   1  14
ATOM     14  O   UNL     1       9.082  -3.856  23.906  0.00  0.00    -0.277 OA
BRANCH  14  15
ATOM     15  C   UNL     1       9.749  -2.615  24.091  0.00  0.00    +0.177 C 
BRANCH  15  16
ATOM     16  C   UNL     1       8.820  -1.389  24.072  0.00  0.00    +0.015 C 
ATOM     17  C   UNL     1       8.263  -1.145  22.658  0.00  0.00    +0.006 C 
ATOM     18  C   UNL     1       9.317  -0.614  21.686  0.00  0.00    +0.000 C 
ATOM     19  C   UNL     1      10.020   0.628  22.228  0.00  0.00    +0.000 C 
ATOM     20  C   UNL     1      10.574   0.411  23.632  0.00  0.00    +0.000 C 
ATOM     21  C   UNL     1       9.505  -0.116  24.586  0.00  0.00    +0.006 C 
ENDBRANCH  15  16
ENDBRANCH  14  15
ENDBRANCH   1  14
TORSDOF 7
ENDMDL
MODEL 2
REMARK VINA RESULT:      -6.4      1.033      2.259
REMARK  Name = 
REMARK  7 active torsions:
REMARK  status: ('A' for Active; 'I' for Inactive)
REMARK    1  A    between atoms: O_1  and  P_2
REMARK    2  A    between atoms: P_2  and  O_4
REMARK    3  A    between atoms: P_2  and  O_12
REMARK    4  A    between atoms: O_4  and  C_5
REMARK    5  A    between atoms: C_5  and  C_6
REMARK    6  A    between atoms: O_12  and  C_13
REMARK    7  A    between atoms: C_14  and  C_15
REMARK                            x       y       z     vdW  Elec       q    Type
REMARK                         _______ _______ _______ _____ _____    ______ ____
ROOT
ATOM      1  P   UNL     1       8.715  -4.919  25.249  0.00  0.00    +0.531 P 
ATOM      2  O   UNL     1       9.080  -4.144  26.516  0.00  0.00    -0.215 OA
ENDROOT
BRANCH   1   3
ATOM      3  O   UNL     1      10.290  -5.632  25.318  0.00  0.00    -0.293 OA
ATOM      4  H   UNL     1      10.800  -4.951  25.806  0.00  0.00    +0.223 HD
ENDBRANCH   1   3
BRANCH   1   5
ATOM      5  O   UNL     1       7.139  -4.207  25.180  0.00  0.00    -0.403 OA
BRANCH   5   6
ATOM      6  C   UNL     1       6.104  -5.100  24.969  0.00  0.00    +0.142 A 
ATOM      7  C   UNL     1       5.662  -5.941  26.003  0.00  0.00    +0.047 A 
ATOM      8  C   UNL     1       4.664  -6.893  25.775  0.00  0.00    +0.004 A 
ATOM      9  C   UNL     1       4.074  -6.998  24.520  0.00  0.00    +0.001 A 
ATOM     10  C   UNL     1       4.483  -6.149  23.492  0.00  0.00    +0.015 A 
ATOM     11  C   UNL     1       5.496  -5.201  23.711  0.00  0.00    +0.056 A 
BRANCH  11  12
ATOM     12  C   UNL     1       5.913  -4.350  22.572  0.00  0.00    +0.262 C 
ATOM     13  O   UNL     1       5.142  -3.564  22.037  0.00  0.00    -0.296 OA
ENDBRANCH  11  12
ENDBRANCH   5   6
ENDBRANCH   1   5
BRANCH   1  14
ATOM     14  O   UNL     1       9.187  -4.018  23.959  0.00  0.00    -0.277 OA
BRANCH  14  15
ATOM     15  C   UNL     1       9.824  -2.761  24.143  0.00  0.00    +0.177 C 
BRANCH  15  16
ATOM     16  C   UNL     1       8.870  -1.556  24.094  0.00  0.00    +0.015 C 
ATOM     17  C   UNL     1       8.308  -1.359  22.674  0.00  0.00    +0.006 C 
ATOM     18  C   UNL     1       9.351  -0.830  21.688  0.00  0.00    +0.000 C 
ATOM     19  C   UNL     1      10.027   0.439  22.199  0.00  0.00    +0.000 C 
ATOM     20  C   UNL     1      10.586   0.268  23.608  0.00  0.00    +0.000 C 
ATOM     21  C   UNL     1       9.529  -0.256  24.575  0.00  0.00    +0.006 C 
ENDBRANCH  15  16
ENDBRANCH  14  15
ENDBRANCH   1  14
TORSDOF 7
ENDMDL
MODEL 3
REMARK VINA RESULT:      -6.3      1.535      2.453
REMARK  Name = 
REMARK  7 active torsions:
REMARK  status: ('A' for Active; 'I' for Inactive)
REMARK    1  A    between atoms: O_1  and  P_2
REMARK    2  A    between atoms: P_2  and  O_4
REMARK    3  A    between atoms: P_2  and  O_12
REMARK    4  A    between atoms: O_4  and  C_5
REMARK    5  A    between atoms: C_5  and  C_6
REMARK    6  A    between atoms: O_12  and  C_13
REMARK    7  A    between atoms: C_14  and  C_15
REMARK                            x       y       z     vdW  Elec       q    Type
REMARK                         _______ _______ _______ _____ _____    ______ ____
ROOT
ATOM      1  P   UNL     1       6.884  -2.885  23.616  0.00  0.00    +0.531 P 
ATOM      2  O   UNL     1       7.499  -3.158  22.242  0.00  0.00    -0.215 OA
ENDROOT
BRANCH   1   3
ATOM      3  O   UNL     1       6.363  -1.356  22.999  0.00  0.00    -0.293 OA
ATOM      4  H   UNL     1       5.409  -1.360  23.226  0.00  0.00    +0.223 HD
ENDBRANCH   1   3
BRANCH   1   5
ATOM      5  O   UNL     1       7.405  -4.416  24.232  0.00  0.00    -0.403 OA
BRANCH   5   6
ATOM      6  C   UNL     1       6.385  -5.284  24.578  0.00  0.00    +0.142 A 
ATOM      7  C   UNL     1       5.505  -5.779  23.602  0.00  0.00    +0.047 A 
ATOM      8  C   UNL     1       4.431  -6.600  23.956  0.00  0.00    +0.004 A 
ATOM      9  C   UNL     1       4.238  -6.962  25.284  0.00  0.00    +0.001 A 
ATOM     10  C   UNL     1       5.121  -6.502  26.260  0.00  0.00    +0.015 A 
ATOM     11  C   UNL     1       6.194  -5.664  25.913  0.00  0.00    +0.056 A 
BRANCH  11  12
ATOM     12  C   UNL     1       7.079  -5.178  26.997  0.00  0.00    +0.262 C 
ATOM     13  O   UNL     1       7.392  -5.890  27.943  0.00  0.00    -0.296 OA
ENDBRANCH  11  12
ENDBRANCH   5   6
ENDBRANCH   1   5
BRANCH   1  14
ATOM     14  O   UNL     1       8.019  -2.124  24.528  0.00  0.00    -0.277 OA
BRANCH  14  15
ATOM     15  C   UNL     1       8.451  -0.809  24.204  0.00  0.00    +0.177 C 
BRANCH  15  16
ATOM     16  C   UNL     1       9.883  -0.736  23.647  0.00  0.00    +0.015 C 
ATOM     17  C   UNL     1      10.644   0.462  24.245  0.00  0.00    +0.006 C 
ATOM     18  C   UNL     1      10.151   1.808  23.712  0.00  0.00    +0.000 C 
ATOM     19  C   UNL     1      10.154   1.854  22.187  0.00  0.00    +0.000 C 
ATOM     20  C   UNL     1       9.411   0.672  21.572  0.00  0.00    +0.000 C 
ATOM     21  C   UNL     1       9.921  -0.660  22.115  0.00  0.00    +0.006 C 
ENDBRANCH  15  16
ENDBRANCH  14  15
ENDBRANCH   1  14
TORSDOF 7
ENDMDL
MODEL 4
REMARK VINA RESULT:      -6.2      1.915      2.668
REMARK  Name = 
REMARK  7 active torsions:
REMARK  status: ('A' for Active; 'I' for Inactive)
REMARK    1  A    between atoms: O_1  and  P_2
REMARK    2  A    between atoms: P_2  and  O_4
REMARK    3  A    between atoms: P_2  and  O_12
REMARK    4  A    between atoms: O_4  and  C_5
REMARK    5  A    between atoms: C_5  and  C_6
REMARK    6  A    between atoms: O_12  and  C_13
REMARK    7  A    between atoms: C_14  and  C_15
REMARK                            x       y       z     vdW  Elec       q    Type
REMARK                         _______ _______ _______ _____ _____    ______ ____
ROOT
ATOM      1  P   UNL     1       9.202  -2.472  23.600  0.00  0.00    +0.531 P 
ATOM      2  O   UNL     1      10.177  -3.524  24.131  0.00  0.00    -0.215 OA
ENDROOT
BRANCH   1   3
ATOM      3  O   UNL     1      10.533  -1.772  22.746  0.00  0.00    -0.293 OA
ATOM      4  H   UNL     1      11.277  -1.933  23.364  0.00  0.00    +0.223 HD
ENDBRANCH   1   3
BRANCH   1   5
ATOM      5  O   UNL     1       7.869  -3.174  24.453  0.00  0.00    -0.403 OA
BRANCH   5   6
ATOM      6  C   UNL     1       7.117  -4.075  23.721  0.00  0.00    +0.142 A 
ATOM      7  C   UNL     1       7.051  -3.982  22.321  0.00  0.00    +0.047 A 
ATOM      8  C   UNL     1       6.238  -4.846  21.583  0.00  0.00    +0.004 A 
ATOM      9  C   UNL     1       5.503  -5.834  22.229  0.00  0.00    +0.001 A 
ATOM     10  C   UNL     1       5.582  -5.956  23.616  0.00  0.00    +0.015 A 
ATOM     11  C   UNL     1       6.385  -5.080  24.365  0.00  0.00    +0.056 A 
BRANCH  11  12
ATOM     12  C   UNL     1       6.402  -5.237  25.838  0.00  0.00    +0.262 C 
ATOM     13  O   UNL     1       7.305  -5.829  26.415  0.00  0.00    -0.296 OA
ENDBRANCH  11  12
ENDBRANCH   5   6
ENDBRANCH   1   5
BRANCH   1  14
ATOM     14  O   UNL     1       9.214  -1.205  24.646  0.00  0.00    -0.277 OA
BRANCH  14  15
ATOM     15  C   UNL     1      10.191  -0.179  24.535  0.00  0.00    +0.177 C 
BRANCH  15  16
ATOM     16  C   UNL     1       9.613   1.246  24.545  0.00  0.00    +0.015 C 
ATOM     17  C   UNL     1       8.117   1.235  24.183  0.00  0.00    +0.006 C 
ATOM     18  C   UNL     1       7.864   0.926  22.706  0.00  0.00    +0.000 C 
ATOM     19  C   UNL     1       8.652   1.854  21.786  0.00  0.00    +0.000 C 
ATOM     20  C   UNL     1      10.137   1.886  22.131  0.00  0.00    +0.000 C 
ATOM     21  C   UNL     1      10.366   2.200  23.607  0.00  0.00    +0.006 C 
ENDBRANCH  15  16
ENDBRANCH  14  15
ENDBRANCH   1  14
TORSDOF 7
ENDMDL
MODEL 5
REMARK VINA RESULT:      -6.2      2.523      3.620
REMARK  Name = 
REMARK  7 active torsions:
REMARK  status: ('A' for Active; 'I' for Inactive)
REMARK    1  A    between atoms: O_1  and  P_2
REMARK    2  A    between atoms: P_2  and  O_4
REMARK    3  A    between atoms: P_2  and  O_12
REMARK    4  A    between atoms: O_4  and  C_5
REMARK    5  A    between atoms: C_5  and  C_6
REMARK    6  A    between atoms: O_12  and  C_13
REMARK    7  A    between atoms: C_14  and  C_15
REMARK                            x       y       z     vdW  Elec       q    Type
REMARK                         _______ _______ _______ _____ _____    ______ ____
ROOT
ATOM      1  P   UNL     1       9.195  -1.929  22.776  0.00  0.00    +0.531 P 
ATOM      2  O   UNL     1      10.359  -2.691  23.411  0.00  0.00    -0.215 OA
ENDROOT
BRANCH   1   3
ATOM      3  O   UNL     1      10.267  -1.509  21.485  0.00  0.00    -0.293 OA
ATOM      4  H   UNL     1       9.745  -1.768  20.696  0.00  0.00    +0.223 HD
ENDBRANCH   1   3
BRANCH   1   5
ATOM      5  O   UNL     1       8.122  -2.349  24.068  0.00  0.00    -0.403 OA
BRANCH   5   6
ATOM      6  C   UNL     1       7.138  -3.263  23.735  0.00  0.00    +0.142 A 
ATOM      7  C   UNL     1       6.026  -2.871  22.971  0.00  0.00    +0.047 A 
ATOM      8  C   UNL     1       4.996  -3.773  22.692  0.00  0.00    +0.004 A 
ATOM      9  C   UNL     1       5.074  -5.085  23.145  0.00  0.00    +0.001 A 
ATOM     10  C   UNL     1       6.187  -5.495  23.880  0.00  0.00    +0.015 A 
ATOM     11  C   UNL     1       7.218  -4.589  24.178  0.00  0.00    +0.056 A 
BRANCH  11  12
ATOM     12  C   UNL     1       8.358  -5.074  24.991  0.00  0.00    +0.262 C 
ATOM     13  O   UNL     1       9.319  -5.639  24.485  0.00  0.00    -0.296 OA
ENDBRANCH  11  12
ENDBRANCH   5   6
ENDBRANCH   1   5
BRANCH   1  14
ATOM     14  O   UNL     1       9.256  -0.380  23.321  0.00  0.00    -0.277 OA
BRANCH  14  15
ATOM     15  C   UNL     1       8.234   0.550  22.987  0.00  0.00    +0.177 C 
BRANCH  15  16
ATOM     16  C   UNL     1       8.691   1.676  22.043  0.00  0.00    +0.015 C 
ATOM     17  C   UNL     1      10.193   1.963  22.218  0.00  0.00    +0.006 C 
ATOM     18  C   UNL     1      10.517   2.662  23.539  0.00  0.00    +0.000 C 
ATOM     19  C   UNL     1       9.684   3.926  23.735  0.00  0.00    +0.000 C 
ATOM     20  C   UNL     1       8.192   3.667  23.560  0.00  0.00    +0.000 C 
ATOM     21  C   UNL     1       7.891   2.972  22.235  0.00  0.00    +0.006 C 
ENDBRANCH  15  16
ENDBRANCH  14  15
ENDBRANCH   1  14
TORSDOF 7
ENDMDL
MODEL 6
REMARK VINA RESULT:      -6.1      1.144      1.845
REMARK  Name = 
REMARK  7 active torsions:
REMARK  status: ('A' for Active; 'I' for Inactive)
REMARK    1  A    between atoms: O_1  and  P_2
REMARK    2  A    between atoms: P_2  and  O_4
REMARK    3  A    between atoms: P_2  and  O_12
REMARK    4  A    between atoms: O_4  and  C_5
REMARK    5  A    between atoms: C_5  and  C_6
REMARK    6  A    between atoms: O_12  and  C_13
REMARK    7  A    between atoms: C_14  and  C_15
REMARK                            x       y       z     vdW  Elec       q    Type
REMARK                         _______ _______ _______ _____ _____    ______ ____
ROOT
ATOM      1  P   UNL     1       9.068  -4.750  25.215  0.00  0.00    +0.531 P 
ATOM      2  O   UNL     1       9.085  -4.316  26.681  0.00  0.00    -0.215 OA
ENDROOT
BRANCH   1   3
ATOM      3  O   UNL     1      10.595  -5.512  25.496  0.00  0.00    -0.293 OA
ATOM      4  H   UNL     1      11.225  -4.814  25.216  0.00  0.00    +0.223 HD
ENDBRANCH   1   3
BRANCH   1   5
ATOM      5  O   UNL     1       7.540  -3.988  24.933  0.00  0.00    -0.403 OA
BRANCH   5   6
ATOM      6  C   UNL     1       6.663  -4.713  24.145  0.00  0.00    +0.142 A 
ATOM      7  C   UNL     1       6.775  -4.691  22.745  0.00  0.00    +0.047 A 
ATOM      8  C   UNL     1       5.849  -5.364  21.942  0.00  0.00    +0.004 A 
ATOM      9  C   UNL     1       4.819  -6.092  22.526  0.00  0.00    +0.001 A 
ATOM     10  C   UNL     1       4.714  -6.147  23.916  0.00  0.00    +0.015 A 
ATOM     11  C   UNL     1       5.631  -5.459  24.728  0.00  0.00    +0.056 A 
BRANCH  11  12
ATOM     12  C   UNL     1       5.449  -5.526  26.196  0.00  0.00    +0.262 C 
ATOM     13  O   UNL     1       6.081  -6.312  26.891  0.00  0.00    -0.296 OA
ENDBRANCH  11  12
ENDBRANCH   5   6
ENDBRANCH   1   5
BRANCH   1  14
ATOM     14  O   UNL     1       9.820  -3.580  24.339  0.00  0.00    -0.277 OA
BRANCH  14  15
ATOM     15  C   UNL     1       9.228  -2.298  24.177  0.00  0.00    +0.177 C 
BRANCH  15  16
ATOM     16  C   UNL     1      10.223  -1.186  23.805  0.00  0.00    +0.015 C 
ATOM     17  C   UNL     1       9.760   0.173  24.362  0.00  0.00    +0.006 C 
ATOM     18  C   UNL     1       8.543   0.736  23.625  0.00  0.00    +0.000 C 
ATOM     19  C   UNL     1       8.769   0.801  22.117  0.00  0.00    +0.000 C 
ATOM     20  C   UNL     1       9.235  -0.534  21.544  0.00  0.00    +0.000 C 
ATOM     21  C   UNL     1      10.451  -1.075  22.291  0.00  0.00    +0.006 C 
ENDBRANCH  15  16
ENDBRANCH  14  15
ENDBRANCH   1  14
TORSDOF 7
ENDMDL
MODEL 7
REMARK VINA RESULT:      -6.1      1.953      3.330
REMARK  Name = 
REMARK  7 active torsions:
REMARK  status: ('A' for Active; 'I' for Inactive)
REMARK    1  A    between atoms: O_1  and  P_2
REMARK    2  A    between atoms: P_2  and  O_4
REMARK    3  A    between atoms: P_2  and  O_12
REMARK    4  A    between atoms: O_4  and  C_5
REMARK    5  A    between atoms: C_5  and  C_6
REMARK    6  A    between atoms: O_12  and  C_13
REMARK    7  A    between atoms: C_14  and  C_15
REMARK                            x       y       z     vdW  Elec       q    Type
REMARK                         _______ _______ _______ _____ _____    ______ ____
ROOT
ATOM      1  P   UNL     1       6.305  -3.814  22.682  0.00  0.00    +0.531 P 
ATOM      2  O   UNL     1       5.872  -4.668  21.489  0.00  0.00    -0.215 OA
ENDROOT
BRANCH   1   3
ATOM      3  O   UNL     1       5.430  -2.503  21.970  0.00  0.00    -0.293 OA
ATOM      4  H   UNL     1       4.887  -2.189  22.724  0.00  0.00    +0.223 HD
ENDBRANCH   1   3
BRANCH   1   5
ATOM      5  O   UNL     1       7.180  -5.126  23.395  0.00  0.00    -0.403 OA
BRANCH   5   6
ATOM      6  C   UNL     1       6.967  -5.302  24.751  0.00  0.00    +0.142 A 
ATOM      7  C   UNL     1       5.757  -5.837  25.221  0.00  0.00    +0.047 A 
ATOM      8  C   UNL     1       5.509  -5.951  26.592  0.00  0.00    +0.004 A 
ATOM      9  C   UNL     1       6.477  -5.560  27.511  0.00  0.00    +0.001 A 
ATOM     10  C   UNL     1       7.695  -5.054  27.056  0.00  0.00    +0.015 A 
ATOM     11  C   UNL     1       7.943  -4.922  25.680  0.00  0.00    +0.056 A 
BRANCH  11  12
ATOM     12  C   UNL     1       9.242  -4.346  25.259  0.00  0.00    +0.262 C 
ATOM     13  O   UNL     1      10.179  -5.052  24.911  0.00  0.00    -0.296 OA
ENDBRANCH  11  12
ENDBRANCH   5   6
ENDBRANCH   1   5
BRANCH   1  14
ATOM     14  O   UNL     1       7.719  -3.078  22.283  0.00  0.00    -0.277 OA
BRANCH  14  15
ATOM     15  C   UNL     1       8.059  -1.811  22.829  0.00  0.00    +0.177 C 
BRANCH  15  16
ATOM     16  C   UNL     1       9.558  -1.475  22.759  0.00  0.00    +0.015 C 
ATOM     17  C   UNL     1      10.046  -0.863  24.085  0.00  0.00    +0.006 C 
ATOM     18  C   UNL     1       9.531   0.559  24.310  0.00  0.00    +0.000 C 
ATOM     19  C   UNL     1       9.843   1.473  23.129  0.00  0.00    +0.000 C 
ATOM     20  C   UNL     1       9.374   0.884  21.803  0.00  0.00    +0.000 C 
ATOM     21  C   UNL     1       9.902  -0.533  21.597  0.00  0.00    +0.006 C 
ENDBRANCH  15  16
ENDBRANCH  14  15
ENDBRANCH   1  14
TORSDOF 7
ENDMDL
MODEL 8
REMARK VINA RESULT:      -5.8      3.265      4.191
REMARK  Name = 
REMARK  7 active torsions:
REMARK  status: ('A' for Active; 'I' for Inactive)
REMARK    1  A    between atoms: O_1  and  P_2
REMARK    2  A    between atoms: P_2  and  O_4
REMARK    3  A    between atoms: P_2  and  O_12
REMARK    4  A    between atoms: O_4  and  C_5
REMARK    5  A    between atoms: C_5  and  C_6
REMARK    6  A    between atoms: O_12  and  C_13
REMARK    7  A    between atoms: C_14  and  C_15
REMARK                            x       y       z     vdW  Elec       q    Type
REMARK                         _______ _______ _______ _____ _____    ______ ____
ROOT
ATOM      1  P   UNL     1       8.144  -0.743  26.512  0.00  0.00    +0.531 P 
ATOM      2  O   UNL     1       7.167   0.430  26.616  0.00  0.00    -0.215 OA
ENDROOT
BRANCH   1   3
ATOM      3  O   UNL     1       8.868  -0.177  27.977  0.00  0.00    -0.293 OA
ATOM      4  H   UNL     1       9.647   0.316  27.641  0.00  0.00    +0.223 HD
ENDBRANCH   1   3
BRANCH   1   5
ATOM      5  O   UNL     1       7.419  -1.309  25.046  0.00  0.00    -0.403 OA
BRANCH   5   6
ATOM      6  C   UNL     1       7.681  -2.632  24.738  0.00  0.00    +0.142 A 
ATOM      7  C   UNL     1       8.618  -3.368  25.483  0.00  0.00    +0.047 A 
ATOM      8  C   UNL     1       8.938  -4.682  25.132  0.00  0.00    +0.004 A 
ATOM      9  C   UNL     1       8.306  -5.290  24.053  0.00  0.00    +0.001 A 
ATOM     10  C   UNL     1       7.353  -4.581  23.323  0.00  0.00    +0.015 A 
ATOM     11  C   UNL     1       7.039  -3.254  23.660  0.00  0.00    +0.056 A 
BRANCH  11  12
ATOM     12  C   UNL     1       6.043  -2.540  22.826  0.00  0.00    +0.262 C 
ATOM     13  O   UNL     1       5.357  -3.123  21.997  0.00  0.00    -0.296 OA
ENDBRANCH  11  12
ENDBRANCH   5   6
ENDBRANCH   1   5
BRANCH   1  14
ATOM     14  O   UNL     1       9.457  -0.225  25.670  0.00  0.00    -0.277 OA
BRANCH  14  15
ATOM     15  C   UNL     1       9.356   0.860  24.758  0.00  0.00    +0.177 C 
BRANCH  15  16
ATOM     16  C   UNL     1      10.431   0.862  23.658  0.00  0.00    +0.015 C 
ATOM     17  C   UNL     1      10.148   1.959  22.616  0.00  0.00    +0.006 C 
ATOM     18  C   UNL     1       8.947   1.639  21.725  0.00  0.00    +0.000 C 
ATOM     19  C   UNL     1       9.073   0.268  21.067  0.00  0.00    +0.000 C 
ATOM     20  C   UNL     1       9.361  -0.835  22.081  0.00  0.00    +0.000 C 
ATOM     21  C   UNL     1      10.565  -0.496  22.956  0.00  0.00    +0.006 C 
ENDBRANCH  15  16
ENDBRANCH  14  15
ENDBRANCH   1  14
TORSDOF 7
ENDMDL
MODEL 9
REMARK VINA RESULT:      -5.8      2.470      6.570
REMARK  Name = 
REMARK  7 active torsions:
REMARK  status: ('A' for Active; 'I' for Inactive)
REMARK    1  A    between atoms: O_1  and  P_2
REMARK    2  A    between atoms: P_2  and  O_4
REMARK    3  A    between atoms: P_2  and  O_12
REMARK    4  A    between atoms: O_4  and  C_5
REMARK    5  A    between atoms: C_5  and  C_6
REMARK    6  A    between atoms: O_12  and  C_13
REMARK    7  A    between atoms: C_14  and  C_15
REMARK                            x       y       z     vdW  Elec       q    Type
REMARK                         _______ _______ _______ _____ _____    ______ ____
ROOT
ATOM      1  P   UNL     1       8.529  -0.740  26.140  0.00  0.00    +0.531 P 
ATOM      2  O   UNL     1       9.867  -0.276  25.561  0.00  0.00    -0.215 OA
ENDROOT
BRANCH   1   3
ATOM      3  O   UNL     1       9.166  -0.386  27.709  0.00  0.00    -0.293 OA
ATOM      4  H   UNL     1      10.054  -0.029  27.491  0.00  0.00    +0.223 HD
ENDBRANCH   1   3
BRANCH   1   5
ATOM      5  O   UNL     1       7.891  -1.093  24.571  0.00  0.00    -0.403 OA
BRANCH   5   6
ATOM      6  C   UNL     1       8.081  -0.101  23.626  0.00  0.00    +0.142 A 
ATOM      7  C   UNL     1       7.476   1.157  23.778  0.00  0.00    +0.047 A 
ATOM      8  C   UNL     1       7.607   2.139  22.793  0.00  0.00    +0.004 A 
ATOM      9  C   UNL     1       8.370   1.890  21.657  0.00  0.00    +0.001 A 
ATOM     10  C   UNL     1       9.001   0.656  21.507  0.00  0.00    +0.015 A 
ATOM     11  C   UNL     1       8.859  -0.341  22.487  0.00  0.00    +0.056 A 
BRANCH  11  12
ATOM     12  C   UNL     1       9.525  -1.645  22.256  0.00  0.00    +0.262 C 
ATOM     13  O   UNL     1      10.742  -1.766  22.305  0.00  0.00    -0.296 OA
ENDBRANCH  11  12
ENDBRANCH   5   6
ENDBRANCH   1   5
BRANCH   1  14
ATOM     14  O   UNL     1       8.654  -2.347  26.460  0.00  0.00    -0.277 OA
BRANCH  14  15
ATOM     15  C   UNL     1       7.495  -3.167  26.533  0.00  0.00    +0.177 C 
BRANCH  15  16
ATOM     16  C   UNL     1       7.756  -4.656  26.250  0.00  0.00    +0.015 C 
ATOM     17  C   UNL     1       8.531  -4.836  24.932  0.00  0.00    +0.006 C 
ATOM     18  C   UNL     1       7.680  -4.543  23.696  0.00  0.00    +0.000 C 
ATOM     19  C   UNL     1       6.383  -5.346  23.692  0.00  0.00    +0.000 C 
ATOM     20  C   UNL     1       5.601  -5.187  24.992  0.00  0.00    +0.000 C 
ATOM     21  C   UNL     1       6.467  -5.488  26.212  0.00  0.00    +0.006 C 
ENDBRANCH  15  16
ENDBRANCH  14  15
ENDBRANCH   1  14
TORSDOF 7
ENDMDL
