MODEL 1
REMARK VINA RESULT:      -5.9      0.000      0.000
REMARK  Name = 
REMARK  31 active torsions:
REMARK  status: ('A' for Active; 'I' for Inactive)
REMARK    1  A    between atoms: C_1  and  C_2
REMARK    2  A    between atoms: C_2  and  C_4
REMARK    3  A    between atoms: C_4  and  C_5
REMARK    4  A    between atoms: C_5  and  S_7
REMARK    5  A    between atoms: S_7  and  C_8
REMARK    6  A    between atoms: C_8  and  C_9
REMARK    7  A    between atoms: C_9  and  N_10
REMARK    8  A    between atoms: C_11  and  C_13
REMARK    9  A    between atoms: C_13  and  C_14
REMARK   10  A    between atoms: C_14  and  N_15
REMARK   11  A    between atoms: C_16  and  C_18
REMARK   12  A    between atoms: C_18  and  O_20
REMARK   13  A    between atoms: C_18  and  C_21
REMARK   14  A    between atoms: C_21  and  C_22
REMARK   15  A    between atoms: C_21  and  C_23
REMARK   16  A    between atoms: C_21  and  C_24
REMARK   17  A    between atoms: C_24  and  O_25
REMARK   18  A    between atoms: O_25  and  P_26
REMARK   19  A    between atoms: P_26  and  O_27
REMARK   20  A    between atoms: P_26  and  O_29
REMARK   21  A    between atoms: O_29  and  P_30
REMARK   22  A    between atoms: P_30  and  O_31
REMARK   23  A    between atoms: P_30  and  O_33
REMARK   24  A    between atoms: O_33  and  C_34
REMARK   25  A    between atoms: C_34  and  C_35
REMARK   26  A    between atoms: C_38  and  N_50
REMARK   27  A    between atoms: C_40  and  O_42
REMARK   28  A    between atoms: C_43  and  O_45
REMARK   29  A    between atoms: O_45  and  P_46
REMARK   30  A    between atoms: P_46  and  O_47
REMARK   31  A    between atoms: P_46  and  O_48
REMARK                            x       y       z     vdW  Elec       q    Type
REMARK                         _______ _______ _______ _____ _____    ______ ____
ROOT
ATOM      1  O   UNL     1       4.693  -5.181  25.051  0.00  0.00    -0.186 OA
ENDROOT
BRANCH   1   2
ATOM      2  P   UNL     1       4.008  -6.739  25.362  0.00  0.00    +0.483 P 
ATOM      3  O   UNL     1       5.141  -7.124  26.327  0.00  0.00    -0.227 OA
BRANCH   2   4
ATOM      4  O   UNL     1       3.323  -8.298  25.673  0.00  0.00    -0.302 OA
ATOM      5  H   UNL     1       2.370  -8.162  25.499  0.00  0.00    +0.222 HD
ENDBRANCH   2   4
BRANCH   2   6
ATOM      6  O   UNL     1       2.959  -6.065  26.431  0.00  0.00    -0.286 OA
BRANCH   6   7
ATOM      7  C   UNL     1       2.271  -4.840  26.274  0.00  0.00    +0.181 C 
BRANCH   7   8
ATOM      8  C   UNL     1       2.612  -3.773  27.349  0.00  0.00    +0.024 C 
ATOM      9  C   UNL     1       1.343  -3.417  28.140  0.00  0.00    +0.016 C 
ATOM     10  C   UNL     1       3.528  -4.454  28.357  0.00  0.00    +0.016 C 
BRANCH   8  11
ATOM     11  C   UNL     1       3.180  -2.456  26.726  0.00  0.00    +0.208 C 
BRANCH  11  14
ATOM     12  N   UNL     1       5.447  -1.517  26.560  0.00  0.00    -0.313 N 
ATOM     13  H   UNL     1       5.153  -1.360  25.599  0.00  0.00    +0.149 HD
ATOM     14  C   UNL     1       4.394  -1.803  27.438  0.00  0.00    +0.242 C 
ATOM     15  O   UNL     1       4.442  -1.537  28.631  0.00  0.00    -0.273 OA
BRANCH  12  16
ATOM     16  C   UNL     1       6.523  -0.636  27.005  0.00  0.00    +0.113 C 
BRANCH  16  17
ATOM     17  C   UNL     1       6.465   0.800  26.497  0.00  0.00    +0.114 C 
BRANCH  17  20
ATOM     18  N   UNL     1       5.350   2.235  24.744  0.00  0.00    -0.314 N 
ATOM     19  H   UNL     1       6.268   2.615  24.553  0.00  0.00    +0.149 HD
ATOM     20  C   UNL     1       5.214   1.293  25.752  0.00  0.00    +0.215 C 
ATOM     21  O   UNL     1       4.104   0.959  26.172  0.00  0.00    -0.276 OA
BRANCH  18  22
ATOM     22  C   UNL     1       4.200   2.946  24.069  0.00  0.00    +0.115 C 
BRANCH  22  23
ATOM     23  C   UNL     1       4.436   4.453  23.680  0.00  0.00    +0.096 C 
BRANCH  23  24
ATOM     24  S   UNL     1       5.685   5.019  24.850  0.00  0.00    -0.086 S 
BRANCH  24  25
ATOM     25  C   UNL     1       5.093   5.408  26.461  0.00  0.00    +0.196 C 
ATOM     26  O   UNL     1       4.672   6.564  26.584  0.00  0.00    -0.285 OA
BRANCH  25  27
ATOM     27  C   UNL     1       5.158   4.509  27.648  0.00  0.00    +0.160 C 
BRANCH  27  29
ATOM     28  C   UNL     1       6.891   3.174  29.182  0.00  0.00    +0.086 C 
ATOM     29  C   UNL     1       6.572   4.301  28.235  0.00  0.00    +0.138 C 
ATOM     30  O   UNL     1       7.447   5.123  27.967  0.00  0.00    -0.297 OA
ENDBRANCH  27  29
ENDBRANCH  25  27
ENDBRANCH  24  25
ENDBRANCH  23  24
ENDBRANCH  22  23
ENDBRANCH  18  22
ENDBRANCH  17  20
ENDBRANCH  16  17
ENDBRANCH  12  16
ENDBRANCH  11  14
BRANCH  11  31
ATOM     31  O   UNL     1       3.469  -2.592  25.340  0.00  0.00    -0.382 OA
ATOM     32  H   UNL     1       3.263  -3.507  25.059  0.00  0.00    +0.210 HD
ENDBRANCH  11  31
ENDBRANCH   8  11
ENDBRANCH   7   8
ENDBRANCH   6   7
ENDBRANCH   2   6
ENDBRANCH   1   2
BRANCH   1  33
ATOM     33  P   UNL     1       4.923  -5.558  23.500  0.00  0.00    +0.483 P 
ATOM     34  O   UNL     1       3.907  -4.883  22.652  0.00  0.00    -0.227 OA
BRANCH  33  35
ATOM     35  O   UNL     1       4.961  -7.151  23.348  0.00  0.00    -0.302 OA
ATOM     36  H   UNL     1       4.337  -7.607  23.972  0.00  0.00    +0.222 HD
ENDBRANCH  33  35
BRANCH  33  37
ATOM     37  O   UNL     1       6.425  -5.245  23.188  0.00  0.00    -0.284 OA
BRANCH  37  38
ATOM     38  C   UNL     1       6.984  -4.042  22.758  0.00  0.00    +0.206 C 
BRANCH  38  39
ATOM     39  C   UNL     1       7.403  -3.251  23.966  0.00  0.00    +0.179 C 
ATOM     40  C   UNL     1       8.848  -3.487  23.992  0.00  0.00    +0.194 C 
ATOM     41  C   UNL     1       9.589  -2.223  23.759  0.00  0.00    +0.196 C 
ATOM     42  C   UNL     1       8.467  -1.301  23.264  0.00  0.00    +0.253 C 
ATOM     43  O   UNL     1       7.227  -1.841  23.772  0.00  0.00    -0.346 OA
BRANCH  42  44
ATOM     44  N   UNL     1       8.719   0.004  23.768  0.00  0.00    -0.286 N 
ATOM     45  C   UNL     1       8.212   1.129  23.178  0.00  0.00    +0.167 A 
ATOM     46  N   UNL     1       7.297   1.213  22.197  0.00  0.00    -0.216 NA
ATOM     47  C   UNL     1       7.131   2.494  21.810  0.00  0.00    +0.225 A 
ATOM     48  N   UNL     1       7.789   3.586  22.255  0.00  0.00    -0.219 NA
ATOM     49  C   UNL     1       8.752   3.414  23.188  0.00  0.00    +0.147 A 
ATOM     50  N   UNL     1       9.480   4.504  23.633  0.00  0.00    -0.341 N 
ATOM     51  H   UNL     1       9.934   4.343  24.531  0.00  0.00    +0.144 HD
ATOM     52  H   UNL     1       9.001   5.380  23.504  0.00  0.00    +0.144 HD
ATOM     53  C   UNL     1       8.974   2.137  23.716  0.00  0.00    +0.147 A 
ATOM     54  N   UNL     1       9.844   1.673  24.667  0.00  0.00    -0.231 NA
ATOM     55  C   UNL     1       9.664   0.374  24.668  0.00  0.00    +0.203 A 
ENDBRANCH  42  44
BRANCH  41  56
ATOM     56  O   UNL     1      10.614  -2.467  22.775  0.00  0.00    -0.385 OA
ATOM     57  H   UNL     1      11.436  -2.690  23.270  0.00  0.00    +0.210 HD
ENDBRANCH  41  56
BRANCH  40  58
ATOM     58  O   UNL     1       9.140  -4.453  24.904  0.00  0.00    -0.278 OA
BRANCH  58  59
ATOM     59  P   UNL     1       8.074  -4.275  26.255  0.00  0.00    +0.473 P 
ATOM     60  O   UNL     1       7.120  -4.115  27.464  0.00  0.00    -0.228 OA
BRANCH  59  61
ATOM     61  O   UNL     1       7.674  -5.832  25.922  0.00  0.00    -0.303 OA
ATOM     62  H   UNL     1       8.504  -6.285  25.685  0.00  0.00    +0.222 HD
ENDBRANCH  59  61
BRANCH  59  63
ATOM     63  O   UNL     1       9.367  -4.785  27.131  0.00  0.00    -0.303 OA
ATOM     64  H   UNL     1       9.174  -5.592  27.638  0.00  0.00    +0.222 HD
ENDBRANCH  59  63
ENDBRANCH  58  59
ENDBRANCH  40  58
ENDBRANCH  38  39
ENDBRANCH  37  38
ENDBRANCH  33  37
ENDBRANCH   1  33
TORSDOF 28
ENDMDL
MODEL 2
REMARK VINA RESULT:      -5.7      1.895      3.076
REMARK  Name = 
REMARK  31 active torsions:
REMARK  status: ('A' for Active; 'I' for Inactive)
REMARK    1  A    between atoms: C_1  and  C_2
REMARK    2  A    between atoms: C_2  and  C_4
REMARK    3  A    between atoms: C_4  and  C_5
REMARK    4  A    between atoms: C_5  and  S_7
REMARK    5  A    between atoms: S_7  and  C_8
REMARK    6  A    between atoms: C_8  and  C_9
REMARK    7  A    between atoms: C_9  and  N_10
REMARK    8  A    between atoms: C_11  and  C_13
REMARK    9  A    between atoms: C_13  and  C_14
REMARK   10  A    between atoms: C_14  and  N_15
REMARK   11  A    between atoms: C_16  and  C_18
REMARK   12  A    between atoms: C_18  and  O_20
REMARK   13  A    between atoms: C_18  and  C_21
REMARK   14  A    between atoms: C_21  and  C_22
REMARK   15  A    between atoms: C_21  and  C_23
REMARK   16  A    between atoms: C_21  and  C_24
REMARK   17  A    between atoms: C_24  and  O_25
REMARK   18  A    between atoms: O_25  and  P_26
REMARK   19  A    between atoms: P_26  and  O_27
REMARK   20  A    between atoms: P_26  and  O_29
REMARK   21  A    between atoms: O_29  and  P_30
REMARK   22  A    between atoms: P_30  and  O_31
REMARK   23  A    between atoms: P_30  and  O_33
REMARK   24  A    between atoms: O_33  and  C_34
REMARK   25  A    between atoms: C_34  and  C_35
REMARK   26  A    between atoms: C_38  and  N_50
REMARK   27  A    between atoms: C_40  and  O_42
REMARK   28  A    between atoms: C_43  and  O_45
REMARK   29  A    between atoms: O_45  and  P_46
REMARK   30  A    between atoms: P_46  and  O_47
REMARK   31  A    between atoms: P_46  and  O_48
REMARK                            x       y       z     vdW  Elec       q    Type
REMARK                         _______ _______ _______ _____ _____    ______ ____
ROOT
ATOM      1  O   UNL     1       5.063  -4.915  24.985  0.00  0.00    -0.186 OA
ENDROOT
BRANCH   1   2
ATOM      2  P   UNL     1       4.268  -6.363  25.500  0.00  0.00    +0.483 P 
ATOM      3  O   UNL     1       5.431  -6.759  26.424  0.00  0.00    -0.227 OA
BRANCH   2   4
ATOM      4  O   UNL     1       3.472  -7.811  26.016  0.00  0.00    -0.302 OA
ATOM      5  H   UNL     1       2.887  -7.501  26.736  0.00  0.00    +0.222 HD
ENDBRANCH   2   4
BRANCH   2   6
ATOM      6  O   UNL     1       3.365  -5.491  26.560  0.00  0.00    -0.286 OA
BRANCH   6   7
ATOM      7  C   UNL     1       2.748  -4.244  26.309  0.00  0.00    +0.181 C 
BRANCH   7   8
ATOM      8  C   UNL     1       3.224  -3.096  27.241  0.00  0.00    +0.024 C 
ATOM      9  C   UNL     1       2.004  -2.409  27.875  0.00  0.00    +0.016 C 
ATOM     10  C   UNL     1       3.953  -3.759  28.402  0.00  0.00    +0.016 C 
BRANCH   8  11
ATOM     11  C   UNL     1       4.050  -2.011  26.477  0.00  0.00    +0.208 C 
BRANCH  11  14
ATOM     12  N   UNL     1       5.006  -0.501  28.167  0.00  0.00    -0.313 N 
ATOM     13  H   UNL     1       5.773  -1.167  28.115  0.00  0.00    +0.149 HD
ATOM     14  C   UNL     1       4.100  -0.591  27.102  0.00  0.00    +0.242 C 
ATOM     15  O   UNL     1       3.447   0.367  26.712  0.00  0.00    -0.273 OA
BRANCH  12  16
ATOM     16  C   UNL     1       5.394   0.818  28.658  0.00  0.00    +0.113 C 
BRANCH  16  17
ATOM     17  C   UNL     1       6.653   1.418  28.041  0.00  0.00    +0.114 C 
BRANCH  17  20
ATOM     18  N   UNL     1       5.522   2.641  26.144  0.00  0.00    -0.314 N 
ATOM     19  H   UNL     1       4.910   1.838  26.068  0.00  0.00    +0.149 HD
ATOM     20  C   UNL     1       6.535   2.619  27.090  0.00  0.00    +0.215 C 
ATOM     21  O   UNL     1       7.436   3.462  27.084  0.00  0.00    -0.276 OA
BRANCH  18  22
ATOM     22  C   UNL     1       5.406   3.652  25.028  0.00  0.00    +0.115 C 
BRANCH  22  23
ATOM     23  C   UNL     1       4.012   4.361  24.862  0.00  0.00    +0.096 C 
BRANCH  23  24
ATOM     24  S   UNL     1       3.179   3.401  23.583  0.00  0.00    -0.086 S 
BRANCH  24  25
ATOM     25  C   UNL     1       2.582   4.325  22.210  0.00  0.00    +0.196 C 
ATOM     26  O   UNL     1       3.223   5.357  21.971  0.00  0.00    -0.285 OA
BRANCH  25  27
ATOM     27  C   UNL     1       1.356   4.013  21.423  0.00  0.00    +0.160 C 
BRANCH  27  29
ATOM     28  C   UNL     1       1.723   3.825  18.783  0.00  0.00    +0.086 C 
ATOM     29  C   UNL     1       1.595   3.184  20.140  0.00  0.00    +0.138 C 
ATOM     30  O   UNL     1       1.615   1.958  20.228  0.00  0.00    -0.297 OA
ENDBRANCH  27  29
ENDBRANCH  25  27
ENDBRANCH  24  25
ENDBRANCH  23  24
ENDBRANCH  22  23
ENDBRANCH  18  22
ENDBRANCH  17  20
ENDBRANCH  16  17
ENDBRANCH  12  16
ENDBRANCH  11  14
BRANCH  11  31
ATOM     31  O   UNL     1       5.374  -2.440  26.186  0.00  0.00    -0.382 OA
ATOM     32  H   UNL     1       5.389  -3.417  26.138  0.00  0.00    +0.210 HD
ENDBRANCH  11  31
ENDBRANCH   8  11
ENDBRANCH   7   8
ENDBRANCH   6   7
ENDBRANCH   2   6
ENDBRANCH   1   2
BRANCH   1  33
ATOM     33  P   UNL     1       5.148  -5.464  23.471  0.00  0.00    +0.483 P 
ATOM     34  O   UNL     1       4.142  -4.778  22.620  0.00  0.00    -0.227 OA
BRANCH  33  35
ATOM     35  O   UNL     1       5.027  -7.060  23.485  0.00  0.00    -0.302 OA
ATOM     36  H   UNL     1       4.973  -7.429  24.405  0.00  0.00    +0.222 HD
ENDBRANCH  33  35
BRANCH  33  37
ATOM     37  O   UNL     1       6.647  -5.334  23.038  0.00  0.00    -0.284 OA
BRANCH  37  38
ATOM     38  C   UNL     1       7.339  -4.184  22.662  0.00  0.00    +0.206 C 
BRANCH  38  39
ATOM     39  C   UNL     1       7.682  -3.406  23.902  0.00  0.00    +0.179 C 
ATOM     40  C   UNL     1       9.142  -3.520  23.932  0.00  0.00    +0.194 C 
ATOM     41  C   UNL     1       9.775  -2.191  23.753  0.00  0.00    +0.196 C 
ATOM     42  C   UNL     1       8.582  -1.348  23.282  0.00  0.00    +0.253 C 
ATOM     43  O   UNL     1       7.389  -2.010  23.759  0.00  0.00    -0.346 OA
BRANCH  42  44
ATOM     44  N   UNL     1       8.719  -0.046  23.836  0.00  0.00    -0.286 N 
ATOM     45  C   UNL     1       8.177   1.063  23.248  0.00  0.00    +0.167 A 
ATOM     46  N   UNL     1       7.319   1.120  22.215  0.00  0.00    -0.216 NA
ATOM     47  C   UNL     1       7.095   2.400  21.854  0.00  0.00    +0.225 A 
ATOM     48  N   UNL     1       7.653   3.517  22.368  0.00  0.00    -0.219 NA
ATOM     49  C   UNL     1       8.569   3.375  23.353  0.00  0.00    +0.147 A 
ATOM     50  N   UNL     1       9.198   4.494  23.871  0.00  0.00    -0.341 N 
ATOM     51  H   UNL     1       9.608   4.334  24.791  0.00  0.00    +0.144 HD
ATOM     52  H   UNL     1       8.673   5.342  23.737  0.00  0.00    +0.144 HD
ATOM     53  C   UNL     1       8.841   2.099  23.859  0.00  0.00    +0.147 A 
ATOM     54  N   UNL     1       9.681   1.661  24.848  0.00  0.00    -0.231 NA
ATOM     55  C   UNL     1       9.585   0.354  24.802  0.00  0.00    +0.203 A 
ENDBRANCH  42  44
BRANCH  41  56
ATOM     56  O   UNL     1      10.823  -2.310  22.769  0.00  0.00    -0.385 OA
ATOM     57  H   UNL     1      10.801  -1.485  22.230  0.00  0.00    +0.210 HD
ENDBRANCH  41  56
BRANCH  40  58
ATOM     58  O   UNL     1       9.510  -4.491  24.810  0.00  0.00    -0.278 OA
BRANCH  58  59
ATOM     59  P   UNL     1       8.442  -4.437  26.171  0.00  0.00    +0.473 P 
ATOM     60  O   UNL     1       7.486  -4.387  27.387  0.00  0.00    -0.228 OA
BRANCH  59  61
ATOM     61  O   UNL     1       8.323  -6.055  25.921  0.00  0.00    -0.303 OA
ATOM     62  H   UNL     1       7.493  -6.340  26.346  0.00  0.00    +0.222 HD
ENDBRANCH  59  61
BRANCH  59  63
ATOM     63  O   UNL     1       9.813  -4.663  27.047  0.00  0.00    -0.303 OA
ATOM     64  H   UNL     1       9.767  -5.457  27.606  0.00  0.00    +0.222 HD
ENDBRANCH  59  63
ENDBRANCH  58  59
ENDBRANCH  40  58
ENDBRANCH  38  39
ENDBRANCH  37  38
ENDBRANCH  33  37
ENDBRANCH   1  33
TORSDOF 28
ENDMDL
MODEL 3
REMARK VINA RESULT:      -5.6      2.728      5.858
REMARK  Name = 
REMARK  31 active torsions:
REMARK  status: ('A' for Active; 'I' for Inactive)
REMARK    1  A    between atoms: C_1  and  C_2
REMARK    2  A    between atoms: C_2  and  C_4
REMARK    3  A    between atoms: C_4  and  C_5
REMARK    4  A    between atoms: C_5  and  S_7
REMARK    5  A    between atoms: S_7  and  C_8
REMARK    6  A    between atoms: C_8  and  C_9
REMARK    7  A    between atoms: C_9  and  N_10
REMARK    8  A    between atoms: C_11  and  C_13
REMARK    9  A    between atoms: C_13  and  C_14
REMARK   10  A    between atoms: C_14  and  N_15
REMARK   11  A    between atoms: C_16  and  C_18
REMARK   12  A    between atoms: C_18  and  O_20
REMARK   13  A    between atoms: C_18  and  C_21
REMARK   14  A    between atoms: C_21  and  C_22
REMARK   15  A    between atoms: C_21  and  C_23
REMARK   16  A    between atoms: C_21  and  C_24
REMARK   17  A    between atoms: C_24  and  O_25
REMARK   18  A    between atoms: O_25  and  P_26
REMARK   19  A    between atoms: P_26  and  O_27
REMARK   20  A    between atoms: P_26  and  O_29
REMARK   21  A    between atoms: O_29  and  P_30
REMARK   22  A    between atoms: P_30  and  O_31
REMARK   23  A    between atoms: P_30  and  O_33
REMARK   24  A    between atoms: O_33  and  C_34
REMARK   25  A    between atoms: C_34  and  C_35
REMARK   26  A    between atoms: C_38  and  N_50
REMARK   27  A    between atoms: C_40  and  O_42
REMARK   28  A    between atoms: C_43  and  O_45
REMARK   29  A    between atoms: O_45  and  P_46
REMARK   30  A    between atoms: P_46  and  O_47
REMARK   31  A    between atoms: P_46  and  O_48
REMARK                            x       y       z     vdW  Elec       q    Type
REMARK                         _______ _______ _______ _____ _____    ______ ____
ROOT
ATOM      1  O   UNL     1       4.354  -1.864  28.017  0.00  0.00    -0.186 OA
ENDROOT
BRANCH   1   2
ATOM      2  P   UNL     1       3.481  -2.394  26.622  0.00  0.00    +0.483 P 
ATOM      3  O   UNL     1       4.532  -1.822  25.657  0.00  0.00    -0.227 OA
BRANCH   2   4
ATOM      4  O   UNL     1       2.606  -2.924  25.225  0.00  0.00    -0.302 OA
ATOM      5  H   UNL     1       2.105  -2.126  24.959  0.00  0.00    +0.222 HD
ENDBRANCH   2   4
BRANCH   2   6
ATOM      6  O   UNL     1       4.086  -3.908  26.816  0.00  0.00    -0.286 OA
BRANCH   6   7
ATOM      7  C   UNL     1       3.469  -5.116  26.420  0.00  0.00    +0.181 C 
BRANCH   7   8
ATOM      8  C   UNL     1       4.456  -6.291  26.180  0.00  0.00    +0.024 C 
ATOM      9  C   UNL     1       4.984  -6.801  27.530  0.00  0.00    +0.016 C 
ATOM     10  C   UNL     1       3.631  -7.440  25.617  0.00  0.00    +0.016 C 
BRANCH   8  11
ATOM     11  C   UNL     1       5.683  -5.870  25.307  0.00  0.00    +0.208 C 
BRANCH  11  14
ATOM     12  N   UNL     1       5.335  -3.958  23.798  0.00  0.00    -0.313 N 
ATOM     13  H   UNL     1       5.890  -3.485  24.508  0.00  0.00    +0.149 HD
ATOM     14  C   UNL     1       5.386  -5.356  23.872  0.00  0.00    +0.242 C 
ATOM     15  O   UNL     1       5.232  -6.072  22.892  0.00  0.00    -0.273 OA
BRANCH  12  16
ATOM     16  C   UNL     1       5.370  -3.315  22.488  0.00  0.00    +0.113 C 
BRANCH  16  17
ATOM     17  C   UNL     1       6.746  -3.182  21.845  0.00  0.00    +0.114 C 
BRANCH  17  20
ATOM     18  N   UNL     1       8.829  -1.813  22.243  0.00  0.00    -0.314 N 
ATOM     19  H   UNL     1       8.683  -1.426  21.319  0.00  0.00    +0.149 HD
ATOM     20  C   UNL     1       7.953  -2.780  22.708  0.00  0.00    +0.215 C 
ATOM     21  O   UNL     1       8.202  -3.437  23.722  0.00  0.00    -0.276 OA
BRANCH  18  22
ATOM     22  C   UNL     1      10.150  -1.464  22.889  0.00  0.00    +0.115 C 
BRANCH  22  23
ATOM     23  C   UNL     1      10.399   0.056  23.207  0.00  0.00    +0.096 C 
BRANCH  23  24
ATOM     24  S   UNL     1       9.577   0.928  21.859  0.00  0.00    -0.086 S 
BRANCH  24  25
ATOM     25  C   UNL     1       8.009   1.622  22.252  0.00  0.00    +0.196 C 
ATOM     26  O   UNL     1       7.122   0.788  22.472  0.00  0.00    -0.285 OA
BRANCH  25  27
ATOM     27  C   UNL     1       7.676   3.074  22.236  0.00  0.00    +0.160 C 
BRANCH  27  29
ATOM     28  C   UNL     1       8.407   5.405  23.320  0.00  0.00    +0.086 C 
ATOM     29  C   UNL     1       8.306   3.903  23.378  0.00  0.00    +0.138 C 
ATOM     30  O   UNL     1       8.799   3.306  24.334  0.00  0.00    -0.297 OA
ENDBRANCH  27  29
ENDBRANCH  25  27
ENDBRANCH  24  25
ENDBRANCH  23  24
ENDBRANCH  22  23
ENDBRANCH  18  22
ENDBRANCH  17  20
ENDBRANCH  16  17
ENDBRANCH  12  16
ENDBRANCH  11  14
BRANCH  11  31
ATOM     31  O   UNL     1       6.529  -4.939  25.970  0.00  0.00    -0.382 OA
ATOM     32  H   UNL     1       5.985  -4.198  26.307  0.00  0.00    +0.210 HD
ENDBRANCH  11  31
ENDBRANCH   8  11
ENDBRANCH   7   8
ENDBRANCH   6   7
ENDBRANCH   2   6
ENDBRANCH   1   2
BRANCH   1  33
ATOM     33  P   UNL     1       3.409  -0.564  28.155  0.00  0.00    +0.483 P 
ATOM     34  O   UNL     1       2.776  -0.531  29.498  0.00  0.00    -0.227 OA
BRANCH  33  35
ATOM     35  O   UNL     1       2.373  -0.540  26.934  0.00  0.00    -0.302 OA
ATOM     36  H   UNL     1       2.440   0.291  26.396  0.00  0.00    +0.222 HD
ENDBRANCH  33  35
BRANCH  33  37
ATOM     37  O   UNL     1       4.289   0.666  27.757  0.00  0.00    -0.284 OA
BRANCH  37  38
ATOM     38  C   UNL     1       5.322   1.258  28.482  0.00  0.00    +0.206 C 
BRANCH  38  39
ATOM     39  C   UNL     1       5.999   2.276  27.608  0.00  0.00    +0.179 C 
ATOM     40  C   UNL     1       6.298   1.490  26.409  0.00  0.00    +0.194 C 
ATOM     41  C   UNL     1       5.538   2.005  25.243  0.00  0.00    +0.196 C 
ATOM     42  C   UNL     1       4.526   2.932  25.927  0.00  0.00    +0.253 C 
ATOM     43  O   UNL     1       5.100   3.314  27.197  0.00  0.00    -0.346 OA
BRANCH  42  44
ATOM     44  N   UNL     1       4.322   4.058  25.082  0.00  0.00    -0.286 N 
ATOM     45  C   UNL     1       3.462   4.031  24.018  0.00  0.00    +0.167 A 
ATOM     46  N   UNL     1       2.569   3.080  23.695  0.00  0.00    -0.216 NA
ATOM     47  C   UNL     1       1.978   3.363  22.517  0.00  0.00    +0.225 A 
ATOM     48  N   UNL     1       2.229   4.403  21.693  0.00  0.00    -0.219 NA
ATOM     49  C   UNL     1       3.198   5.278  22.047  0.00  0.00    +0.147 A 
ATOM     50  N   UNL     1       3.514   6.329  21.205  0.00  0.00    -0.341 N 
ATOM     51  H   UNL     1       4.000   7.091  21.678  0.00  0.00    +0.144 HD
ATOM     52  H   UNL     1       2.767   6.574  20.576  0.00  0.00    +0.144 HD
ATOM     53  C   UNL     1       3.840   5.126  23.281  0.00  0.00    +0.147 A 
ATOM     54  N   UNL     1       4.820   5.854  23.904  0.00  0.00    -0.231 NA
ATOM     55  C   UNL     1       5.090   5.173  24.991  0.00  0.00    +0.203 A 
ENDBRANCH  42  44
BRANCH  41  56
ATOM     56  O   UNL     1       4.931   0.888  24.562  0.00  0.00    -0.385 OA
ATOM     57  H   UNL     1       3.959   0.967  24.699  0.00  0.00    +0.210 HD
ENDBRANCH  41  56
BRANCH  40  58
ATOM     58  O   UNL     1       7.599   1.095  26.429  0.00  0.00    -0.278 OA
BRANCH  58  59
ATOM     59  P   UNL     1       7.648  -0.625  26.615  0.00  0.00    +0.473 P 
ATOM     60  O   UNL     1       7.692  -2.163  26.782  0.00  0.00    -0.228 OA
BRANCH  59  61
ATOM     61  O   UNL     1       7.449  -0.632  24.986  0.00  0.00    -0.303 OA
ATOM     62  H   UNL     1       6.490  -0.555  24.825  0.00  0.00    +0.222 HD
ENDBRANCH  59  61
BRANCH  59  63
ATOM     63  O   UNL     1       9.269  -0.433  26.424  0.00  0.00    -0.303 OA
ATOM     64  H   UNL     1       9.676  -1.177  25.950  0.00  0.00    +0.222 HD
ENDBRANCH  59  63
ENDBRANCH  58  59
ENDBRANCH  40  58
ENDBRANCH  38  39
ENDBRANCH  37  38
ENDBRANCH  33  37
ENDBRANCH   1  33
TORSDOF 28
ENDMDL
MODEL 4
REMARK VINA RESULT:      -5.6      3.395      8.711
REMARK  Name = 
REMARK  31 active torsions:
REMARK  status: ('A' for Active; 'I' for Inactive)
REMARK    1  A    between atoms: C_1  and  C_2
REMARK    2  A    between atoms: C_2  and  C_4
REMARK    3  A    between atoms: C_4  and  C_5
REMARK    4  A    between atoms: C_5  and  S_7
REMARK    5  A    between atoms: S_7  and  C_8
REMARK    6  A    between atoms: C_8  and  C_9
REMARK    7  A    between atoms: C_9  and  N_10
REMARK    8  A    between atoms: C_11  and  C_13
REMARK    9  A    between atoms: C_13  and  C_14
REMARK   10  A    between atoms: C_14  and  N_15
REMARK   11  A    between atoms: C_16  and  C_18
REMARK   12  A    between atoms: C_18  and  O_20
REMARK   13  A    between atoms: C_18  and  C_21
REMARK   14  A    between atoms: C_21  and  C_22
REMARK   15  A    between atoms: C_21  and  C_23
REMARK   16  A    between atoms: C_21  and  C_24
REMARK   17  A    between atoms: C_24  and  O_25
REMARK   18  A    between atoms: O_25  and  P_26
REMARK   19  A    between atoms: P_26  and  O_27
REMARK   20  A    between atoms: P_26  and  O_29
REMARK   21  A    between atoms: O_29  and  P_30
REMARK   22  A    between atoms: P_30  and  O_31
REMARK   23  A    between atoms: P_30  and  O_33
REMARK   24  A    between atoms: O_33  and  C_34
REMARK   25  A    between atoms: C_34  and  C_35
REMARK   26  A    between atoms: C_38  and  N_50
REMARK   27  A    between atoms: C_40  and  O_42
REMARK   28  A    between atoms: C_43  and  O_45
REMARK   29  A    between atoms: O_45  and  P_46
REMARK   30  A    between atoms: P_46  and  O_47
REMARK   31  A    between atoms: P_46  and  O_48
REMARK                            x       y       z     vdW  Elec       q    Type
REMARK                         _______ _______ _______ _____ _____    ______ ____
ROOT
ATOM      1  O   UNL     1       4.937   1.839  26.966  0.00  0.00    -0.186 OA
ENDROOT
BRANCH   1   2
ATOM      2  P   UNL     1       6.081   0.986  25.988  0.00  0.00    +0.483 P 
ATOM      3  O   UNL     1       5.056   0.752  24.866  0.00  0.00    -0.227 OA
BRANCH   2   4
ATOM      4  O   UNL     1       7.225   0.132  25.010  0.00  0.00    -0.302 OA
ATOM      5  H   UNL     1       7.027  -0.806  25.201  0.00  0.00    +0.222 HD
ENDBRANCH   2   4
BRANCH   2   6
ATOM      6  O   UNL     1       6.714   2.414  25.482  0.00  0.00    -0.286 OA
BRANCH   6   7
ATOM      7  C   UNL     1       8.061   2.655  25.124  0.00  0.00    +0.181 C 
BRANCH   7   8
ATOM      8  C   UNL     1       8.238   3.442  23.797  0.00  0.00    +0.024 C 
ATOM      9  C   UNL     1       7.222   4.594  23.743  0.00  0.00    +0.016 C 
ATOM     10  C   UNL     1       9.600   4.119  23.876  0.00  0.00    +0.016 C 
BRANCH   8  11
ATOM     11  C   UNL     1       8.020   2.543  22.536  0.00  0.00    +0.208 C 
BRANCH  11  14
ATOM     12  N   UNL     1       8.551   0.142  22.482  0.00  0.00    -0.313 N 
ATOM     13  H   UNL     1       7.545   0.073  22.345  0.00  0.00    +0.149 HD
ATOM     14  C   UNL     1       9.067   1.428  22.274  0.00  0.00    +0.242 C 
ATOM     15  O   UNL     1      10.217   1.623  21.904  0.00  0.00    -0.273 OA
BRANCH  12  16
ATOM     16  C   UNL     1       9.300  -1.011  21.991  0.00  0.00    +0.113 C 
BRANCH  16  17
ATOM     17  C   UNL     1       8.467  -2.197  21.517  0.00  0.00    +0.114 C 
BRANCH  17  20
ATOM     18  N   UNL     1       7.343  -4.172  22.616  0.00  0.00    -0.314 N 
ATOM     19  H   UNL     1       7.974  -4.756  22.081  0.00  0.00    +0.149 HD
ATOM     20  C   UNL     1       7.401  -2.798  22.447  0.00  0.00    +0.215 C 
ATOM     21  O   UNL     1       6.524  -2.058  22.900  0.00  0.00    -0.276 OA
BRANCH  18  22
ATOM     22  C   UNL     1       6.236  -4.906  23.337  0.00  0.00    +0.115 C 
BRANCH  22  23
ATOM     23  C   UNL     1       5.028  -5.399  22.457  0.00  0.00    +0.096 C 
BRANCH  23  24
ATOM     24  S   UNL     1       3.819  -5.983  23.660  0.00  0.00    -0.086 S 
BRANCH  24  25
ATOM     25  C   UNL     1       2.206  -6.287  23.025  0.00  0.00    +0.196 C 
ATOM     26  O   UNL     1       1.578  -5.266  22.718  0.00  0.00    -0.285 OA
BRANCH  25  27
ATOM     27  C   UNL     1       1.547  -7.621  22.936  0.00  0.00    +0.160 C 
BRANCH  27  29
ATOM     28  C   UNL     1       0.926  -9.621  24.594  0.00  0.00    +0.086 C 
ATOM     29  C   UNL     1       0.962  -8.152  24.263  0.00  0.00    +0.138 C 
ATOM     30  O   UNL     1       0.450  -7.350  25.043  0.00  0.00    -0.297 OA
ENDBRANCH  27  29
ENDBRANCH  25  27
ENDBRANCH  24  25
ENDBRANCH  23  24
ENDBRANCH  22  23
ENDBRANCH  18  22
ENDBRANCH  17  20
ENDBRANCH  16  17
ENDBRANCH  12  16
ENDBRANCH  11  14
BRANCH  11  31
ATOM     31  O   UNL     1       6.715   1.980  22.490  0.00  0.00    -0.382 OA
ATOM     32  H   UNL     1       6.250   2.318  21.699  0.00  0.00    +0.210 HD
ENDBRANCH  11  31
ENDBRANCH   8  11
ENDBRANCH   7   8
ENDBRANCH   6   7
ENDBRANCH   2   6
ENDBRANCH   1   2
BRANCH   1  33
ATOM     33  P   UNL     1       5.607   1.256  28.313  0.00  0.00    +0.483 P 
ATOM     34  O   UNL     1       5.939   2.366  29.242  0.00  0.00    -0.227 OA
BRANCH  33  35
ATOM     35  O   UNL     1       6.850   0.327  27.919  0.00  0.00    -0.302 OA
ATOM     36  H   UNL     1       6.662  -0.247  27.132  0.00  0.00    +0.222 HD
ENDBRANCH  33  35
BRANCH  33  37
ATOM     37  O   UNL     1       4.634   0.153  28.848  0.00  0.00    -0.284 OA
BRANCH  37  38
ATOM     38  C   UNL     1       3.513  -0.386  28.219  0.00  0.00    +0.206 C 
BRANCH  38  39
ATOM     39  C   UNL     1       3.623  -1.885  28.247  0.00  0.00    +0.179 C 
ATOM     40  C   UNL     1       3.243  -2.239  26.878  0.00  0.00    +0.194 C 
ATOM     41  C   UNL     1       4.386  -2.855  26.160  0.00  0.00    +0.196 C 
ATOM     42  C   UNL     1       5.549  -2.526  27.104  0.00  0.00    +0.253 C 
ATOM     43  O   UNL     1       4.978  -2.322  28.415  0.00  0.00    -0.346 OA
BRANCH  42  44
ATOM     44  N   UNL     1       6.450  -3.626  27.088  0.00  0.00    -0.286 N 
ATOM     45  C   UNL     1       7.635  -3.595  26.404  0.00  0.00    +0.167 A 
ATOM     46  N   UNL     1       8.226  -2.542  25.814  0.00  0.00    -0.216 NA
ATOM     47  C   UNL     1       9.334  -2.930  25.150  0.00  0.00    +0.225 A 
ATOM     48  N   UNL     1       9.818  -4.181  25.005  0.00  0.00    -0.219 NA
ATOM     49  C   UNL     1       9.125  -5.201  25.562  0.00  0.00    +0.147 A 
ATOM     50  N   UNL     1       9.565  -6.502  25.393  0.00  0.00    -0.341 N 
ATOM     51  H   UNL     1       9.189  -7.146  26.089  0.00  0.00    +0.144 HD
ATOM     52  H   UNL     1      10.548  -6.566  25.185  0.00  0.00    +0.144 HD
ATOM     53  C   UNL     1       7.991  -4.919  26.332  0.00  0.00    +0.147 A 
ATOM     54  N   UNL     1       7.123  -5.725  27.021  0.00  0.00    -0.231 NA
ATOM     55  C   UNL     1       6.199  -4.906  27.462  0.00  0.00    +0.203 A 
ENDBRANCH  42  44
BRANCH  41  56
ATOM     56  O   UNL     1       4.501  -2.235  24.863  0.00  0.00    -0.385 OA
ATOM     57  H   UNL     1       4.500  -2.964  24.200  0.00  0.00    +0.210 HD
ENDBRANCH  41  56
BRANCH  40  58
ATOM     58  O   UNL     1       1.944  -2.642  26.849  0.00  0.00    -0.278 OA
BRANCH  58  59
ATOM     59  P   UNL     1       1.887  -4.338  27.185  0.00  0.00    +0.473 P 
ATOM     60  O   UNL     1       1.836  -5.856  27.486  0.00  0.00    -0.228 OA
BRANCH  59  61
ATOM     61  O   UNL     1       0.450  -3.973  27.891  0.00  0.00    -0.303 OA
ATOM     62  H   UNL     1      -0.234  -4.110  27.211  0.00  0.00    +0.222 HD
ENDBRANCH  59  61
BRANCH  59  63
ATOM     63  O   UNL     1       1.152  -4.435  25.719  0.00  0.00    -0.303 OA
ATOM     64  H   UNL     1       0.352  -3.885  25.669  0.00  0.00    +0.222 HD
ENDBRANCH  59  63
ENDBRANCH  58  59
ENDBRANCH  40  58
ENDBRANCH  38  39
ENDBRANCH  37  38
ENDBRANCH  33  37
ENDBRANCH   1  33
TORSDOF 28
ENDMDL
MODEL 5
REMARK VINA RESULT:      -5.6      3.853      7.760
REMARK  Name = 
REMARK  31 active torsions:
REMARK  status: ('A' for Active; 'I' for Inactive)
REMARK    1  A    between atoms: C_1  and  C_2
REMARK    2  A    between atoms: C_2  and  C_4
REMARK    3  A    between atoms: C_4  and  C_5
REMARK    4  A    between atoms: C_5  and  S_7
REMARK    5  A    between atoms: S_7  and  C_8
REMARK    6  A    between atoms: C_8  and  C_9
REMARK    7  A    between atoms: C_9  and  N_10
REMARK    8  A    between atoms: C_11  and  C_13
REMARK    9  A    between atoms: C_13  and  C_14
REMARK   10  A    between atoms: C_14  and  N_15
REMARK   11  A    between atoms: C_16  and  C_18
REMARK   12  A    between atoms: C_18  and  O_20
REMARK   13  A    between atoms: C_18  and  C_21
REMARK   14  A    between atoms: C_21  and  C_22
REMARK   15  A    between atoms: C_21  and  C_23
REMARK   16  A    between atoms: C_21  and  C_24
REMARK   17  A    between atoms: C_24  and  O_25
REMARK   18  A    between atoms: O_25  and  P_26
REMARK   19  A    between atoms: P_26  and  O_27
REMARK   20  A    between atoms: P_26  and  O_29
REMARK   21  A    between atoms: O_29  and  P_30
REMARK   22  A    between atoms: P_30  and  O_31
REMARK   23  A    between atoms: P_30  and  O_33
REMARK   24  A    between atoms: O_33  and  C_34
REMARK   25  A    between atoms: C_34  and  C_35
REMARK   26  A    between atoms: C_38  and  N_50
REMARK   27  A    between atoms: C_40  and  O_42
REMARK   28  A    between atoms: C_43  and  O_45
REMARK   29  A    between atoms: O_45  and  P_46
REMARK   30  A    between atoms: P_46  and  O_47
REMARK   31  A    between atoms: P_46  and  O_48
REMARK                            x       y       z     vdW  Elec       q    Type
REMARK                         _______ _______ _______ _____ _____    ______ ____
ROOT
ATOM      1  O   UNL     1       8.245  -0.260  23.027  0.00  0.00    -0.186 OA
ENDROOT
BRANCH   1   2
ATOM      2  P   UNL     1       9.521  -1.425  23.100  0.00  0.00    +0.483 P 
ATOM      3  O   UNL     1       9.536  -1.420  24.638  0.00  0.00    -0.227 OA
BRANCH   2   4
ATOM      4  O   UNL     1      10.799  -2.591  23.173  0.00  0.00    -0.302 OA
ATOM      5  H   UNL     1      11.218  -2.518  22.292  0.00  0.00    +0.222 HD
ENDBRANCH   2   4
BRANCH   2   6
ATOM      6  O   UNL     1       8.436  -2.631  22.844  0.00  0.00    -0.286 OA
BRANCH   6   7
ATOM      7  C   UNL     1       8.165  -3.714  23.711  0.00  0.00    +0.181 C 
BRANCH   7   8
ATOM      8  C   UNL     1       6.653  -3.987  23.939  0.00  0.00    +0.024 C 
ATOM      9  C   UNL     1       6.024  -4.514  22.640  0.00  0.00    +0.016 C 
ATOM     10  C   UNL     1       6.568  -5.148  24.920  0.00  0.00    +0.016 C 
BRANCH   8  11
ATOM     11  C   UNL     1       5.873  -2.701  24.369  0.00  0.00    +0.208 C 
BRANCH  11  14
ATOM     12  N   UNL     1       6.543  -0.561  25.378  0.00  0.00    -0.313 N 
ATOM     13  H   UNL     1       5.918  -0.196  24.663  0.00  0.00    +0.149 HD
ATOM     14  C   UNL     1       6.403  -1.935  25.610  0.00  0.00    +0.242 C 
ATOM     15  O   UNL     1       6.658  -2.448  26.691  0.00  0.00    -0.273 OA
BRANCH  12  16
ATOM     16  C   UNL     1       6.735   0.335  26.515  0.00  0.00    +0.113 C 
BRANCH  16  17
ATOM     17  C   UNL     1       5.468   0.936  27.114  0.00  0.00    +0.114 C 
BRANCH  17  20
ATOM     18  N   UNL     1       4.394  -1.000  28.328  0.00  0.00    -0.314 N 
ATOM     19  H   UNL     1       5.299  -1.163  28.751  0.00  0.00    +0.149 HD
ATOM     20  C   UNL     1       4.262   0.028  27.408  0.00  0.00    +0.215 C 
ATOM     21  O   UNL     1       3.254   0.136  26.707  0.00  0.00    -0.276 OA
BRANCH  18  22
ATOM     22  C   UNL     1       3.364  -2.080  28.568  0.00  0.00    +0.115 C 
BRANCH  22  23
ATOM     23  C   UNL     1       3.881  -3.565  28.537  0.00  0.00    +0.096 C 
BRANCH  23  24
ATOM     24  S   UNL     1       3.319  -4.193  26.943  0.00  0.00    -0.086 S 
BRANCH  24  25
ATOM     25  C   UNL     1       3.128  -5.939  26.841  0.00  0.00    +0.196 C 
ATOM     26  O   UNL     1       3.730  -6.570  27.718  0.00  0.00    -0.285 OA
BRANCH  25  27
ATOM     27  C   UNL     1       2.407  -6.670  25.761  0.00  0.00    +0.160 C 
BRANCH  27  29
ATOM     28  C   UNL     1       2.774  -6.158  23.165  0.00  0.00    +0.086 C 
ATOM     29  C   UNL     1       3.196  -6.835  24.443  0.00  0.00    +0.138 C 
ATOM     30  O   UNL     1       4.161  -7.597  24.427  0.00  0.00    -0.297 OA
ENDBRANCH  27  29
ENDBRANCH  25  27
ENDBRANCH  24  25
ENDBRANCH  23  24
ENDBRANCH  22  23
ENDBRANCH  18  22
ENDBRANCH  17  20
ENDBRANCH  16  17
ENDBRANCH  12  16
ENDBRANCH  11  14
BRANCH  11  31
ATOM     31  O   UNL     1       5.699  -1.787  23.295  0.00  0.00    -0.382 OA
ATOM     32  H   UNL     1       6.574  -1.436  23.030  0.00  0.00    +0.210 HD
ENDBRANCH  11  31
ENDBRANCH   8  11
ENDBRANCH   7   8
ENDBRANCH   6   7
ENDBRANCH   2   6
ENDBRANCH   1   2
BRANCH   1  33
ATOM     33  P   UNL     1       8.912   0.436  21.734  0.00  0.00    +0.483 P 
ATOM     34  O   UNL     1       7.946   1.368  21.098  0.00  0.00    -0.227 OA
BRANCH  33  35
ATOM     35  O   UNL     1       9.475  -0.703  20.759  0.00  0.00    -0.302 OA
ATOM     36  H   UNL     1       9.668  -0.362  19.848  0.00  0.00    +0.222 HD
ENDBRANCH  33  35
BRANCH  33  37
ATOM     37  O   UNL     1      10.272   1.045  22.213  0.00  0.00    -0.284 OA
BRANCH  37  38
ATOM     38  C   UNL     1      10.654   2.386  22.239  0.00  0.00    +0.206 C 
BRANCH  38  39
ATOM     39  C   UNL     1      10.656   2.855  23.667  0.00  0.00    +0.179 C 
ATOM     40  C   UNL     1      11.060   4.255  23.522  0.00  0.00    +0.194 C 
ATOM     41  C   UNL     1       9.966   5.162  23.946  0.00  0.00    +0.196 C 
ATOM     42  C   UNL     1       8.782   4.190  24.031  0.00  0.00    +0.253 C 
ATOM     43  O   UNL     1       9.337   2.871  24.230  0.00  0.00    -0.346 OA
BRANCH  42  44
ATOM     44  N   UNL     1       7.965   4.588  25.124  0.00  0.00    -0.286 N 
ATOM     45  C   UNL     1       6.630   4.296  25.189  0.00  0.00    +0.167 A 
ATOM     46  N   UNL     1       5.919   3.481  24.391  0.00  0.00    -0.216 NA
ATOM     47  C   UNL     1       4.609   3.533  24.706  0.00  0.00    +0.225 A 
ATOM     48  N   UNL     1       4.010   4.305  25.638  0.00  0.00    -0.219 NA
ATOM     49  C   UNL     1       4.781   5.158  26.349  0.00  0.00    +0.147 A 
ATOM     50  N   UNL     1       4.196   5.999  27.280  0.00  0.00    -0.341 N 
ATOM     51  H   UNL     1       4.857   6.355  27.971  0.00  0.00    +0.144 HD
ATOM     52  H   UNL     1       3.308   5.664  27.615  0.00  0.00    +0.144 HD
ATOM     53  C   UNL     1       6.168   5.152  26.158  0.00  0.00    +0.147 A 
ATOM     54  N   UNL     1       7.180   5.870  26.737  0.00  0.00    -0.231 NA
ATOM     55  C   UNL     1       8.255   5.505  26.081  0.00  0.00    +0.203 A 
ENDBRANCH  42  44
BRANCH  41  56
ATOM     56  O   UNL     1       9.803   6.186  22.944  0.00  0.00    -0.385 OA
ATOM     57  H   UNL     1      10.662   6.663  22.885  0.00  0.00    +0.210 HD
ENDBRANCH  41  56
BRANCH  40  58
ATOM     58  O   UNL     1      12.385   4.383  23.800  0.00  0.00    -0.278 OA
BRANCH  58  59
ATOM     59  P   UNL     1      13.107   5.382  22.586  0.00  0.00    +0.473 P 
ATOM     60  O   UNL     1      13.753   6.276  21.499  0.00  0.00    -0.228 OA
BRANCH  59  61
ATOM     61  O   UNL     1      12.932   6.570  23.706  0.00  0.00    -0.303 OA
ATOM     62  H   UNL     1      13.145   6.168  24.569  0.00  0.00    +0.222 HD
ENDBRANCH  59  61
BRANCH  59  63
ATOM     63  O   UNL     1      14.522   4.921  23.283  0.00  0.00    -0.303 OA
ATOM     64  H   UNL     1      14.743   3.994  23.092  0.00  0.00    +0.222 HD
ENDBRANCH  59  63
ENDBRANCH  58  59
ENDBRANCH  40  58
ENDBRANCH  38  39
ENDBRANCH  37  38
ENDBRANCH  33  37
ENDBRANCH   1  33
TORSDOF 28
ENDMDL
MODEL 6
REMARK VINA RESULT:      -5.5      2.999      8.097
REMARK  Name = 
REMARK  31 active torsions:
REMARK  status: ('A' for Active; 'I' for Inactive)
REMARK    1  A    between atoms: C_1  and  C_2
REMARK    2  A    between atoms: C_2  and  C_4
REMARK    3  A    between atoms: C_4  and  C_5
REMARK    4  A    between atoms: C_5  and  S_7
REMARK    5  A    between atoms: S_7  and  C_8
REMARK    6  A    between atoms: C_8  and  C_9
REMARK    7  A    between atoms: C_9  and  N_10
REMARK    8  A    between atoms: C_11  and  C_13
REMARK    9  A    between atoms: C_13  and  C_14
REMARK   10  A    between atoms: C_14  and  N_15
REMARK   11  A    between atoms: C_16  and  C_18
REMARK   12  A    between atoms: C_18  and  O_20
REMARK   13  A    between atoms: C_18  and  C_21
REMARK   14  A    between atoms: C_21  and  C_22
REMARK   15  A    between atoms: C_21  and  C_23
REMARK   16  A    between atoms: C_21  and  C_24
REMARK   17  A    between atoms: C_24  and  O_25
REMARK   18  A    between atoms: O_25  and  P_26
REMARK   19  A    between atoms: P_26  and  O_27
REMARK   20  A    between atoms: P_26  and  O_29
REMARK   21  A    between atoms: O_29  and  P_30
REMARK   22  A    between atoms: P_30  and  O_31
REMARK   23  A    between atoms: P_30  and  O_33
REMARK   24  A    between atoms: O_33  and  C_34
REMARK   25  A    between atoms: C_34  and  C_35
REMARK   26  A    between atoms: C_38  and  N_50
REMARK   27  A    between atoms: C_40  and  O_42
REMARK   28  A    between atoms: C_43  and  O_45
REMARK   29  A    between atoms: O_45  and  P_46
REMARK   30  A    between atoms: P_46  and  O_47
REMARK   31  A    between atoms: P_46  and  O_48
REMARK                            x       y       z     vdW  Elec       q    Type
REMARK                         _______ _______ _______ _____ _____    ______ ____
ROOT
ATOM      1  O   UNL     1       2.767   1.521  26.179  0.00  0.00    -0.186 OA
ENDROOT
BRANCH   1   2
ATOM      2  P   UNL     1       4.391   2.090  26.012  0.00  0.00    +0.483 P 
ATOM      3  O   UNL     1       4.686   1.128  24.849  0.00  0.00    -0.227 OA
BRANCH   2   4
ATOM      4  O   UNL     1       6.017   2.659  25.845  0.00  0.00    -0.302 OA
ATOM      5  H   UNL     1       6.553   1.895  26.138  0.00  0.00    +0.222 HD
ENDBRANCH   2   4
BRANCH   2   6
ATOM      6  O   UNL     1       3.850   3.387  25.162  0.00  0.00    -0.286 OA
BRANCH   6   7
ATOM      7  C   UNL     1       4.644   4.417  24.608  0.00  0.00    +0.181 C 
BRANCH   7   8
ATOM      8  C   UNL     1       4.680   4.432  23.055  0.00  0.00    +0.024 C 
ATOM      9  C   UNL     1       3.535   3.566  22.506  0.00  0.00    +0.016 C 
ATOM     10  C   UNL     1       4.341   5.854  22.630  0.00  0.00    +0.016 C 
BRANCH   8  11
ATOM     11  C   UNL     1       6.026   3.876  22.484  0.00  0.00    +0.208 C 
BRANCH  11  14
ATOM     12  N   UNL     1       8.068   4.053  23.844  0.00  0.00    -0.313 N 
ATOM     13  H   UNL     1       7.936   3.046  23.908  0.00  0.00    +0.149 HD
ATOM     14  C   UNL     1       7.319   4.662  22.829  0.00  0.00    +0.242 C 
ATOM     15  O   UNL     1       7.678   5.692  22.276  0.00  0.00    -0.273 OA
BRANCH  12  16
ATOM     16  C   UNL     1       9.442   4.490  24.072  0.00  0.00    +0.113 C 
BRANCH  16  17
ATOM     17  C   UNL     1      10.522   3.718  23.323  0.00  0.00    +0.114 C 
BRANCH  17  20
ATOM     18  N   UNL     1       9.836   1.758  21.887  0.00  0.00    -0.314 N 
ATOM     19  H   UNL     1       9.532   2.439  21.203  0.00  0.00    +0.149 HD
ATOM     20  C   UNL     1      10.354   2.207  23.091  0.00  0.00    +0.215 C 
ATOM     21  O   UNL     1      10.536   1.438  24.038  0.00  0.00    -0.276 OA
BRANCH  18  22
ATOM     22  C   UNL     1       9.437   0.329  21.600  0.00  0.00    +0.115 C 
BRANCH  22  23
ATOM     23  C   UNL     1       8.300  -0.279  22.502  0.00  0.00    +0.096 C 
BRANCH  23  24
ATOM     24  S   UNL     1       8.295  -2.032  22.081  0.00  0.00    -0.086 S 
BRANCH  24  25
ATOM     25  C   UNL     1       6.835  -2.911  22.517  0.00  0.00    +0.196 C 
ATOM     26  O   UNL     1       5.809  -2.220  22.536  0.00  0.00    -0.285 OA
BRANCH  25  27
ATOM     27  C   UNL     1       6.777  -4.338  22.943  0.00  0.00    +0.160 C 
BRANCH  27  29
ATOM     28  C   UNL     1       6.442  -5.944  20.833  0.00  0.00    +0.086 C 
ATOM     29  C   UNL     1       5.900  -5.251  22.056  0.00  0.00    +0.138 C 
ATOM     30  O   UNL     1       4.705  -5.359  22.326  0.00  0.00    -0.297 OA
ENDBRANCH  27  29
ENDBRANCH  25  27
ENDBRANCH  24  25
ENDBRANCH  23  24
ENDBRANCH  22  23
ENDBRANCH  18  22
ENDBRANCH  17  20
ENDBRANCH  16  17
ENDBRANCH  12  16
ENDBRANCH  11  14
BRANCH  11  31
ATOM     31  O   UNL     1       6.219   2.501  22.791  0.00  0.00    -0.382 OA
ATOM     32  H   UNL     1       6.857   2.119  22.155  0.00  0.00    +0.210 HD
ENDBRANCH  11  31
ENDBRANCH   8  11
ENDBRANCH   7   8
ENDBRANCH   6   7
ENDBRANCH   2   6
ENDBRANCH   1   2
BRANCH   1  33
ATOM     33  P   UNL     1       3.163   0.680  27.498  0.00  0.00    +0.483 P 
ATOM     34  O   UNL     1       2.696   1.389  28.717  0.00  0.00    -0.227 OA
BRANCH  33  35
ATOM     35  O   UNL     1       4.735   0.375  27.470  0.00  0.00    -0.302 OA
ATOM     36  H   UNL     1       5.057  -0.039  28.312  0.00  0.00    +0.222 HD
ENDBRANCH  33  35
BRANCH  33  37
ATOM     37  O   UNL     1       2.625  -0.772  27.274  0.00  0.00    -0.284 OA
BRANCH  37  38
ATOM     38  C   UNL     1       2.327  -1.738  28.234  0.00  0.00    +0.206 C 
BRANCH  38  39
ATOM     39  C   UNL     1       2.795  -3.074  27.728  0.00  0.00    +0.179 C 
ATOM     40  C   UNL     1       3.009  -2.798  26.306  0.00  0.00    +0.194 C 
ATOM     41  C   UNL     1       4.445  -2.934  25.957  0.00  0.00    +0.196 C 
ATOM     42  C   UNL     1       5.091  -2.981  27.348  0.00  0.00    +0.253 C 
ATOM     43  O   UNL     1       4.073  -3.436  28.267  0.00  0.00    -0.346 OA
BRANCH  42  44
ATOM     44  N   UNL     1       6.189  -3.882  27.290  0.00  0.00    -0.286 N 
ATOM     45  C   UNL     1       7.356  -3.578  26.645  0.00  0.00    +0.167 A 
ATOM     46  N   UNL     1       7.741  -2.395  26.138  0.00  0.00    -0.216 NA
ATOM     47  C   UNL     1       8.914  -2.517  25.483  0.00  0.00    +0.225 A 
ATOM     48  N   UNL     1       9.634  -3.640  25.276  0.00  0.00    -0.219 NA
ATOM     49  C   UNL     1       9.144  -4.808  25.748  0.00  0.00    +0.147 A 
ATOM     50  N   UNL     1       9.831  -5.986  25.514  0.00  0.00    -0.341 N 
ATOM     51  H   UNL     1       9.576  -6.734  26.157  0.00  0.00    +0.144 HD
ATOM     52  H   UNL     1      10.811  -5.845  25.330  0.00  0.00    +0.144 HD
ATOM     53  C   UNL     1       7.964  -4.802  26.501  0.00  0.00    +0.147 A 
ATOM     54  N   UNL     1       7.258  -5.803  27.114  0.00  0.00    -0.231 NA
ATOM     55  C   UNL     1       6.185  -5.208  27.578  0.00  0.00    +0.203 A 
ENDBRANCH  42  44
BRANCH  41  56
ATOM     56  O   UNL     1       4.838  -1.788  25.175  0.00  0.00    -0.385 OA
ATOM     57  H   UNL     1       4.312  -1.819  24.343  0.00  0.00    +0.210 HD
ENDBRANCH  41  56
BRANCH  40  58
ATOM     58  O   UNL     1       1.945  -3.242  25.585  0.00  0.00    -0.278 OA
BRANCH  58  59
ATOM     59  P   UNL     1       2.130  -4.942  25.320  0.00  0.00    +0.473 P 
ATOM     60  O   UNL     1       2.295  -6.463  25.085  0.00  0.00    -0.228 OA
BRANCH  59  61
ATOM     61  O   UNL     1       0.488  -4.940  25.299  0.00  0.00    -0.303 OA
ATOM     62  H   UNL     1       0.200  -5.166  26.202  0.00  0.00    +0.222 HD
ENDBRANCH  59  61
BRANCH  59  63
ATOM     63  O   UNL     1       2.160  -4.524  23.732  0.00  0.00    -0.303 OA
ATOM     64  H   UNL     1       2.513  -5.234  23.170  0.00  0.00    +0.222 HD
ENDBRANCH  59  63
ENDBRANCH  58  59
ENDBRANCH  40  58
ENDBRANCH  38  39
ENDBRANCH  37  38
ENDBRANCH  33  37
ENDBRANCH   1  33
TORSDOF 28
ENDMDL
MODEL 7
REMARK VINA RESULT:      -5.5      3.423      8.013
REMARK  Name = 
REMARK  31 active torsions:
REMARK  status: ('A' for Active; 'I' for Inactive)
REMARK    1  A    between atoms: C_1  and  C_2
REMARK    2  A    between atoms: C_2  and  C_4
REMARK    3  A    between atoms: C_4  and  C_5
REMARK    4  A    between atoms: C_5  and  S_7
REMARK    5  A    between atoms: S_7  and  C_8
REMARK    6  A    between atoms: C_8  and  C_9
REMARK    7  A    between atoms: C_9  and  N_10
REMARK    8  A    between atoms: C_11  and  C_13
REMARK    9  A    between atoms: C_13  and  C_14
REMARK   10  A    between atoms: C_14  and  N_15
REMARK   11  A    between atoms: C_16  and  C_18
REMARK   12  A    between atoms: C_18  and  O_20
REMARK   13  A    between atoms: C_18  and  C_21
REMARK   14  A    between atoms: C_21  and  C_22
REMARK   15  A    between atoms: C_21  and  C_23
REMARK   16  A    between atoms: C_21  and  C_24
REMARK   17  A    between atoms: C_24  and  O_25
REMARK   18  A    between atoms: O_25  and  P_26
REMARK   19  A    between atoms: P_26  and  O_27
REMARK   20  A    between atoms: P_26  and  O_29
REMARK   21  A    between atoms: O_29  and  P_30
REMARK   22  A    between atoms: P_30  and  O_31
REMARK   23  A    between atoms: P_30  and  O_33
REMARK   24  A    between atoms: O_33  and  C_34
REMARK   25  A    between atoms: C_34  and  C_35
REMARK   26  A    between atoms: C_38  and  N_50
REMARK   27  A    between atoms: C_40  and  O_42
REMARK   28  A    between atoms: C_43  and  O_45
REMARK   29  A    between atoms: O_45  and  P_46
REMARK   30  A    between atoms: P_46  and  O_47
REMARK   31  A    between atoms: P_46  and  O_48
REMARK                            x       y       z     vdW  Elec       q    Type
REMARK                         _______ _______ _______ _____ _____    ______ ____
ROOT
ATOM      1  O   UNL     1       3.105   0.069  26.750  0.00  0.00    -0.186 OA
ENDROOT
BRANCH   1   2
ATOM      2  P   UNL     1       4.169   1.389  26.405  0.00  0.00    +0.483 P 
ATOM      3  O   UNL     1       4.788   0.668  25.196  0.00  0.00    -0.227 OA
BRANCH   2   4
ATOM      4  O   UNL     1       5.234   2.709  26.059  0.00  0.00    -0.302 OA
ATOM      5  H   UNL     1       5.624   2.462  25.197  0.00  0.00    +0.222 HD
ENDBRANCH   2   4
BRANCH   2   6
ATOM      6  O   UNL     1       2.944   2.181  25.650  0.00  0.00    -0.286 OA
BRANCH   6   7
ATOM      7  C   UNL     1       2.866   3.572  25.409  0.00  0.00    +0.181 C 
BRANCH   7   8
ATOM      8  C   UNL     1       2.511   3.948  23.944  0.00  0.00    +0.024 C 
ATOM      9  C   UNL     1       1.370   3.047  23.445  0.00  0.00    +0.016 C 
ATOM     10  C   UNL     1       1.918   5.350  23.992  0.00  0.00    +0.016 C 
BRANCH   8  11
ATOM     11  C   UNL     1       3.725   3.777  22.973  0.00  0.00    +0.208 C 
BRANCH  11  14
ATOM     12  N   UNL     1       5.980   4.465  23.676  0.00  0.00    -0.313 N 
ATOM     13  H   UNL     1       6.133   3.459  23.656  0.00  0.00    +0.149 HD
ATOM     14  C   UNL     1       4.819   4.878  23.010  0.00  0.00    +0.242 C 
ATOM     15  O   UNL     1       4.712   5.985  22.500  0.00  0.00    -0.273 OA
BRANCH  12  16
ATOM     16  C   UNL     1       7.199   5.257  23.536  0.00  0.00    +0.113 C 
BRANCH  16  17
ATOM     17  C   UNL     1       8.461   4.654  24.143  0.00  0.00    +0.114 C 
BRANCH  17  20
ATOM     18  N   UNL     1       8.596   2.237  24.858  0.00  0.00    -0.314 N 
ATOM     19  H   UNL     1       8.809   2.022  23.892  0.00  0.00    +0.149 HD
ATOM     20  C   UNL     1       8.341   3.553  25.209  0.00  0.00    +0.215 C 
ATOM     21  O   UNL     1       7.869   3.844  26.310  0.00  0.00    -0.276 OA
BRANCH  18  22
ATOM     22  C   UNL     1       8.329   1.042  25.743  0.00  0.00    +0.115 C 
BRANCH  22  23
ATOM     23  C   UNL     1       8.274  -0.362  25.034  0.00  0.00    +0.096 C 
BRANCH  23  24
ATOM     24  S   UNL     1       9.931  -0.578  24.358  0.00  0.00    -0.086 S 
BRANCH  24  25
ATOM     25  C   UNL     1      10.002  -1.147  22.695  0.00  0.00    +0.196 C 
ATOM     26  O   UNL     1      10.518  -2.263  22.559  0.00  0.00    -0.285 OA
BRANCH  25  27
ATOM     27  C   UNL     1       9.594  -0.366  21.493  0.00  0.00    +0.160 C 
BRANCH  27  29
ATOM     28  C   UNL     1       7.953   1.742  21.552  0.00  0.00    +0.086 C 
ATOM     29  C   UNL     1       9.316   1.133  21.750  0.00  0.00    +0.138 C 
ATOM     30  O   UNL     1      10.257   1.860  22.064  0.00  0.00    -0.297 OA
ENDBRANCH  27  29
ENDBRANCH  25  27
ENDBRANCH  24  25
ENDBRANCH  23  24
ENDBRANCH  22  23
ENDBRANCH  18  22
ENDBRANCH  17  20
ENDBRANCH  16  17
ENDBRANCH  12  16
ENDBRANCH  11  14
BRANCH  11  31
ATOM     31  O   UNL     1       4.342   2.502  23.093  0.00  0.00    -0.382 OA
ATOM     32  H   UNL     1       3.755   1.911  23.607  0.00  0.00    +0.210 HD
ENDBRANCH  11  31
ENDBRANCH   8  11
ENDBRANCH   7   8
ENDBRANCH   6   7
ENDBRANCH   2   6
ENDBRANCH   1   2
BRANCH   1  33
ATOM     33  P   UNL     1       4.028  -0.392  27.989  0.00  0.00    +0.483 P 
ATOM     34  O   UNL     1       3.376  -0.035  29.275  0.00  0.00    -0.227 OA
BRANCH  33  35
ATOM     35  O   UNL     1       5.498   0.215  27.800  0.00  0.00    -0.302 OA
ATOM     36  H   UNL     1       6.022   0.212  28.643  0.00  0.00    +0.222 HD
ENDBRANCH  33  35
BRANCH  33  37
ATOM     37  O   UNL     1       4.354  -1.905  27.757  0.00  0.00    -0.284 OA
BRANCH  37  38
ATOM     38  C   UNL     1       5.576  -2.481  27.415  0.00  0.00    +0.206 C 
BRANCH  38  39
ATOM     39  C   UNL     1       5.533  -2.868  25.963  0.00  0.00    +0.179 C 
ATOM     40  C   UNL     1       6.353  -4.082  25.952  0.00  0.00    +0.194 C 
ATOM     41  C   UNL     1       5.534  -5.262  25.582  0.00  0.00    +0.196 C 
ATOM     42  C   UNL     1       4.114  -4.697  25.706  0.00  0.00    +0.253 C 
ATOM     43  O   UNL     1       4.219  -3.265  25.551  0.00  0.00    -0.346 OA
BRANCH  42  44
ATOM     44  N   UNL     1       3.319  -5.281  24.682  0.00  0.00    -0.286 N 
ATOM     45  C   UNL     1       2.592  -6.423  24.877  0.00  0.00    +0.167 A 
ATOM     46  N   UNL     1       2.352  -7.067  26.032  0.00  0.00    -0.216 NA
ATOM     47  C   UNL     1       1.681  -8.216  25.805  0.00  0.00    +0.225 A 
ATOM     48  N   UNL     1       1.315  -8.740  24.616  0.00  0.00    -0.219 NA
ATOM     49  C   UNL     1       1.661  -8.073  23.492  0.00  0.00    +0.147 A 
ATOM     50  N   UNL     1       1.343  -8.605  22.254  0.00  0.00    -0.341 N 
ATOM     51  H   UNL     1       1.347  -7.911  21.507  0.00  0.00    +0.144 HD
ATOM     52  H   UNL     1       0.572  -9.251  22.285  0.00  0.00    +0.144 HD
ATOM     53  C   UNL     1       2.304  -6.835  23.599  0.00  0.00    +0.147 A 
ATOM     54  N   UNL     1       2.744  -5.942  22.659  0.00  0.00    -0.231 NA
ATOM     55  C   UNL     1       3.359  -5.014  23.352  0.00  0.00    +0.203 A 
ENDBRANCH  42  44
BRANCH  41  56
ATOM     56  O   UNL     1       5.817  -6.327  26.513  0.00  0.00    -0.385 OA
ATOM     57  H   UNL     1       6.654  -6.087  26.973  0.00  0.00    +0.210 HD
ENDBRANCH  41  56
BRANCH  40  58
ATOM     58  O   UNL     1       7.608  -3.787  25.519  0.00  0.00    -0.278 OA
BRANCH  58  59
ATOM     59  P   UNL     1       7.974  -4.796  24.163  0.00  0.00    +0.473 P 
ATOM     60  O   UNL     1       8.302  -5.700  22.950  0.00  0.00    -0.228 OA
BRANCH  59  61
ATOM     61  O   UNL     1       7.696  -3.432  23.293  0.00  0.00    -0.303 OA
ATOM     62  H   UNL     1       8.035  -2.690  23.828  0.00  0.00    +0.222 HD
ENDBRANCH  59  61
BRANCH  59  63
ATOM     63  O   UNL     1       9.522  -4.318  24.435  0.00  0.00    -0.303 OA
ATOM     64  H   UNL     1       9.637  -3.359  24.325  0.00  0.00    +0.222 HD
ENDBRANCH  59  63
ENDBRANCH  58  59
ENDBRANCH  40  58
ENDBRANCH  38  39
ENDBRANCH  37  38
ENDBRANCH  33  37
ENDBRANCH   1  33
TORSDOF 28
ENDMDL
MODEL 8
REMARK VINA RESULT:      -5.5      2.285      3.882
REMARK  Name = 
REMARK  31 active torsions:
REMARK  status: ('A' for Active; 'I' for Inactive)
REMARK    1  A    between atoms: C_1  and  C_2
REMARK    2  A    between atoms: C_2  and  C_4
REMARK    3  A    between atoms: C_4  and  C_5
REMARK    4  A    between atoms: C_5  and  S_7
REMARK    5  A    between atoms: S_7  and  C_8
REMARK    6  A    between atoms: C_8  and  C_9
REMARK    7  A    between atoms: C_9  and  N_10
REMARK    8  A    between atoms: C_11  and  C_13
REMARK    9  A    between atoms: C_13  and  C_14
REMARK   10  A    between atoms: C_14  and  N_15
REMARK   11  A    between atoms: C_16  and  C_18
REMARK   12  A    between atoms: C_18  and  O_20
REMARK   13  A    between atoms: C_18  and  C_21
REMARK   14  A    between atoms: C_21  and  C_22
REMARK   15  A    between atoms: C_21  and  C_23
REMARK   16  A    between atoms: C_21  and  C_24
REMARK   17  A    between atoms: C_24  and  O_25
REMARK   18  A    between atoms: O_25  and  P_26
REMARK   19  A    between atoms: P_26  and  O_27
REMARK   20  A    between atoms: P_26  and  O_29
REMARK   21  A    between atoms: O_29  and  P_30
REMARK   22  A    between atoms: P_30  and  O_31
REMARK   23  A    between atoms: P_30  and  O_33
REMARK   24  A    between atoms: O_33  and  C_34
REMARK   25  A    between atoms: C_34  and  C_35
REMARK   26  A    between atoms: C_38  and  N_50
REMARK   27  A    between atoms: C_40  and  O_42
REMARK   28  A    between atoms: C_43  and  O_45
REMARK   29  A    between atoms: O_45  and  P_46
REMARK   30  A    between atoms: P_46  and  O_47
REMARK   31  A    between atoms: P_46  and  O_48
REMARK                            x       y       z     vdW  Elec       q    Type
REMARK                         _______ _______ _______ _____ _____    ______ ____
ROOT
ATOM      1  O   UNL     1       2.942  -2.483  26.354  0.00  0.00    -0.186 OA
ENDROOT
BRANCH   1   2
ATOM      2  P   UNL     1       3.273  -2.699  28.038  0.00  0.00    +0.483 P 
ATOM      3  O   UNL     1       4.787  -2.518  27.838  0.00  0.00    -0.227 OA
BRANCH   2   4
ATOM      4  O   UNL     1       3.604  -2.915  29.723  0.00  0.00    -0.302 OA
ATOM      5  H   UNL     1       2.712  -2.996  30.117  0.00  0.00    +0.222 HD
ENDBRANCH   2   4
BRANCH   2   6
ATOM      6  O   UNL     1       2.849  -1.137  28.322  0.00  0.00    -0.286 OA
BRANCH   6   7
ATOM      7  C   UNL     1       2.759  -0.104  27.361  0.00  0.00    +0.181 C 
BRANCH   7   8
ATOM      8  C   UNL     1       3.919   0.928  27.423  0.00  0.00    +0.024 C 
ATOM      9  C   UNL     1       3.365   2.338  27.166  0.00  0.00    +0.016 C 
ATOM     10  C   UNL     1       4.401   0.948  28.868  0.00  0.00    +0.016 C 
BRANCH   8  11
ATOM     11  C   UNL     1       5.029   0.641  26.361  0.00  0.00    +0.208 C 
BRANCH  11  14
ATOM     12  N   UNL     1       7.088  -0.645  26.762  0.00  0.00    -0.313 N 
ATOM     13  H   UNL     1       6.690  -1.230  26.030  0.00  0.00    +0.149 HD
ATOM     14  C   UNL     1       6.499   0.622  26.861  0.00  0.00    +0.242 C 
ATOM     15  O   UNL     1       7.105   1.598  27.282  0.00  0.00    -0.273 OA
BRANCH  12  16
ATOM     16  C   UNL     1       8.536  -0.767  26.900  0.00  0.00    +0.113 C 
BRANCH  16  17
ATOM     17  C   UNL     1       9.342  -0.661  25.611  0.00  0.00    +0.114 C 
BRANCH  17  20
ATOM     18  N   UNL     1       9.044   1.807  25.171  0.00  0.00    -0.314 N 
ATOM     19  H   UNL     1       8.073   1.677  25.424  0.00  0.00    +0.149 HD
ATOM     20  C   UNL     1       9.886   0.706  25.164  0.00  0.00    +0.215 C 
ATOM     21  O   UNL     1      11.011   0.761  24.661  0.00  0.00    -0.276 OA
BRANCH  18  22
ATOM     22  C   UNL     1       9.384   3.155  24.579  0.00  0.00    +0.115 C 
BRANCH  22  23
ATOM     23  C   UNL     1       8.694   4.407  25.235  0.00  0.00    +0.096 C 
BRANCH  23  24
ATOM     24  S   UNL     1       8.573   5.599  23.888  0.00  0.00    -0.086 S 
BRANCH  24  25
ATOM     25  C   UNL     1       7.066   5.566  22.981  0.00  0.00    +0.196 C 
ATOM     26  O   UNL     1       7.193   5.252  21.791  0.00  0.00    -0.285 OA
BRANCH  25  27
ATOM     27  C   UNL     1       5.731   5.972  23.504  0.00  0.00    +0.160 C 
BRANCH  27  29
ATOM     28  C   UNL     1       3.974   3.973  23.750  0.00  0.00    +0.086 C 
ATOM     29  C   UNL     1       5.004   4.898  24.345  0.00  0.00    +0.138 C 
ATOM     30  O   UNL     1       5.230   4.845  25.553  0.00  0.00    -0.297 OA
ENDBRANCH  27  29
ENDBRANCH  25  27
ENDBRANCH  24  25
ENDBRANCH  23  24
ENDBRANCH  22  23
ENDBRANCH  18  22
ENDBRANCH  17  20
ENDBRANCH  16  17
ENDBRANCH  12  16
ENDBRANCH  11  14
BRANCH  11  31
ATOM     31  O   UNL     1       4.775  -0.542  25.614  0.00  0.00    -0.382 OA
ATOM     32  H   UNL     1       5.083  -1.316  26.129  0.00  0.00    +0.210 HD
ENDBRANCH  11  31
ENDBRANCH   8  11
ENDBRANCH   7   8
ENDBRANCH   6   7
ENDBRANCH   2   6
ENDBRANCH   1   2
BRANCH   1  33
ATOM     33  P   UNL     1       2.518  -4.033  26.207  0.00  0.00    +0.483 P 
ATOM     34  O   UNL     1       1.245  -4.146  25.450  0.00  0.00    -0.227 OA
BRANCH  33  35
ATOM     35  O   UNL     1       2.488  -4.707  27.659  0.00  0.00    -0.302 OA
ATOM     36  H   UNL     1       3.311  -5.225  27.855  0.00  0.00    +0.222 HD
ENDBRANCH  33  35
BRANCH  33  37
ATOM     37  O   UNL     1       3.762  -4.776  25.615  0.00  0.00    -0.284 OA
BRANCH  37  38
ATOM     38  C   UNL     1       4.486  -4.464  24.466  0.00  0.00    +0.206 C 
BRANCH  38  39
ATOM     39  C   UNL     1       5.817  -3.899  24.877  0.00  0.00    +0.179 C 
ATOM     40  C   UNL     1       6.746  -4.890  24.330  0.00  0.00    +0.194 C 
ATOM     41  C   UNL     1       7.590  -4.287  23.271  0.00  0.00    +0.196 C 
ATOM     42  C   UNL     1       6.855  -2.965  23.012  0.00  0.00    +0.253 C 
ATOM     43  O   UNL     1       6.106  -2.663  24.210  0.00  0.00    -0.346 OA
BRANCH  42  44
ATOM     44  N   UNL     1       7.830  -1.968  22.736  0.00  0.00    -0.286 N 
ATOM     45  C   UNL     1       7.531  -0.633  22.723  0.00  0.00    +0.167 A 
ATOM     46  N   UNL     1       6.397  -0.032  23.119  0.00  0.00    -0.216 NA
ATOM     47  C   UNL     1       6.442   1.290  22.854  0.00  0.00    +0.225 A 
ATOM     48  N   UNL     1       7.425   1.978  22.234  0.00  0.00    -0.219 NA
ATOM     49  C   UNL     1       8.502   1.291  21.792  0.00  0.00    +0.147 A 
ATOM     50  N   UNL     1       9.507   1.955  21.110  0.00  0.00    -0.341 N 
ATOM     51  H   UNL     1      10.391   1.447  21.105  0.00  0.00    +0.144 HD
ATOM     52  H   UNL     1       9.538   2.941  21.309  0.00  0.00    +0.144 HD
ATOM     53  C   UNL     1       8.601  -0.079  22.064  0.00  0.00    +0.147 A 
ATOM     54  N   UNL     1       9.564  -1.008  21.770  0.00  0.00    -0.231 NA
ATOM     55  C   UNL     1       9.059  -2.143  22.188  0.00  0.00    +0.203 A 
ENDBRANCH  42  44
BRANCH  41  56
ATOM     56  O   UNL     1       7.604  -5.173  22.133  0.00  0.00    -0.385 OA
ATOM     57  H   UNL     1       7.116  -5.985  22.401  0.00  0.00    +0.210 HD
ENDBRANCH  41  56
BRANCH  40  58
ATOM     58  O   UNL     1       7.147  -5.738  25.314  0.00  0.00    -0.278 OA
BRANCH  58  59
ATOM     59  P   UNL     1       8.359  -4.947  26.262  0.00  0.00    +0.473 P 
ATOM     60  O   UNL     1       9.443  -4.239  27.110  0.00  0.00    -0.228 OA
BRANCH  59  61
ATOM     61  O   UNL     1       7.903  -6.017  27.421  0.00  0.00    -0.303 OA
ATOM     62  H   UNL     1       6.973  -6.244  27.237  0.00  0.00    +0.222 HD
ENDBRANCH  59  61
BRANCH  59  63
ATOM     63  O   UNL     1       9.366  -6.069  25.610  0.00  0.00    -0.303 OA
ATOM     64  H   UNL     1      10.245  -5.705  25.410  0.00  0.00    +0.222 HD
ENDBRANCH  59  63
ENDBRANCH  58  59
ENDBRANCH  40  58
ENDBRANCH  38  39
ENDBRANCH  37  38
ENDBRANCH  33  37
ENDBRANCH   1  33
TORSDOF 28
ENDMDL
MODEL 9
REMARK VINA RESULT:      -5.5      3.118      6.898
REMARK  Name = 
REMARK  31 active torsions:
REMARK  status: ('A' for Active; 'I' for Inactive)
REMARK    1  A    between atoms: C_1  and  C_2
REMARK    2  A    between atoms: C_2  and  C_4
REMARK    3  A    between atoms: C_4  and  C_5
REMARK    4  A    between atoms: C_5  and  S_7
REMARK    5  A    between atoms: S_7  and  C_8
REMARK    6  A    between atoms: C_8  and  C_9
REMARK    7  A    between atoms: C_9  and  N_10
REMARK    8  A    between atoms: C_11  and  C_13
REMARK    9  A    between atoms: C_13  and  C_14
REMARK   10  A    between atoms: C_14  and  N_15
REMARK   11  A    between atoms: C_16  and  C_18
REMARK   12  A    between atoms: C_18  and  O_20
REMARK   13  A    between atoms: C_18  and  C_21
REMARK   14  A    between atoms: C_21  and  C_22
REMARK   15  A    between atoms: C_21  and  C_23
REMARK   16  A    between atoms: C_21  and  C_24
REMARK   17  A    between atoms: C_24  and  O_25
REMARK   18  A    between atoms: O_25  and  P_26
REMARK   19  A    between atoms: P_26  and  O_27
REMARK   20  A    between atoms: P_26  and  O_29
REMARK   21  A    between atoms: O_29  and  P_30
REMARK   22  A    between atoms: P_30  and  O_31
REMARK   23  A    between atoms: P_30  and  O_33
REMARK   24  A    between atoms: O_33  and  C_34
REMARK   25  A    between atoms: C_34  and  C_35
REMARK   26  A    between atoms: C_38  and  N_50
REMARK   27  A    between atoms: C_40  and  O_42
REMARK   28  A    between atoms: C_43  and  O_45
REMARK   29  A    between atoms: O_45  and  P_46
REMARK   30  A    between atoms: P_46  and  O_47
REMARK   31  A    between atoms: P_46  and  O_48
REMARK                            x       y       z     vdW  Elec       q    Type
REMARK                         _______ _______ _______ _____ _____    ______ ____
ROOT
ATOM      1  O   UNL     1       8.326  -1.956  25.362  0.00  0.00    -0.186 OA
ENDROOT
BRANCH   1   2
ATOM      2  P   UNL     1       7.449  -0.943  24.268  0.00  0.00    +0.483 P 
ATOM      3  O   UNL     1       6.090  -1.483  24.742  0.00  0.00    -0.227 OA
BRANCH   2   4
ATOM      4  O   UNL     1       6.571   0.071  23.173  0.00  0.00    -0.302 OA
ATOM      5  H   UNL     1       5.833   0.405  23.721  0.00  0.00    +0.222 HD
ENDBRANCH   2   4
BRANCH   2   6
ATOM      6  O   UNL     1       7.614   0.321  25.304  0.00  0.00    -0.286 OA
BRANCH   6   7
ATOM      7  C   UNL     1       7.733   0.243  26.711  0.00  0.00    +0.181 C 
BRANCH   7   8
ATOM      8  C   UNL     1       6.857   1.266  27.484  0.00  0.00    +0.024 C 
ATOM      9  C   UNL     1       5.394   0.796  27.480  0.00  0.00    +0.016 C 
ATOM     10  C   UNL     1       7.293   1.190  28.942  0.00  0.00    +0.016 C 
BRANCH   8  11
ATOM     11  C   UNL     1       6.910   2.695  26.853  0.00  0.00    +0.208 C 
BRANCH  11  14
ATOM     12  N   UNL     1       5.653   2.632  24.739  0.00  0.00    -0.313 N 
ATOM     13  H   UNL     1       6.148   1.748  24.642  0.00  0.00    +0.149 HD
ATOM     14  C   UNL     1       5.671   3.154  26.038  0.00  0.00    +0.242 C 
ATOM     15  O   UNL     1       4.782   3.876  26.468  0.00  0.00    -0.273 OA
BRANCH  12  16
ATOM     16  C   UNL     1       4.423   2.715  23.957  0.00  0.00    +0.113 C 
BRANCH  16  17
ATOM     17  C   UNL     1       4.459   3.648  22.752  0.00  0.00    +0.114 C 
BRANCH  17  20
ATOM     18  N   UNL     1       6.198   5.386  22.179  0.00  0.00    -0.314 N 
ATOM     19  H   UNL     1       6.640   4.674  21.611  0.00  0.00    +0.149 HD
ATOM     20  C   UNL     1       5.059   5.055  22.897  0.00  0.00    +0.215 C 
ATOM     21  O   UNL     1       4.608   5.805  23.765  0.00  0.00    -0.276 OA
BRANCH  18  22
ATOM     22  C   UNL     1       7.001   6.652  22.372  0.00  0.00    +0.115 C 
BRANCH  22  23
ATOM     23  C   UNL     1       8.494   6.475  22.835  0.00  0.00    +0.096 C 
BRANCH  23  24
ATOM     24  S   UNL     1       8.419   5.165  24.071  0.00  0.00    -0.086 S 
BRANCH  24  25
ATOM     25  C   UNL     1       8.906   3.569  23.514  0.00  0.00    +0.196 C 
ATOM     26  O   UNL     1       7.968   2.838  23.174  0.00  0.00    -0.285 OA
BRANCH  25  27
ATOM     27  C   UNL     1      10.298   3.036  23.522  0.00  0.00    +0.160 C 
BRANCH  27  29
ATOM     28  C   UNL     1      10.046   0.798  22.083  0.00  0.00    +0.086 C 
ATOM     29  C   UNL     1      10.413   1.503  23.363  0.00  0.00    +0.138 C 
ATOM     30  O   UNL     1      10.754   0.835  24.338  0.00  0.00    -0.297 OA
ENDBRANCH  27  29
ENDBRANCH  25  27
ENDBRANCH  24  25
ENDBRANCH  23  24
ENDBRANCH  22  23
ENDBRANCH  18  22
ENDBRANCH  17  20
ENDBRANCH  16  17
ENDBRANCH  12  16
ENDBRANCH  11  14
BRANCH  11  31
ATOM     31  O   UNL     1       7.241   3.698  27.805  0.00  0.00    -0.382 OA
ATOM     32  H   UNL     1       7.774   3.295  28.520  0.00  0.00    +0.210 HD
ENDBRANCH  11  31
ENDBRANCH   8  11
ENDBRANCH   7   8
ENDBRANCH   6   7
ENDBRANCH   2   6
ENDBRANCH   1   2
BRANCH   1  33
ATOM     33  P   UNL     1       8.893  -2.839  24.138  0.00  0.00    +0.483 P 
ATOM     34  O   UNL     1      10.238  -2.354  23.735  0.00  0.00    -0.227 OA
BRANCH  33  35
ATOM     35  O   UNL     1       7.812  -2.852  22.957  0.00  0.00    -0.302 OA
ATOM     36  H   UNL     1       7.440  -3.756  22.792  0.00  0.00    +0.222 HD
ENDBRANCH  33  35
BRANCH  33  37
ATOM     37  O   UNL     1       8.786  -4.335  24.586  0.00  0.00    -0.284 OA
BRANCH  37  38
ATOM     38  C   UNL     1       8.720  -4.843  25.882  0.00  0.00    +0.206 C 
BRANCH  38  39
ATOM     39  C   UNL     1       7.505  -5.722  25.989  0.00  0.00    +0.179 C 
ATOM     40  C   UNL     1       6.782  -5.100  27.101  0.00  0.00    +0.194 C 
ATOM     41  C   UNL     1       5.489  -4.541  26.636  0.00  0.00    +0.196 C 
ATOM     42  C   UNL     1       5.668  -4.589  25.113  0.00  0.00    +0.253 C 
ATOM     43  O   UNL     1       6.655  -5.608  24.840  0.00  0.00    -0.346 OA
BRANCH  42  44
ATOM     44  N   UNL     1       4.409  -4.907  24.534  0.00  0.00    -0.286 N 
ATOM     45  C   UNL     1       3.788  -6.108  24.742  0.00  0.00    +0.167 A 
ATOM     46  N   UNL     1       4.121  -7.076  25.612  0.00  0.00    -0.216 NA
ATOM     47  C   UNL     1       3.330  -8.155  25.449  0.00  0.00    +0.225 A 
ATOM     48  N   UNL     1       2.355  -8.338  24.533  0.00  0.00    -0.219 NA
ATOM     49  C   UNL     1       2.129  -7.349  23.638  0.00  0.00    +0.147 A 
ATOM     50  N   UNL     1       1.171  -7.520  22.654  0.00  0.00    -0.341 N 
ATOM     51  H   UNL     1       0.851  -6.640  22.249  0.00  0.00    +0.144 HD
ATOM     52  H   UNL     1       0.472  -8.203  22.894  0.00  0.00    +0.144 HD
ATOM     53  C   UNL     1       2.845  -6.151  23.745  0.00  0.00    +0.147 A 
ATOM     54  N   UNL     1       2.814  -4.992  23.015  0.00  0.00    -0.231 NA
ATOM     55  C   UNL     1       3.779  -4.263  23.519  0.00  0.00    +0.203 A 
ENDBRANCH  42  44
BRANCH  41  56
ATOM     56  O   UNL     1       5.352  -3.204  27.161  0.00  0.00    -0.385 OA
ATOM     57  H   UNL     1       4.441  -2.904  26.936  0.00  0.00    +0.210 HD
ENDBRANCH  41  56
BRANCH  40  58
ATOM     58  O   UNL     1       7.009  -5.797  28.246  0.00  0.00    -0.278 OA
BRANCH  58  59
ATOM     59  P   UNL     1       5.486  -6.136  28.995  0.00  0.00    +0.473 P 
ATOM     60  O   UNL     1       4.124  -6.439  29.665  0.00  0.00    -0.228 OA
BRANCH  59  61
ATOM     61  O   UNL     1       5.646  -7.595  28.258  0.00  0.00    -0.303 OA
ATOM     62  H   UNL     1       5.347  -7.473  27.338  0.00  0.00    +0.222 HD
ENDBRANCH  59  61
BRANCH  59  63
ATOM     63  O   UNL     1       6.408  -6.660  30.251  0.00  0.00    -0.303 OA
ATOM     64  H   UNL     1       6.568  -5.962  30.907  0.00  0.00    +0.222 HD
ENDBRANCH  59  63
ENDBRANCH  58  59
ENDBRANCH  40  58
ENDBRANCH  38  39
ENDBRANCH  37  38
ENDBRANCH  33  37
ENDBRANCH   1  33
TORSDOF 28
ENDMDL
