MODEL 1
REMARK VINA RESULT:      -6.7      0.000      0.000
REMARK  Name = 
REMARK  17 active torsions:
REMARK  status: ('A' for Active; 'I' for Inactive)
REMARK    1  A    between atoms: C_4  and  O_6
REMARK    2  A    between atoms: O_6  and  C_7
REMARK    3  A    between atoms: C_7  and  C_9
REMARK    4  A    between atoms: C_10  and  C_11
REMARK    5  A    between atoms: C_13  and  O_14
REMARK    6  A    between atoms: O_14  and  C_15
REMARK    7  A    between atoms: C_16  and  O_17
REMARK    8  A    between atoms: O_17  and  C_18
REMARK    9  A    between atoms: C_19  and  O_20
REMARK   10  A    between atoms: O_20  and  C_21
REMARK   11  A    between atoms: C_23  and  O_25
REMARK   12  A    between atoms: O_25  and  C_26
REMARK   13  A    between atoms: C_27  and  C_29
REMARK   14  A    between atoms: C_29  and  O_31
REMARK   15  A    between atoms: O_31  and  C_32
REMARK   16  A    between atoms: C_48  and  O_49
REMARK   17  A    between atoms: O_49  and  C_50
REMARK                            x       y       z     vdW  Elec       q    Type
REMARK                         _______ _______ _______ _____ _____    ______ ____
ROOT
ATOM      1  C   UNL     1       7.695  -4.435  24.873  0.00  0.00    +0.011 C 
ATOM      2  C   UNL     1       8.555  -3.165  25.017  0.00  0.00    +0.089 C 
ATOM      3  N   UNL     1       7.684  -2.145  25.560  0.00  0.00    -0.293 NA
ATOM      4  C   UNL     1       8.353  -1.122  26.375  0.00  0.00    +0.090 C 
ATOM      5  C   UNL     1       9.144  -0.082  25.570  0.00  0.00    +0.053 C 
ATOM      6  C   UNL     1       8.299   0.397  24.446  0.00  0.00    -0.016 A 
ATOM      7  C   UNL     1       8.288   1.674  23.830  0.00  0.00    +0.003 A 
ATOM      8  C   UNL     1       9.067   2.839  23.977  0.00  0.00    +0.014 A 
ATOM      9  C   UNL     1       8.708   3.995  23.278  0.00  0.00    +0.046 A 
ATOM     10  C   UNL     1       7.586   4.015  22.447  0.00  0.00    +0.122 A 
ATOM     11  C   UNL     1       6.806   2.859  22.278  0.00  0.00    +0.071 A 
ATOM     12  C   UNL     1       7.184   1.695  22.978  0.00  0.00    +0.050 A 
ATOM     13  N   UNL     1       6.599   0.443  23.034  0.00  0.00    -0.356 N 
ATOM     14  H   UNL     1       5.745   0.197  22.558  0.00  0.00    +0.166 HD
ATOM     15  C   UNL     1       7.242  -0.358  23.947  0.00  0.00    +0.038 A 
ATOM     16  C   UNL     1       6.726  -1.665  24.546  0.00  0.00    +0.104 C 
ATOM     17  C   UNL     1       6.321  -2.843  23.537  0.00  0.00    +0.030 C 
ATOM     18  C   UNL     1       6.382  -4.383  24.046  0.00  0.00    +0.012 C 
ATOM     19  C   UNL     1       5.236  -5.508  24.738  0.00  0.00    +0.133 C 
ATOM     20  C   UNL     1       5.104  -5.606  26.339  0.00  0.00    +0.172 C 
ATOM     21  C   UNL     1       5.873  -4.397  26.785  0.00  0.00    +0.206 C 
ATOM     22  C   UNL     1       7.334  -4.830  26.291  0.00  0.00    +0.052 C 
ENDROOT
BRANCH  10  23
ATOM     23  O   UNL     1       7.366   5.234  21.861  0.00  0.00    -0.495 OA
ATOM     24  C   UNL     1       7.808   6.385  22.566  0.00  0.00    +0.277 C 
ENDBRANCH  10  23
BRANCH  19  25
ATOM     25  C   UNL     1       3.781  -5.532  24.221  0.00  0.00    +0.313 C 
ATOM     26  O   UNL     1       3.474  -5.379  23.064  0.00  0.00    -0.250 OA
BRANCH  25  27
ATOM     27  O   UNL     1       2.929  -5.748  25.264  0.00  0.00    -0.468 OA
ATOM     28  C   UNL     1       1.509  -5.822  25.037  0.00  0.00    +0.280 C 
ENDBRANCH  25  27
ENDBRANCH  19  25
BRANCH  20  29
ATOM     29  O   UNL     1       5.723  -6.743  26.977  0.00  0.00    -0.375 OA
ATOM     30  C   UNL     1       5.289  -7.109  28.266  0.00  0.00    +0.194 C 
ENDBRANCH  20  29
BRANCH  21  31
ATOM     31  O   UNL     1       5.186  -3.248  26.134  0.00  0.00    -0.456 OA
BRANCH  31  32
ATOM     32  C   UNL     1       4.206  -2.480  26.730  0.00  0.00    +0.332 C 
ATOM     33  O   UNL     1       3.024  -2.770  26.813  0.00  0.00    -0.246 OA
BRANCH  32  34
ATOM     34  C   UNL     1       4.746  -1.106  27.060  0.00  0.00    +0.092 C 
ATOM     35  C   UNL     1       4.490   0.072  26.464  0.00  0.00    +0.015 C 
BRANCH  35  36
ATOM     36  C   UNL     1       5.233   1.357  26.701  0.00  0.00    -0.018 A 
ATOM     37  C   UNL     1       5.232   2.503  25.889  0.00  0.00    +0.057 A 
ATOM     38  C   UNL     1       6.004   3.649  26.220  0.00  0.00    +0.166 A 
ATOM     39  C   UNL     1       6.818   3.666  27.373  0.00  0.00    +0.204 A 
ATOM     40  C   UNL     1       6.847   2.522  28.190  0.00  0.00    +0.166 A 
ATOM     41  C   UNL     1       6.023   1.416  27.857  0.00  0.00    +0.057 A 
BRANCH  38  42
ATOM     42  O   UNL     1       6.043   4.810  25.477  0.00  0.00    -0.491 OA
ATOM     43  C   UNL     1       4.902   5.206  24.741  0.00  0.00    +0.277 C 
ENDBRANCH  38  42
BRANCH  39  44
ATOM     44  O   UNL     1       7.528   4.830  27.561  0.00  0.00    -0.488 OA
ATOM     45  C   UNL     1       7.121   5.765  28.549  0.00  0.00    +0.277 C 
ENDBRANCH  39  44
BRANCH  40  46
ATOM     46  O   UNL     1       7.596   2.497  29.317  0.00  0.00    -0.491 OA
ATOM     47  C   UNL     1       7.301   1.416  30.206  0.00  0.00    +0.277 C 
ENDBRANCH  40  46
ENDBRANCH  35  36
ENDBRANCH  32  34
ENDBRANCH  31  32
ENDBRANCH  21  31
TORSDOF 11
ENDMDL
MODEL 2
REMARK VINA RESULT:      -6.7      0.335      1.929
REMARK  Name = 
REMARK  17 active torsions:
REMARK  status: ('A' for Active; 'I' for Inactive)
REMARK    1  A    between atoms: C_4  and  O_6
REMARK    2  A    between atoms: O_6  and  C_7
REMARK    3  A    between atoms: C_7  and  C_9
REMARK    4  A    between atoms: C_10  and  C_11
REMARK    5  A    between atoms: C_13  and  O_14
REMARK    6  A    between atoms: O_14  and  C_15
REMARK    7  A    between atoms: C_16  and  O_17
REMARK    8  A    between atoms: O_17  and  C_18
REMARK    9  A    between atoms: C_19  and  O_20
REMARK   10  A    between atoms: O_20  and  C_21
REMARK   11  A    between atoms: C_23  and  O_25
REMARK   12  A    between atoms: O_25  and  C_26
REMARK   13  A    between atoms: C_27  and  C_29
REMARK   14  A    between atoms: C_29  and  O_31
REMARK   15  A    between atoms: O_31  and  C_32
REMARK   16  A    between atoms: C_48  and  O_49
REMARK   17  A    between atoms: O_49  and  C_50
REMARK                            x       y       z     vdW  Elec       q    Type
REMARK                         _______ _______ _______ _____ _____    ______ ____
ROOT
ATOM      1  C   UNL     1       7.713  -4.385  24.867  0.00  0.00    +0.011 C 
ATOM      2  C   UNL     1       8.560  -3.107  25.030  0.00  0.00    +0.089 C 
ATOM      3  N   UNL     1       7.668  -2.094  25.551  0.00  0.00    -0.293 NA
ATOM      4  C   UNL     1       8.311  -1.065  26.381  0.00  0.00    +0.090 C 
ATOM      5  C   UNL     1       9.112  -0.019  25.593  0.00  0.00    +0.053 C 
ATOM      6  C   UNL     1       8.289   0.451  24.449  0.00  0.00    -0.016 A 
ATOM      7  C   UNL     1       8.283   1.728  23.831  0.00  0.00    +0.003 A 
ATOM      8  C   UNL     1       9.050   2.899  23.995  0.00  0.00    +0.014 A 
ATOM      9  C   UNL     1       8.698   4.052  23.286  0.00  0.00    +0.046 A 
ATOM     10  C   UNL     1       7.596   4.062  22.429  0.00  0.00    +0.122 A 
ATOM     11  C   UNL     1       6.829   2.900  22.244  0.00  0.00    +0.071 A 
ATOM     12  C   UNL     1       7.200   1.740  22.954  0.00  0.00    +0.050 A 
ATOM     13  N   UNL     1       6.623   0.483  22.997  0.00  0.00    -0.356 N 
ATOM     14  H   UNL     1       5.782   0.230  22.501  0.00  0.00    +0.166 HD
ATOM     15  C   UNL     1       7.251  -0.312  23.927  0.00  0.00    +0.038 A 
ATOM     16  C   UNL     1       6.731  -1.622  24.514  0.00  0.00    +0.104 C 
ATOM     17  C   UNL     1       6.359  -2.805  23.498  0.00  0.00    +0.030 C 
ATOM     18  C   UNL     1       6.420  -4.343  24.009  0.00  0.00    +0.012 C 
ATOM     19  C   UNL     1       5.267  -5.477  24.676  0.00  0.00    +0.133 C 
ATOM     20  C   UNL     1       5.098  -5.574  26.274  0.00  0.00    +0.172 C 
ATOM     21  C   UNL     1       5.847  -4.359  26.736  0.00  0.00    +0.206 C 
ATOM     22  C   UNL     1       7.322  -4.781  26.277  0.00  0.00    +0.052 C 
ENDROOT
BRANCH  10  23
ATOM     23  O   UNL     1       7.380   5.278  21.837  0.00  0.00    -0.495 OA
ATOM     24  C   UNL     1       7.787   6.434  22.555  0.00  0.00    +0.277 C 
ENDBRANCH  10  23
BRANCH  19  25
ATOM     25  C   UNL     1       3.824  -5.513  24.125  0.00  0.00    +0.313 C 
ATOM     26  O   UNL     1       3.507  -5.090  23.040  0.00  0.00    -0.250 OA
BRANCH  25  27
ATOM     27  O   UNL     1       2.998  -6.086  25.046  0.00  0.00    -0.468 OA
ATOM     28  C   UNL     1       2.327  -7.324  24.747  0.00  0.00    +0.280 C 
ENDBRANCH  25  27
ENDBRANCH  19  25
BRANCH  20  29
ATOM     29  O   UNL     1       5.711  -6.706  26.928  0.00  0.00    -0.375 OA
ATOM     30  C   UNL     1       5.204  -7.117  28.175  0.00  0.00    +0.194 C 
ENDBRANCH  20  29
BRANCH  21  31
ATOM     31  O   UNL     1       5.167  -3.216  26.067  0.00  0.00    -0.456 OA
BRANCH  31  32
ATOM     32  C   UNL     1       4.160  -2.461  26.636  0.00  0.00    +0.332 C 
ATOM     33  O   UNL     1       2.968  -2.722  26.605  0.00  0.00    -0.246 OA
BRANCH  32  34
ATOM     34  C   UNL     1       4.704  -1.129  27.102  0.00  0.00    +0.092 C 
ATOM     35  C   UNL     1       4.720   0.053  26.461  0.00  0.00    +0.015 C 
BRANCH  35  36
ATOM     36  C   UNL     1       5.477   1.277  26.894  0.00  0.00    -0.018 A 
ATOM     37  C   UNL     1       6.216   1.447  28.076  0.00  0.00    +0.057 A 
ATOM     38  C   UNL     1       6.867   2.675  28.375  0.00  0.00    +0.166 A 
ATOM     39  C   UNL     1       6.774   3.777  27.497  0.00  0.00    +0.204 A 
ATOM     40  C   UNL     1       6.023   3.633  26.317  0.00  0.00    +0.166 A 
ATOM     41  C   UNL     1       5.430   2.377  26.026  0.00  0.00    +0.057 A 
BRANCH  38  42
ATOM     42  O   UNL     1       7.618   2.910  29.507  0.00  0.00    -0.491 OA
ATOM     43  C   UNL     1       7.747   1.892  30.482  0.00  0.00    +0.277 C 
ENDBRANCH  38  42
BRANCH  39  44
ATOM     44  O   UNL     1       7.434   4.908  27.920  0.00  0.00    -0.488 OA
ATOM     45  C   UNL     1       6.729   5.933  28.605  0.00  0.00    +0.277 C 
ENDBRANCH  39  44
BRANCH  40  46
ATOM     46  O   UNL     1       5.921   4.653  25.434  0.00  0.00    -0.491 OA
ATOM     47  C   UNL     1       4.605   4.869  24.919  0.00  0.00    +0.277 C 
ENDBRANCH  40  46
ENDBRANCH  35  36
ENDBRANCH  32  34
ENDBRANCH  31  32
ENDBRANCH  21  31
TORSDOF 11
ENDMDL
MODEL 3
REMARK VINA RESULT:      -6.3      2.395      3.557
REMARK  Name = 
REMARK  17 active torsions:
REMARK  status: ('A' for Active; 'I' for Inactive)
REMARK    1  A    between atoms: C_4  and  O_6
REMARK    2  A    between atoms: O_6  and  C_7
REMARK    3  A    between atoms: C_7  and  C_9
REMARK    4  A    between atoms: C_10  and  C_11
REMARK    5  A    between atoms: C_13  and  O_14
REMARK    6  A    between atoms: O_14  and  C_15
REMARK    7  A    between atoms: C_16  and  O_17
REMARK    8  A    between atoms: O_17  and  C_18
REMARK    9  A    between atoms: C_19  and  O_20
REMARK   10  A    between atoms: O_20  and  C_21
REMARK   11  A    between atoms: C_23  and  O_25
REMARK   12  A    between atoms: O_25  and  C_26
REMARK   13  A    between atoms: C_27  and  C_29
REMARK   14  A    between atoms: C_29  and  O_31
REMARK   15  A    between atoms: O_31  and  C_32
REMARK   16  A    between atoms: C_48  and  O_49
REMARK   17  A    between atoms: O_49  and  C_50
REMARK                            x       y       z     vdW  Elec       q    Type
REMARK                         _______ _______ _______ _____ _____    ______ ____
ROOT
ATOM      1  C   UNL     1       9.293  -1.863  22.339  0.00  0.00    +0.011 C 
ATOM      2  C   UNL     1       9.580  -0.349  22.307  0.00  0.00    +0.089 C 
ATOM      3  N   UNL     1       8.914   0.216  23.460  0.00  0.00    -0.293 NA
ATOM      4  C   UNL     1       9.539   1.425  24.011  0.00  0.00    +0.090 C 
ATOM      5  C   UNL     1       9.296   2.700  23.191  0.00  0.00    +0.053 C 
ATOM      6  C   UNL     1       7.852   2.781  22.850  0.00  0.00    -0.016 A 
ATOM      7  C   UNL     1       7.050   3.936  22.669  0.00  0.00    +0.003 A 
ATOM      8  C   UNL     1       7.316   5.320  22.655  0.00  0.00    +0.014 A 
ATOM      9  C   UNL     1       6.250   6.221  22.564  0.00  0.00    +0.046 A 
ATOM     10  C   UNL     1       4.931   5.770  22.496  0.00  0.00    +0.122 A 
ATOM     11  C   UNL     1       4.649   4.393  22.494  0.00  0.00    +0.071 A 
ATOM     12  C   UNL     1       5.731   3.494  22.574  0.00  0.00    +0.050 A 
ATOM     13  N   UNL     1       5.757   2.112  22.627  0.00  0.00    -0.356 N 
ATOM     14  H   UNL     1       4.933   1.532  22.638  0.00  0.00    +0.166 HD
ATOM     15  C   UNL     1       7.038   1.654  22.827  0.00  0.00    +0.038 A 
ATOM     16  C   UNL     1       7.451   0.251  23.268  0.00  0.00    +0.104 C 
ATOM     17  C   UNL     1       6.960  -0.990  22.381  0.00  0.00    +0.030 C 
ATOM     18  C   UNL     1       7.824  -2.363  22.384  0.00  0.00    +0.012 C 
ATOM     19  C   UNL     1       7.769  -3.863  23.282  0.00  0.00    +0.133 C 
ATOM     20  C   UNL     1       8.645  -4.005  24.624  0.00  0.00    +0.172 C 
ATOM     21  C   UNL     1       9.064  -2.585  24.870  0.00  0.00    +0.206 C 
ATOM     22  C   UNL     1       9.994  -2.370  23.584  0.00  0.00    +0.052 C 
ENDROOT
BRANCH  10  23
ATOM     23  O   UNL     1       4.012   6.785  22.436  0.00  0.00    -0.495 OA
ATOM     24  C   UNL     1       2.744   6.483  21.872  0.00  0.00    +0.277 C 
ENDBRANCH  10  23
BRANCH  19  25
ATOM     25  C   UNL     1       6.403  -4.493  23.636  0.00  0.00    +0.313 C 
ATOM     26  O   UNL     1       6.022  -4.684  24.765  0.00  0.00    -0.250 OA
BRANCH  25  27
ATOM     27  O   UNL     1       5.725  -4.786  22.490  0.00  0.00    -0.468 OA
ATOM     28  C   UNL     1       6.282  -5.704  21.531  0.00  0.00    +0.280 C 
ENDBRANCH  25  27
ENDBRANCH  19  25
BRANCH  20  29
ATOM     29  O   UNL     1       9.860  -4.779  24.533  0.00  0.00    -0.375 OA
ATOM     30  C   UNL     1      10.272  -5.518  25.659  0.00  0.00    +0.194 C 
ENDBRANCH  20  29
BRANCH  21  31
ATOM     31  O   UNL     1       7.788  -1.827  24.990  0.00  0.00    -0.456 OA
BRANCH  31  32
ATOM     32  C   UNL     1       7.126  -1.589  26.178  0.00  0.00    +0.332 C 
ATOM     33  O   UNL     1       6.537  -2.423  26.846  0.00  0.00    -0.246 OA
BRANCH  32  34
ATOM     34  C   UNL     1       7.019  -0.101  26.427  0.00  0.00    +0.092 C 
ATOM     35  C   UNL     1       5.984   0.726  26.196  0.00  0.00    +0.015 C 
BRANCH  35  36
ATOM     36  C   UNL     1       6.027   2.227  26.259  0.00  0.00    -0.018 A 
ATOM     37  C   UNL     1       7.155   3.038  26.464  0.00  0.00    +0.057 A 
ATOM     38  C   UNL     1       7.050   4.454  26.527  0.00  0.00    +0.166 A 
ATOM     39  C   UNL     1       5.798   5.095  26.404  0.00  0.00    +0.204 A 
ATOM     40  C   UNL     1       4.654   4.299  26.216  0.00  0.00    +0.166 A 
ATOM     41  C   UNL     1       4.802   2.892  26.106  0.00  0.00    +0.057 A 
BRANCH  38  42
ATOM     42  O   UNL     1       8.113   5.312  26.714  0.00  0.00    -0.491 OA
ATOM     43  C   UNL     1       9.003   5.564  25.642  0.00  0.00    +0.277 C 
ENDBRANCH  38  42
BRANCH  39  44
ATOM     44  O   UNL     1       5.840   6.466  26.505  0.00  0.00    -0.488 OA
ATOM     45  C   UNL     1       5.445   7.107  27.709  0.00  0.00    +0.277 C 
ENDBRANCH  39  44
BRANCH  40  46
ATOM     46  O   UNL     1       3.434   4.866  26.072  0.00  0.00    -0.491 OA
ATOM     47  C   UNL     1       2.602   4.797  27.232  0.00  0.00    +0.277 C 
ENDBRANCH  40  46
ENDBRANCH  35  36
ENDBRANCH  32  34
ENDBRANCH  31  32
ENDBRANCH  21  31
TORSDOF 11
ENDMDL
MODEL 4
REMARK VINA RESULT:      -6.2      1.830      3.106
REMARK  Name = 
REMARK  17 active torsions:
REMARK  status: ('A' for Active; 'I' for Inactive)
REMARK    1  A    between atoms: C_4  and  O_6
REMARK    2  A    between atoms: O_6  and  C_7
REMARK    3  A    between atoms: C_7  and  C_9
REMARK    4  A    between atoms: C_10  and  C_11
REMARK    5  A    between atoms: C_13  and  O_14
REMARK    6  A    between atoms: O_14  and  C_15
REMARK    7  A    between atoms: C_16  and  O_17
REMARK    8  A    between atoms: O_17  and  C_18
REMARK    9  A    between atoms: C_19  and  O_20
REMARK   10  A    between atoms: O_20  and  C_21
REMARK   11  A    between atoms: C_23  and  O_25
REMARK   12  A    between atoms: O_25  and  C_26
REMARK   13  A    between atoms: C_27  and  C_29
REMARK   14  A    between atoms: C_29  and  O_31
REMARK   15  A    between atoms: O_31  and  C_32
REMARK   16  A    between atoms: C_48  and  O_49
REMARK   17  A    between atoms: O_49  and  C_50
REMARK                            x       y       z     vdW  Elec       q    Type
REMARK                         _______ _______ _______ _____ _____    ______ ____
ROOT
ATOM      1  C   UNL     1       5.769  -5.821  23.004  0.00  0.00    +0.011 C 
ATOM      2  C   UNL     1       7.180  -5.226  23.174  0.00  0.00    +0.089 C 
ATOM      3  N   UNL     1       7.124  -4.377  24.344  0.00  0.00    -0.293 NA
ATOM      4  C   UNL     1       8.390  -4.241  25.077  0.00  0.00    +0.090 C 
ATOM      5  C   UNL     1       9.420  -3.322  24.405  0.00  0.00    +0.053 C 
ATOM      6  C   UNL     1       8.741  -2.067  23.988  0.00  0.00    -0.016 A 
ATOM      7  C   UNL     1       9.280  -0.758  23.901  0.00  0.00    +0.003 A 
ATOM      8  C   UNL     1      10.569  -0.216  24.073  0.00  0.00    +0.014 A 
ATOM      9  C   UNL     1      10.740   1.171  24.026  0.00  0.00    +0.046 A 
ATOM     10  C   UNL     1       9.654   2.024  23.822  0.00  0.00    +0.122 A 
ATOM     11  C   UNL     1       8.364   1.499  23.635  0.00  0.00    +0.071 A 
ATOM     12  C   UNL     1       8.205   0.099  23.671  0.00  0.00    +0.050 A 
ATOM     13  N   UNL     1       7.071  -0.685  23.556  0.00  0.00    -0.356 N 
ATOM     14  H   UNL     1       6.139  -0.318  23.445  0.00  0.00    +0.166 HD
ATOM     15  C   UNL     1       7.368  -2.009  23.777  0.00  0.00    +0.038 A 
ATOM     16  C   UNL     1       6.377  -3.135  24.069  0.00  0.00    +0.104 C 
ATOM     17  C   UNL     1       5.205  -3.395  23.008  0.00  0.00    +0.030 C 
ATOM     18  C   UNL     1       4.544  -4.873  22.897  0.00  0.00    +0.012 C 
ATOM     19  C   UNL     1       3.155  -5.669  23.600  0.00  0.00    +0.133 C 
ATOM     20  C   UNL     1       3.336  -6.500  24.966  0.00  0.00    +0.172 C 
ATOM     21  C   UNL     1       4.704  -6.070  25.408  0.00  0.00    +0.206 C 
ATOM     22  C   UNL     1       5.566  -6.706  24.218  0.00  0.00    +0.052 C 
ENDROOT
BRANCH  10  23
ATOM     23  O   UNL     1       9.996   3.351  23.830  0.00  0.00    -0.495 OA
ATOM     24  C   UNL     1      11.292   3.692  23.359  0.00  0.00    +0.277 C 
ENDBRANCH  10  23
BRANCH  19  25
ATOM     25  C   UNL     1       1.838  -4.883  23.788  0.00  0.00    +0.313 C 
ATOM     26  O   UNL     1       1.632  -4.124  24.704  0.00  0.00    -0.250 OA
BRANCH  25  27
ATOM     27  O   UNL     1       0.977  -5.184  22.776  0.00  0.00    -0.468 OA
ATOM     28  C   UNL     1       0.928  -6.519  22.237  0.00  0.00    +0.280 C 
ENDBRANCH  25  27
ENDBRANCH  19  25
BRANCH  20  29
ATOM     29  O   UNL     1       3.375  -7.938  24.855  0.00  0.00    -0.375 OA
ATOM     30  C   UNL     1       2.158  -8.647  24.871  0.00  0.00    +0.194 C 
ENDBRANCH  20  29
BRANCH  21  31
ATOM     31  O   UNL     1       4.613  -4.589  25.541  0.00  0.00    -0.456 OA
BRANCH  31  32
ATOM     32  C   UNL     1       4.365  -3.922  26.724  0.00  0.00    +0.332 C 
ATOM     33  O   UNL     1       3.807  -4.389  27.703  0.00  0.00    -0.246 OA
BRANCH  32  34
ATOM     34  C   UNL     1       4.662  -2.448  26.564  0.00  0.00    +0.092 C 
ATOM     35  C   UNL     1       5.688  -1.731  27.055  0.00  0.00    +0.015 C 
BRANCH  35  36
ATOM     36  C   UNL     1       5.799  -0.231  27.043  0.00  0.00    -0.018 A 
ATOM     37  C   UNL     1       6.580   0.570  27.891  0.00  0.00    +0.057 A 
ATOM     38  C   UNL     1       6.573   1.988  27.787  0.00  0.00    +0.166 A 
ATOM     39  C   UNL     1       5.761   2.641  26.835  0.00  0.00    +0.204 A 
ATOM     40  C   UNL     1       4.957   1.856  25.989  0.00  0.00    +0.166 A 
ATOM     41  C   UNL     1       5.029   0.443  26.085  0.00  0.00    +0.057 A 
BRANCH  38  42
ATOM     42  O   UNL     1       7.321   2.836  28.576  0.00  0.00    -0.491 OA
ATOM     43  C   UNL     1       7.139   2.824  29.980  0.00  0.00    +0.277 C 
ENDBRANCH  38  42
BRANCH  39  44
ATOM     44  O   UNL     1       5.835   4.015  26.859  0.00  0.00    -0.488 OA
ATOM     45  C   UNL     1       6.715   4.699  25.979  0.00  0.00    +0.277 C 
ENDBRANCH  39  44
BRANCH  40  46
ATOM     46  O   UNL     1       4.177   2.434  25.046  0.00  0.00    -0.491 OA
ATOM     47  C   UNL     1       4.803   2.601  23.772  0.00  0.00    +0.277 C 
ENDBRANCH  40  46
ENDBRANCH  35  36
ENDBRANCH  32  34
ENDBRANCH  31  32
ENDBRANCH  21  31
TORSDOF 11
ENDMDL
MODEL 5
REMARK VINA RESULT:      -6.2      1.905      2.759
REMARK  Name = 
REMARK  17 active torsions:
REMARK  status: ('A' for Active; 'I' for Inactive)
REMARK    1  A    between atoms: C_4  and  O_6
REMARK    2  A    between atoms: O_6  and  C_7
REMARK    3  A    between atoms: C_7  and  C_9
REMARK    4  A    between atoms: C_10  and  C_11
REMARK    5  A    between atoms: C_13  and  O_14
REMARK    6  A    between atoms: O_14  and  C_15
REMARK    7  A    between atoms: C_16  and  O_17
REMARK    8  A    between atoms: O_17  and  C_18
REMARK    9  A    between atoms: C_19  and  O_20
REMARK   10  A    between atoms: O_20  and  C_21
REMARK   11  A    between atoms: C_23  and  O_25
REMARK   12  A    between atoms: O_25  and  C_26
REMARK   13  A    between atoms: C_27  and  C_29
REMARK   14  A    between atoms: C_29  and  O_31
REMARK   15  A    between atoms: O_31  and  C_32
REMARK   16  A    between atoms: C_48  and  O_49
REMARK   17  A    between atoms: O_49  and  C_50
REMARK                            x       y       z     vdW  Elec       q    Type
REMARK                         _______ _______ _______ _____ _____    ______ ____
ROOT
ATOM      1  C   UNL     1       9.401  -1.923  22.601  0.00  0.00    +0.011 C 
ATOM      2  C   UNL     1       9.786  -0.454  22.862  0.00  0.00    +0.089 C 
ATOM      3  N   UNL     1       8.915   0.013  23.919  0.00  0.00    -0.293 NA
ATOM      4  C   UNL     1       9.478   1.070  24.770  0.00  0.00    +0.090 C 
ATOM      5  C   UNL     1       9.510   2.461  24.121  0.00  0.00    +0.053 C 
ATOM      6  C   UNL     1       8.188   2.728  23.495  0.00  0.00    -0.016 A 
ATOM      7  C   UNL     1       7.525   3.970  23.326  0.00  0.00    +0.003 A 
ATOM      8  C   UNL     1       7.877   5.310  23.581  0.00  0.00    +0.014 A 
ATOM      9  C   UNL     1       6.920   6.314  23.402  0.00  0.00    +0.046 A 
ATOM     10  C   UNL     1       5.624   6.007  22.986  0.00  0.00    +0.122 A 
ATOM     11  C   UNL     1       5.260   4.678  22.714  0.00  0.00    +0.071 A 
ATOM     12  C   UNL     1       6.236   3.675  22.885  0.00  0.00    +0.050 A 
ATOM     13  N   UNL     1       6.159   2.302  22.730  0.00  0.00    -0.356 N 
ATOM     14  H   UNL     1       5.317   1.809  22.476  0.00  0.00    +0.166 HD
ATOM     15  C   UNL     1       7.328   1.699  23.127  0.00  0.00    +0.038 A 
ATOM     16  C   UNL     1       7.539   0.216  23.427  0.00  0.00    +0.104 C 
ATOM     17  C   UNL     1       7.181  -0.840  22.276  0.00  0.00    +0.030 C 
ATOM     18  C   UNL     1       7.930  -2.279  22.254  0.00  0.00    +0.012 C 
ATOM     19  C   UNL     1       7.577  -3.874  22.880  0.00  0.00    +0.133 C 
ATOM     20  C   UNL     1       8.116  -4.279  24.340  0.00  0.00    +0.172 C 
ATOM     21  C   UNL     1       8.560  -2.953  24.884  0.00  0.00    +0.206 C 
ATOM     22  C   UNL     1       9.768  -2.659  23.874  0.00  0.00    +0.052 C 
ENDROOT
BRANCH  10  23
ATOM     23  O   UNL     1       4.810   7.106  22.887  0.00  0.00    -0.495 OA
ATOM     24  C   UNL     1       3.586   6.949  22.185  0.00  0.00    +0.277 C 
ENDBRANCH  10  23
BRANCH  19  25
ATOM     25  C   UNL     1       6.128  -4.409  22.833  0.00  0.00    +0.313 C 
ATOM     26  O   UNL     1       5.317  -4.086  21.999  0.00  0.00    -0.250 OA
BRANCH  25  27
ATOM     27  O   UNL     1       5.929  -5.281  23.862  0.00  0.00    -0.468 OA
ATOM     28  C   UNL     1       4.967  -6.345  23.737  0.00  0.00    +0.280 C 
ENDBRANCH  25  27
ENDBRANCH  19  25
BRANCH  20  29
ATOM     29  O   UNL     1       9.267  -5.149  24.393  0.00  0.00    -0.375 OA
ATOM     30  C   UNL     1       9.675  -5.649  25.645  0.00  0.00    +0.194 C 
ENDBRANCH  20  29
BRANCH  21  31
ATOM     31  O   UNL     1       7.342  -2.098  24.842  0.00  0.00    -0.456 OA
BRANCH  31  32
ATOM     32  C   UNL     1       6.369  -2.072  25.821  0.00  0.00    +0.332 C 
ATOM     33  O   UNL     1       5.472  -2.888  25.958  0.00  0.00    -0.246 OA
BRANCH  32  34
ATOM     34  C   UNL     1       6.414  -0.757  26.568  0.00  0.00    +0.092 C 
ATOM     35  C   UNL     1       5.857   0.423  26.241  0.00  0.00    +0.015 C 
BRANCH  35  36
ATOM     36  C   UNL     1       6.130   1.739  26.914  0.00  0.00    -0.018 A 
ATOM     37  C   UNL     1       5.800   3.020  26.442  0.00  0.00    +0.057 A 
ATOM     38  C   UNL     1       6.140   4.191  27.172  0.00  0.00    +0.166 A 
ATOM     39  C   UNL     1       6.844   4.106  28.394  0.00  0.00    +0.204 A 
ATOM     40  C   UNL     1       7.200   2.832  28.874  0.00  0.00    +0.166 A 
ATOM     41  C   UNL     1       6.798   1.683  28.145  0.00  0.00    +0.057 A 
BRANCH  38  42
ATOM     42  O   UNL     1       5.840   5.478  26.777  0.00  0.00    -0.491 OA
ATOM     43  C   UNL     1       4.534   5.780  26.322  0.00  0.00    +0.277 C 
ENDBRANCH  38  42
BRANCH  39  44
ATOM     44  O   UNL     1       7.127   5.317  28.982  0.00  0.00    -0.488 OA
ATOM     45  C   UNL     1       6.388   5.752  30.114  0.00  0.00    +0.277 C 
ENDBRANCH  39  44
BRANCH  40  46
ATOM     46  O   UNL     1       7.856   2.697  30.049  0.00  0.00    -0.491 OA
ATOM     47  C   UNL     1       8.030   1.346  30.484  0.00  0.00    +0.277 C 
ENDBRANCH  40  46
ENDBRANCH  35  36
ENDBRANCH  32  34
ENDBRANCH  31  32
ENDBRANCH  21  31
TORSDOF 11
ENDMDL
MODEL 6
REMARK VINA RESULT:      -6.1      2.271      8.903
REMARK  Name = 
REMARK  17 active torsions:
REMARK  status: ('A' for Active; 'I' for Inactive)
REMARK    1  A    between atoms: C_4  and  O_6
REMARK    2  A    between atoms: O_6  and  C_7
REMARK    3  A    between atoms: C_7  and  C_9
REMARK    4  A    between atoms: C_10  and  C_11
REMARK    5  A    between atoms: C_13  and  O_14
REMARK    6  A    between atoms: O_14  and  C_15
REMARK    7  A    between atoms: C_16  and  O_17
REMARK    8  A    between atoms: O_17  and  C_18
REMARK    9  A    between atoms: C_19  and  O_20
REMARK   10  A    between atoms: O_20  and  C_21
REMARK   11  A    between atoms: C_23  and  O_25
REMARK   12  A    between atoms: O_25  and  C_26
REMARK   13  A    between atoms: C_27  and  C_29
REMARK   14  A    between atoms: C_29  and  O_31
REMARK   15  A    between atoms: O_31  and  C_32
REMARK   16  A    between atoms: C_48  and  O_49
REMARK   17  A    between atoms: O_49  and  C_50
REMARK                            x       y       z     vdW  Elec       q    Type
REMARK                         _______ _______ _______ _____ _____    ______ ____
ROOT
ATOM      1  C   UNL     1       6.238   3.188  25.278  0.00  0.00    +0.011 C 
ATOM      2  C   UNL     1       5.644   2.585  26.565  0.00  0.00    +0.089 C 
ATOM      3  N   UNL     1       6.440   1.417  26.871  0.00  0.00    -0.293 NA
ATOM      4  C   UNL     1       6.524   1.075  28.298  0.00  0.00    +0.090 C 
ATOM      5  C   UNL     1       5.260   0.419  28.871  0.00  0.00    +0.053 C 
ATOM      6  C   UNL     1       4.815  -0.653  27.944  0.00  0.00    -0.016 A 
ATOM      7  C   UNL     1       4.148  -1.866  28.252  0.00  0.00    +0.003 A 
ATOM      8  C   UNL     1       3.619  -2.420  29.435  0.00  0.00    +0.014 A 
ATOM      9  C   UNL     1       3.113  -3.724  29.413  0.00  0.00    +0.046 A 
ATOM     10  C   UNL     1       3.133  -4.485  28.243  0.00  0.00    +0.122 A 
ATOM     11  C   UNL     1       3.644  -3.943  27.051  0.00  0.00    +0.071 A 
ATOM     12  C   UNL     1       4.139  -2.623  27.081  0.00  0.00    +0.050 A 
ATOM     13  N   UNL     1       4.724  -1.854  26.091  0.00  0.00    -0.356 N 
ATOM     14  H   UNL     1       4.900  -2.180  25.153  0.00  0.00    +0.166 HD
ATOM     15  C   UNL     1       5.173  -0.659  26.601  0.00  0.00    +0.038 A 
ATOM     16  C   UNL     1       6.149   0.311  25.938  0.00  0.00    +0.104 C 
ATOM     17  C   UNL     1       5.778   0.873  24.484  0.00  0.00    +0.030 C 
ATOM     18  C   UNL     1       6.371   2.305  24.007  0.00  0.00    +0.012 C 
ATOM     19  C   UNL     1       7.772   2.831  23.103  0.00  0.00    +0.133 C 
ATOM     20  C   UNL     1       9.122   3.203  23.895  0.00  0.00    +0.172 C 
ATOM     21  C   UNL     1       8.829   2.673  25.268  0.00  0.00    +0.206 C 
ATOM     22  C   UNL     1       7.627   3.654  25.666  0.00  0.00    +0.052 C 
ENDROOT
BRANCH  10  23
ATOM     23  O   UNL     1       2.623  -5.746  28.406  0.00  0.00    -0.495 OA
ATOM     24  C   UNL     1       3.495  -6.739  28.926  0.00  0.00    +0.277 C 
ENDBRANCH  10  23
BRANCH  19  25
ATOM     25  C   UNL     1       8.246   2.010  21.882  0.00  0.00    +0.313 C 
ATOM     26  O   UNL     1       7.581   1.833  20.891  0.00  0.00    -0.250 OA
BRANCH  25  27
ATOM     27  O   UNL     1       9.503   1.535  22.111  0.00  0.00    -0.468 OA
ATOM     28  C   UNL     1       9.878   0.223  21.654  0.00  0.00    +0.280 C 
ENDBRANCH  25  27
ENDBRANCH  19  25
BRANCH  20  29
ATOM     29  O   UNL     1       9.421   4.607  24.054  0.00  0.00    -0.375 OA
ATOM     30  C   UNL     1      10.725   5.053  23.765  0.00  0.00    +0.194 C 
ENDBRANCH  20  29
BRANCH  21  31
ATOM     31  O   UNL     1       8.558   1.223  25.066  0.00  0.00    -0.456 OA
BRANCH  31  32
ATOM     32  C   UNL     1       9.504   0.224  25.189  0.00  0.00    +0.332 C 
ATOM     33  O   UNL     1      10.712   0.370  25.095  0.00  0.00    -0.246 OA
BRANCH  32  34
ATOM     34  C   UNL     1       8.833  -1.131  25.218  0.00  0.00    +0.092 C 
ATOM     35  C   UNL     1       8.461  -1.916  24.191  0.00  0.00    +0.015 C 
BRANCH  35  36
ATOM     36  C   UNL     1       7.599  -3.143  24.289  0.00  0.00    -0.018 A 
ATOM     37  C   UNL     1       7.456  -3.995  25.396  0.00  0.00    +0.057 A 
ATOM     38  C   UNL     1       6.621  -5.144  25.346  0.00  0.00    +0.166 A 
ATOM     39  C   UNL     1       5.918  -5.479  24.167  0.00  0.00    +0.204 A 
ATOM     40  C   UNL     1       6.063  -4.648  23.042  0.00  0.00    +0.166 A 
ATOM     41  C   UNL     1       6.864  -3.481  23.145  0.00  0.00    +0.057 A 
BRANCH  38  42
ATOM     42  O   UNL     1       6.423  -6.017  26.394  0.00  0.00    -0.491 OA
ATOM     43  C   UNL     1       6.815  -5.639  27.700  0.00  0.00    +0.277 C 
ENDBRANCH  38  42
BRANCH  39  44
ATOM     44  O   UNL     1       5.165  -6.627  24.252  0.00  0.00    -0.488 OA
ATOM     45  C   UNL     1       3.749  -6.550  24.324  0.00  0.00    +0.277 C 
ENDBRANCH  39  44
BRANCH  40  46
ATOM     46  O   UNL     1       5.395  -4.915  21.896  0.00  0.00    -0.491 OA
ATOM     47  C   UNL     1       6.139  -5.663  20.931  0.00  0.00    +0.277 C 
ENDBRANCH  40  46
ENDBRANCH  35  36
ENDBRANCH  32  34
ENDBRANCH  31  32
ENDBRANCH  21  31
TORSDOF 11
ENDMDL
MODEL 7
REMARK VINA RESULT:      -6.1      1.603      1.959
REMARK  Name = 
REMARK  17 active torsions:
REMARK  status: ('A' for Active; 'I' for Inactive)
REMARK    1  A    between atoms: C_4  and  O_6
REMARK    2  A    between atoms: O_6  and  C_7
REMARK    3  A    between atoms: C_7  and  C_9
REMARK    4  A    between atoms: C_10  and  C_11
REMARK    5  A    between atoms: C_13  and  O_14
REMARK    6  A    between atoms: O_14  and  C_15
REMARK    7  A    between atoms: C_16  and  O_17
REMARK    8  A    between atoms: O_17  and  C_18
REMARK    9  A    between atoms: C_19  and  O_20
REMARK   10  A    between atoms: O_20  and  C_21
REMARK   11  A    between atoms: C_23  and  O_25
REMARK   12  A    between atoms: O_25  and  C_26
REMARK   13  A    between atoms: C_27  and  C_29
REMARK   14  A    between atoms: C_29  and  O_31
REMARK   15  A    between atoms: O_31  and  C_32
REMARK   16  A    between atoms: C_48  and  O_49
REMARK   17  A    between atoms: O_49  and  C_50
REMARK                            x       y       z     vdW  Elec       q    Type
REMARK                         _______ _______ _______ _____ _____    ______ ____
ROOT
ATOM      1  C   UNL     1       6.469  -4.257  22.816  0.00  0.00    +0.011 C 
ATOM      2  C   UNL     1       7.809  -3.509  22.690  0.00  0.00    +0.089 C 
ATOM      3  N   UNL     1       8.005  -2.813  23.943  0.00  0.00    -0.293 NA
ATOM      4  C   UNL     1       9.408  -2.599  24.325  0.00  0.00    +0.090 C 
ATOM      5  C   UNL     1      10.119  -1.485  23.543  0.00  0.00    +0.053 C 
ATOM      6  C   UNL     1       9.238  -0.289  23.507  0.00  0.00    -0.016 A 
ATOM      7  C   UNL     1       9.607   1.080  23.471  0.00  0.00    +0.003 A 
ATOM      8  C   UNL     1      10.838   1.760  23.370  0.00  0.00    +0.014 A 
ATOM      9  C   UNL     1      10.860   3.154  23.481  0.00  0.00    +0.046 A 
ATOM     10  C   UNL     1       9.686   3.877  23.698  0.00  0.00    +0.122 A 
ATOM     11  C   UNL     1       8.450   3.216  23.787  0.00  0.00    +0.071 A 
ATOM     12  C   UNL     1       8.437   1.813  23.661  0.00  0.00    +0.050 A 
ATOM     13  N   UNL     1       7.394   0.907  23.740  0.00  0.00    -0.356 N 
ATOM     14  H   UNL     1       6.438   1.162  23.934  0.00  0.00    +0.166 HD
ATOM     15  C   UNL     1       7.861  -0.384  23.680  0.00  0.00    +0.038 A 
ATOM     16  C   UNL     1       7.100  -1.654  24.058  0.00  0.00    +0.104 C 
ATOM     17  C   UNL     1       5.706  -1.940  23.321  0.00  0.00    +0.030 C 
ATOM     18  C   UNL     1       5.181  -3.468  23.177  0.00  0.00    +0.012 C 
ATOM     19  C   UNL     1       4.124  -4.511  24.101  0.00  0.00    +0.133 C 
ATOM     20  C   UNL     1       4.756  -5.461  25.235  0.00  0.00    +0.172 C 
ATOM     21  C   UNL     1       6.147  -4.912  25.355  0.00  0.00    +0.206 C 
ATOM     22  C   UNL     1       6.696  -5.292  23.899  0.00  0.00    +0.052 C 
ENDROOT
BRANCH  10  23
ATOM     23  O   UNL     1       9.893   5.228  23.807  0.00  0.00    -0.495 OA
ATOM     24  C   UNL     1      11.232   5.692  23.702  0.00  0.00    +0.277 C 
ENDBRANCH  10  23
BRANCH  19  25
ATOM     25  C   UNL     1       2.846  -3.926  24.744  0.00  0.00    +0.313 C 
ATOM     26  O   UNL     1       2.803  -2.859  25.306  0.00  0.00    -0.250 OA
BRANCH  25  27
ATOM     27  O   UNL     1       1.810  -4.796  24.574  0.00  0.00    -0.468 OA
ATOM     28  C   UNL     1       1.475  -5.278  23.260  0.00  0.00    +0.280 C 
ENDBRANCH  25  27
ENDBRANCH  19  25
BRANCH  20  29
ATOM     29  O   UNL     1       4.895  -6.861  24.911  0.00  0.00    -0.375 OA
ATOM     30  C   UNL     1       3.739  -7.664  24.893  0.00  0.00    +0.194 C 
ENDBRANCH  20  29
BRANCH  21  31
ATOM     31  O   UNL     1       5.961  -3.480  25.720  0.00  0.00    -0.456 OA
BRANCH  31  32
ATOM     32  C   UNL     1       5.759  -3.019  27.005  0.00  0.00    +0.332 C 
ATOM     33  O   UNL     1       5.338  -3.677  27.942  0.00  0.00    -0.246 OA
BRANCH  32  34
ATOM     34  C   UNL     1       5.899  -1.513  27.048  0.00  0.00    +0.092 C 
ATOM     35  C   UNL     1       4.979  -0.567  26.791  0.00  0.00    +0.015 C 
BRANCH  35  36
ATOM     36  C   UNL     1       5.249   0.903  26.636  0.00  0.00    -0.018 A 
ATOM     37  C   UNL     1       4.780   1.751  25.619  0.00  0.00    +0.057 A 
ATOM     38  C   UNL     1       5.134   3.127  25.577  0.00  0.00    +0.166 A 
ATOM     39  C   UNL     1       5.990   3.685  26.551  0.00  0.00    +0.204 A 
ATOM     40  C   UNL     1       6.485   2.848  27.567  0.00  0.00    +0.166 A 
ATOM     41  C   UNL     1       6.069   1.493  27.607  0.00  0.00    +0.057 A 
BRANCH  38  42
ATOM     42  O   UNL     1       4.703   4.019  24.618  0.00  0.00    -0.491 OA
ATOM     43  C   UNL     1       4.615   3.604  23.268  0.00  0.00    +0.277 C 
ENDBRANCH  38  42
BRANCH  39  44
ATOM     44  O   UNL     1       6.267   5.022  26.378  0.00  0.00    -0.488 OA
ATOM     45  C   UNL     1       5.676   5.992  27.231  0.00  0.00    +0.277 C 
ENDBRANCH  39  44
BRANCH  40  46
ATOM     46  O   UNL     1       7.292   3.340  28.535  0.00  0.00    -0.491 OA
ATOM     47  C   UNL     1       7.290   2.592  29.753  0.00  0.00    +0.277 C 
ENDBRANCH  40  46
ENDBRANCH  35  36
ENDBRANCH  32  34
ENDBRANCH  31  32
ENDBRANCH  21  31
TORSDOF 11
ENDMDL
MODEL 8
REMARK VINA RESULT:      -5.9      1.882      8.497
REMARK  Name = 
REMARK  17 active torsions:
REMARK  status: ('A' for Active; 'I' for Inactive)
REMARK    1  A    between atoms: C_4  and  O_6
REMARK    2  A    between atoms: O_6  and  C_7
REMARK    3  A    between atoms: C_7  and  C_9
REMARK    4  A    between atoms: C_10  and  C_11
REMARK    5  A    between atoms: C_13  and  O_14
REMARK    6  A    between atoms: O_14  and  C_15
REMARK    7  A    between atoms: C_16  and  O_17
REMARK    8  A    between atoms: O_17  and  C_18
REMARK    9  A    between atoms: C_19  and  O_20
REMARK   10  A    between atoms: O_20  and  C_21
REMARK   11  A    between atoms: C_23  and  O_25
REMARK   12  A    between atoms: O_25  and  C_26
REMARK   13  A    between atoms: C_27  and  C_29
REMARK   14  A    between atoms: C_29  and  O_31
REMARK   15  A    between atoms: O_31  and  C_32
REMARK   16  A    between atoms: C_48  and  O_49
REMARK   17  A    between atoms: O_49  and  C_50
REMARK                            x       y       z     vdW  Elec       q    Type
REMARK                         _______ _______ _______ _____ _____    ______ ____
ROOT
ATOM      1  C   UNL     1       9.486   2.400  22.791  0.00  0.00    +0.011 C 
ATOM      2  C   UNL     1       9.272   0.912  22.453  0.00  0.00    +0.089 C 
ATOM      3  N   UNL     1       8.003   0.542  23.042  0.00  0.00    -0.293 NA
ATOM      4  C   UNL     1       7.285  -0.536  22.348  0.00  0.00    +0.090 C 
ATOM      5  C   UNL     1       7.857  -1.941  22.588  0.00  0.00    +0.053 C 
ATOM      6  C   UNL     1       8.099  -2.116  24.044  0.00  0.00    -0.016 A 
ATOM      7  C   UNL     1       8.032  -3.306  24.813  0.00  0.00    +0.003 A 
ATOM      8  C   UNL     1       7.820  -4.663  24.501  0.00  0.00    +0.014 A 
ATOM      9  C   UNL     1       7.696  -5.593  25.539  0.00  0.00    +0.046 A 
ATOM     10  C   UNL     1       7.768  -5.194  26.875  0.00  0.00    +0.122 A 
ATOM     11  C   UNL     1       7.993  -3.846  27.203  0.00  0.00    +0.071 A 
ATOM     12  C   UNL     1       8.130  -2.920  26.150  0.00  0.00    +0.050 A 
ATOM     13  N   UNL     1       8.319  -1.550  26.169  0.00  0.00    -0.356 N 
ATOM     14  H   UNL     1       8.364  -0.998  27.011  0.00  0.00    +0.166 HD
ATOM     15  C   UNL     1       8.273  -1.032  24.896  0.00  0.00    +0.038 A 
ATOM     16  C   UNL     1       8.105   0.437  24.510  0.00  0.00    +0.104 C 
ATOM     17  C   UNL     1       9.166   1.490  25.087  0.00  0.00    +0.030 C 
ATOM     18  C   UNL     1       9.448   2.864  24.272  0.00  0.00    +0.012 C 
ATOM     19  C   UNL     1       8.822   4.496  24.333  0.00  0.00    +0.133 C 
ATOM     20  C   UNL     1       7.576   4.893  23.397  0.00  0.00    +0.172 C 
ATOM     21  C   UNL     1       7.111   3.549  22.918  0.00  0.00    +0.206 C 
ATOM     22  C   UNL     1       8.389   3.135  22.047  0.00  0.00    +0.052 C 
ENDROOT
BRANCH  10  23
ATOM     23  O   UNL     1       7.600  -6.226  27.760  0.00  0.00    -0.495 OA
ATOM     24  C   UNL     1       6.524  -6.125  28.682  0.00  0.00    +0.277 C 
ENDBRANCH  10  23
BRANCH  19  25
ATOM     25  C   UNL     1       8.509   5.143  25.701  0.00  0.00    +0.313 C 
ATOM     26  O   UNL     1       8.009   4.552  26.627  0.00  0.00    -0.250 OA
BRANCH  25  27
ATOM     27  O   UNL     1       8.881   6.455  25.682  0.00  0.00    -0.468 OA
ATOM     28  C   UNL     1      10.223   6.823  25.311  0.00  0.00    +0.280 C 
ENDBRANCH  25  27
ENDBRANCH  19  25
BRANCH  20  29
ATOM     29  O   UNL     1       7.867   5.670  22.216  0.00  0.00    -0.375 OA
ATOM     30  C   UNL     1       7.042   6.771  21.915  0.00  0.00    +0.194 C 
ENDBRANCH  20  29
BRANCH  21  31
ATOM     31  O   UNL     1       6.791   2.792  24.160  0.00  0.00    -0.456 OA
BRANCH  31  32
ATOM     32  C   UNL     1       5.559   2.791  24.782  0.00  0.00    +0.332 C 
ATOM     33  O   UNL     1       4.998   3.765  25.257  0.00  0.00    -0.246 OA
BRANCH  32  34
ATOM     34  C   UNL     1       5.093   1.371  25.016  0.00  0.00    +0.092 C 
ATOM     35  C   UNL     1       5.132   0.639  26.143  0.00  0.00    +0.015 C 
BRANCH  35  36
ATOM     36  C   UNL     1       4.859  -0.835  26.245  0.00  0.00    -0.018 A 
ATOM     37  C   UNL     1       4.719  -1.749  25.188  0.00  0.00    +0.057 A 
ATOM     38  C   UNL     1       4.435  -3.121  25.426  0.00  0.00    +0.166 A 
ATOM     39  C   UNL     1       4.263  -3.610  26.739  0.00  0.00    +0.204 A 
ATOM     40  C   UNL     1       4.380  -2.706  27.811  0.00  0.00    +0.166 A 
ATOM     41  C   UNL     1       4.717  -1.354  27.539  0.00  0.00    +0.057 A 
BRANCH  38  42
ATOM     42  O   UNL     1       4.296  -4.076  24.440  0.00  0.00    -0.491 OA
ATOM     43  C   UNL     1       4.692  -3.774  23.116  0.00  0.00    +0.277 C 
ENDBRANCH  38  42
BRANCH  39  44
ATOM     44  O   UNL     1       3.971  -4.952  26.822  0.00  0.00    -0.488 OA
ATOM     45  C   UNL     1       2.630  -5.382  27.008  0.00  0.00    +0.277 C 
ENDBRANCH  39  44
BRANCH  40  46
ATOM     46  O   UNL     1       4.245  -3.129  29.089  0.00  0.00    -0.491 OA
ATOM     47  C   UNL     1       2.976  -2.840  29.682  0.00  0.00    +0.277 C 
ENDBRANCH  40  46
ENDBRANCH  35  36
ENDBRANCH  32  34
ENDBRANCH  31  32
ENDBRANCH  21  31
TORSDOF 11
ENDMDL
MODEL 9
REMARK VINA RESULT:      -5.7      2.663      6.383
REMARK  Name = 
REMARK  17 active torsions:
REMARK  status: ('A' for Active; 'I' for Inactive)
REMARK    1  A    between atoms: C_4  and  O_6
REMARK    2  A    between atoms: O_6  and  C_7
REMARK    3  A    between atoms: C_7  and  C_9
REMARK    4  A    between atoms: C_10  and  C_11
REMARK    5  A    between atoms: C_13  and  O_14
REMARK    6  A    between atoms: O_14  and  C_15
REMARK    7  A    between atoms: C_16  and  O_17
REMARK    8  A    between atoms: O_17  and  C_18
REMARK    9  A    between atoms: C_19  and  O_20
REMARK   10  A    between atoms: O_20  and  C_21
REMARK   11  A    between atoms: C_23  and  O_25
REMARK   12  A    between atoms: O_25  and  C_26
REMARK   13  A    between atoms: C_27  and  C_29
REMARK   14  A    between atoms: C_29  and  O_31
REMARK   15  A    between atoms: O_31  and  C_32
REMARK   16  A    between atoms: C_48  and  O_49
REMARK   17  A    between atoms: O_49  and  C_50
REMARK                            x       y       z     vdW  Elec       q    Type
REMARK                         _______ _______ _______ _____ _____    ______ ____
ROOT
ATOM      1  C   UNL     1       9.428  -1.935  22.521  0.00  0.00    +0.011 C 
ATOM      2  C   UNL     1       9.831  -0.459  22.699  0.00  0.00    +0.089 C 
ATOM      3  N   UNL     1       9.038   0.049  23.797  0.00  0.00    -0.293 NA
ATOM      4  C   UNL     1       9.661   1.136  24.565  0.00  0.00    +0.090 C 
ATOM      5  C   UNL     1       9.645   2.502  23.864  0.00  0.00    +0.053 C 
ATOM      6  C   UNL     1       8.282   2.748  23.326  0.00  0.00    -0.016 A 
ATOM      7  C   UNL     1       7.607   3.984  23.160  0.00  0.00    +0.003 A 
ATOM      8  C   UNL     1       7.976   5.332  23.338  0.00  0.00    +0.014 A 
ATOM      9  C   UNL     1       7.008   6.331  23.192  0.00  0.00    +0.046 A 
ATOM     10  C   UNL     1       5.685   6.012  22.882  0.00  0.00    +0.122 A 
ATOM     11  C   UNL     1       5.304   4.674  22.687  0.00  0.00    +0.071 A 
ATOM     12  C   UNL     1       6.290   3.676  22.824  0.00  0.00    +0.050 A 
ATOM     13  N   UNL     1       6.202   2.299  22.727  0.00  0.00    -0.356 N 
ATOM     14  H   UNL     1       5.345   1.799  22.552  0.00  0.00    +0.166 HD
ATOM     15  C   UNL     1       7.398   1.708  23.060  0.00  0.00    +0.038 A 
ATOM     16  C   UNL     1       7.631   0.237  23.399  0.00  0.00    +0.104 C 
ATOM     17  C   UNL     1       7.190  -0.861  22.317  0.00  0.00    +0.030 C 
ATOM     18  C   UNL     1       7.936  -2.302  22.295  0.00  0.00    +0.012 C 
ATOM     19  C   UNL     1       7.630  -3.871  23.004  0.00  0.00    +0.133 C 
ATOM     20  C   UNL     1       8.274  -4.223  24.435  0.00  0.00    +0.172 C 
ATOM     21  C   UNL     1       8.755  -2.878  24.895  0.00  0.00    +0.206 C 
ATOM     22  C   UNL     1       9.887  -2.624  23.790  0.00  0.00    +0.052 C 
ENDROOT
BRANCH  10  23
ATOM     23  O   UNL     1       4.866   7.108  22.802  0.00  0.00    -0.495 OA
ATOM     24  C   UNL     1       3.877   7.108  21.783  0.00  0.00    +0.277 C 
ENDBRANCH  10  23
BRANCH  19  25
ATOM     25  C   UNL     1       6.182  -4.404  23.081  0.00  0.00    +0.313 C 
ATOM     26  O   UNL     1       5.247  -3.758  23.488  0.00  0.00    -0.250 OA
BRANCH  25  27
ATOM     27  O   UNL     1       6.143  -5.689  22.626  0.00  0.00    -0.468 OA
ATOM     28  C   UNL     1       6.255  -5.963  21.218  0.00  0.00    +0.280 C 
ENDBRANCH  25  27
ENDBRANCH  19  25
BRANCH  20  29
ATOM     29  O   UNL     1       9.426  -5.093  24.437  0.00  0.00    -0.375 OA
ATOM     30  C   UNL     1       9.910  -5.564  25.673  0.00  0.00    +0.194 C 
ENDBRANCH  20  29
BRANCH  21  31
ATOM     31  O   UNL     1       7.537  -2.023  24.910  0.00  0.00    -0.456 OA
BRANCH  31  32
ATOM     32  C   UNL     1       6.906  -1.578  26.055  0.00  0.00    +0.332 C 
ATOM     33  O   UNL     1       7.321  -0.714  26.809  0.00  0.00    -0.246 OA
BRANCH  32  34
ATOM     34  C   UNL     1       5.736  -2.477  26.389  0.00  0.00    +0.092 C 
ATOM     35  C   UNL     1       5.684  -3.524  27.232  0.00  0.00    +0.015 C 
BRANCH  35  36
ATOM     36  C   UNL     1       4.552  -4.506  27.344  0.00  0.00    -0.018 A 
ATOM     37  C   UNL     1       4.428  -5.560  28.264  0.00  0.00    +0.057 A 
ATOM     38  C   UNL     1       3.310  -6.436  28.244  0.00  0.00    +0.166 A 
ATOM     39  C   UNL     1       2.288  -6.287  27.281  0.00  0.00    +0.204 A 
ATOM     40  C   UNL     1       2.403  -5.249  26.339  0.00  0.00    +0.166 A 
ATOM     41  C   UNL     1       3.507  -4.361  26.421  0.00  0.00    +0.057 A 
BRANCH  38  42
ATOM     42  O   UNL     1       3.117  -7.483  29.121  0.00  0.00    -0.491 OA
ATOM     43  C   UNL     1       2.854  -7.211  30.485  0.00  0.00    +0.277 C 
ENDBRANCH  38  42
BRANCH  39  44
ATOM     44  O   UNL     1       1.277  -7.216  27.364  0.00  0.00    -0.488 OA
ATOM     45  C   UNL     1       1.181  -8.257  26.403  0.00  0.00    +0.277 C 
ENDBRANCH  39  44
BRANCH  40  46
ATOM     46  O   UNL     1       1.440  -5.051  25.408  0.00  0.00    -0.491 OA
ATOM     47  C   UNL     1       1.873  -5.219  24.056  0.00  0.00    +0.277 C 
ENDBRANCH  40  46
ENDBRANCH  35  36
ENDBRANCH  32  34
ENDBRANCH  31  32
ENDBRANCH  21  31
TORSDOF 11
ENDMDL
