MODEL 1
REMARK VINA RESULT:      -6.9      0.000      0.000
REMARK  Name = 
REMARK  7 active torsions:
REMARK  status: ('A' for Active; 'I' for Inactive)
REMARK    1  A    between atoms: C_1  and  O_2
REMARK    2  A    between atoms: O_2  and  C_3
REMARK    3  A    between atoms: C_3  and  C_4
REMARK    4  A    between atoms: C_4  and  N_5
REMARK    5  A    between atoms: N_5  and  C_6
REMARK    6  A    between atoms: C_8  and  N_15
REMARK    7  A    between atoms: C_11  and  C_12
REMARK                            x       y       z     vdW  Elec       q    Type
REMARK                         _______ _______ _______ _____ _____    ______ ____
ROOT
ATOM      1  C   UNL     1       7.943   0.376  23.588  0.00  0.00    +0.041 A 
ATOM      2  C   UNL     1       9.329   0.326  23.316  0.00  0.00    +0.057 A 
ATOM      3  C   UNL     1       9.986  -0.917  23.260  0.00  0.00    +0.017 A 
ATOM      4  C   UNL     1       9.298  -2.116  23.483  0.00  0.00    +0.027 A 
ATOM      5  C   UNL     1       7.942  -2.093  23.804  0.00  0.00    +0.049 A 
ATOM      6  C   UNL     1       7.299  -0.850  23.873  0.00  0.00    +0.049 A 
ENDROOT
BRANCH   5   7
ATOM      7  N   UNL     1       7.212  -3.302  24.080  0.00  0.00    -0.312 N 
ATOM      8  C   UNL     1       6.767  -4.228  23.119  0.00  0.00    +0.055 A 
ATOM      9  C   UNL     1       6.088  -5.256  23.785  0.00  0.00    +0.011 A 
ATOM     10  C   UNL     1       5.512  -6.311  23.043  0.00  0.00    +0.011 A 
ATOM     11  C   UNL     1       5.654  -6.348  21.657  0.00  0.00    +0.001 A 
ATOM     12  C   UNL     1       6.382  -5.364  21.008  0.00  0.00    +0.002 A 
ATOM     13  C   UNL     1       6.182  -4.999  25.171  0.00  0.00    +0.046 A 
ATOM     14  C   UNL     1       5.708  -5.789  26.300  0.00  0.00    +0.165 C 
ATOM     15  C   UNL     1       6.135  -5.299  27.676  0.00  0.00    +0.080 C 
ATOM     16  C   UNL     1       6.113  -3.771  27.733  0.00  0.00    +0.014 C 
ATOM     17  C   UNL     1       7.044  -3.143  26.678  0.00  0.00    +0.055 C 
ATOM     18  O   UNL     1       5.072  -6.835  26.168  0.00  0.00    -0.292 OA
ATOM     19  C   UNL     1       6.958  -4.305  21.721  0.00  0.00    +0.027 A 
ATOM     20  C   UNL     1       6.846  -3.793  25.338  0.00  0.00    +0.035 A 
ENDBRANCH   5   7
BRANCH   2  21
ATOM     21  C   UNL     1      10.192   1.522  23.079  0.00  0.00    +0.243 C 
ATOM     22  O   UNL     1      10.881   2.010  23.964  0.00  0.00    -0.270 OA
ATOM     23  N   UNL     1      10.154   2.097  21.840  0.00  0.00    -0.325 N 
ATOM     24  H   UNL     1      10.651   2.967  21.704  0.00  0.00    +0.145 HD
ATOM     25  H   UNL     1       9.482   1.788  21.147  0.00  0.00    +0.145 HD
ENDBRANCH   2  21
BRANCH   1  26
ATOM     26  N   UNL     1       7.241   1.604  23.676  0.00  0.00    -0.341 N 
ATOM     27  H   UNL     1       7.890   2.354  23.943  0.00  0.00    +0.146 HD
BRANCH  26  28
ATOM     28  C   UNL     1       6.425   2.025  22.524  0.00  0.00    +0.129 C 
BRANCH  28  29
ATOM     29  C   UNL     1       6.514   3.533  22.296  0.00  0.00    +0.178 C 
BRANCH  29  31
ATOM     30  C   UNL     1       7.886   5.268  23.090  0.00  0.00    +0.194 C 
ATOM     31  O   UNL     1       7.858   3.969  22.511  0.00  0.00    -0.381 OA
ENDBRANCH  29  31
ENDBRANCH  28  29
ENDBRANCH  26  28
ENDBRANCH   1  26
TORSDOF 6
ENDMDL
MODEL 2
REMARK VINA RESULT:      -6.8      2.465      7.447
REMARK  Name = 
REMARK  7 active torsions:
REMARK  status: ('A' for Active; 'I' for Inactive)
REMARK    1  A    between atoms: C_1  and  O_2
REMARK    2  A    between atoms: O_2  and  C_3
REMARK    3  A    between atoms: C_3  and  C_4
REMARK    4  A    between atoms: C_4  and  N_5
REMARK    5  A    between atoms: N_5  and  C_6
REMARK    6  A    between atoms: C_8  and  N_15
REMARK    7  A    between atoms: C_11  and  C_12
REMARK                            x       y       z     vdW  Elec       q    Type
REMARK                         _______ _______ _______ _____ _____    ______ ____
ROOT
ATOM      1  C   UNL     1       7.906  -4.066  23.912  0.00  0.00    +0.041 A 
ATOM      2  C   UNL     1       6.917  -4.272  22.923  0.00  0.00    +0.057 A 
ATOM      3  C   UNL     1       6.241  -3.169  22.370  0.00  0.00    +0.017 A 
ATOM      4  C   UNL     1       6.514  -1.862  22.789  0.00  0.00    +0.027 A 
ATOM      5  C   UNL     1       7.448  -1.632  23.797  0.00  0.00    +0.049 A 
ATOM      6  C   UNL     1       8.106  -2.738  24.353  0.00  0.00    +0.049 A 
ENDROOT
BRANCH   5   7
ATOM      7  N   UNL     1       7.726  -0.306  24.282  0.00  0.00    -0.312 N 
ATOM      8  C   UNL     1       8.604   0.616  23.684  0.00  0.00    +0.055 A 
ATOM      9  C   UNL     1       8.607   1.782  24.463  0.00  0.00    +0.011 A 
ATOM     10  C   UNL     1       9.434   2.866  24.095  0.00  0.00    +0.011 A 
ATOM     11  C   UNL     1      10.213   2.791  22.942  0.00  0.00    +0.001 A 
ATOM     12  C   UNL     1      10.158   1.662  22.140  0.00  0.00    +0.002 A 
ATOM     13  C   UNL     1       7.668   1.602  25.501  0.00  0.00    +0.046 A 
ATOM     14  C   UNL     1       7.237   2.529  26.541  0.00  0.00    +0.165 C 
ATOM     15  C   UNL     1       6.069   2.065  27.398  0.00  0.00    +0.080 C 
ATOM     16  C   UNL     1       6.178   0.567  27.689  0.00  0.00    +0.014 C 
ATOM     17  C   UNL     1       6.198  -0.270  26.395  0.00  0.00    +0.055 C 
ATOM     18  O   UNL     1       7.718   3.653  26.678  0.00  0.00    -0.292 OA
ATOM     19  C   UNL     1       9.350   0.573  22.485  0.00  0.00    +0.027 A 
ATOM     20  C   UNL     1       7.155   0.317  25.397  0.00  0.00    +0.035 A 
ENDBRANCH   5   7
BRANCH   2  21
ATOM     21  C   UNL     1       6.506  -5.609  22.397  0.00  0.00    +0.243 C 
ATOM     22  O   UNL     1       7.310  -6.381  21.892  0.00  0.00    -0.270 OA
ATOM     23  N   UNL     1       5.180  -5.932  22.451  0.00  0.00    -0.325 N 
ATOM     24  H   UNL     1       4.880  -6.787  22.001  0.00  0.00    +0.145 HD
ATOM     25  H   UNL     1       4.491  -5.245  22.736  0.00  0.00    +0.145 HD
ENDBRANCH   2  21
BRANCH   1  26
ATOM     26  N   UNL     1       8.600  -5.145  24.513  0.00  0.00    -0.341 N 
ATOM     27  H   UNL     1       9.539  -5.222  24.103  0.00  0.00    +0.146 HD
BRANCH  26  28
ATOM     28  C   UNL     1       8.682  -5.189  25.982  0.00  0.00    +0.129 C 
BRANCH  28  29
ATOM     29  C   UNL     1       7.297  -5.299  26.618  0.00  0.00    +0.178 C 
BRANCH  29  31
ATOM     30  C   UNL     1       6.148  -6.001  28.544  0.00  0.00    +0.194 C 
ATOM     31  O   UNL     1       7.397  -5.994  27.862  0.00  0.00    -0.381 OA
ENDBRANCH  29  31
ENDBRANCH  28  29
ENDBRANCH  26  28
ENDBRANCH   1  26
TORSDOF 6
ENDMDL
MODEL 3
REMARK VINA RESULT:      -6.8      2.379      7.899
REMARK  Name = 
REMARK  7 active torsions:
REMARK  status: ('A' for Active; 'I' for Inactive)
REMARK    1  A    between atoms: C_1  and  O_2
REMARK    2  A    between atoms: O_2  and  C_3
REMARK    3  A    between atoms: C_3  and  C_4
REMARK    4  A    between atoms: C_4  and  N_5
REMARK    5  A    between atoms: N_5  and  C_6
REMARK    6  A    between atoms: C_8  and  N_15
REMARK    7  A    between atoms: C_11  and  C_12
REMARK                            x       y       z     vdW  Elec       q    Type
REMARK                         _______ _______ _______ _____ _____    ______ ____
ROOT
ATOM      1  C   UNL     1       7.886  -4.074  23.911  0.00  0.00    +0.041 A 
ATOM      2  C   UNL     1       6.916  -4.332  22.916  0.00  0.00    +0.057 A 
ATOM      3  C   UNL     1       6.220  -3.262  22.324  0.00  0.00    +0.017 A 
ATOM      4  C   UNL     1       6.455  -1.937  22.710  0.00  0.00    +0.027 A 
ATOM      5  C   UNL     1       7.369  -1.657  23.724  0.00  0.00    +0.049 A 
ATOM      6  C   UNL     1       8.048  -2.730  24.318  0.00  0.00    +0.049 A 
ENDROOT
BRANCH   5   7
ATOM      7  N   UNL     1       7.608  -0.312  24.175  0.00  0.00    -0.312 N 
ATOM      8  C   UNL     1       6.966   0.314  25.259  0.00  0.00    +0.055 A 
ATOM      9  C   UNL     1       7.464   1.620  25.365  0.00  0.00    +0.011 A 
ATOM     10  C   UNL     1       6.963   2.480  26.367  0.00  0.00    +0.011 A 
ATOM     11  C   UNL     1       6.006   2.020  27.268  0.00  0.00    +0.001 A 
ATOM     12  C   UNL     1       5.563   0.709  27.201  0.00  0.00    +0.002 A 
ATOM     13  C   UNL     1       8.472   1.771  24.388  0.00  0.00    +0.046 A 
ATOM     14  C   UNL     1       9.349   2.905  24.119  0.00  0.00    +0.165 C 
ATOM     15  C   UNL     1      10.449   2.662  23.097  0.00  0.00    +0.080 C 
ATOM     16  C   UNL     1       9.935   1.788  21.952  0.00  0.00    +0.014 C 
ATOM     17  C   UNL     1       9.425   0.424  22.454  0.00  0.00    +0.055 C 
ATOM     18  O   UNL     1       9.272   3.971  24.730  0.00  0.00    -0.292 OA
ATOM     19  C   UNL     1       6.041  -0.162  26.215  0.00  0.00    +0.027 A 
ATOM     20  C   UNL     1       8.534   0.598  23.652  0.00  0.00    +0.035 A 
ENDBRANCH   5   7
BRANCH   2  21
ATOM     21  C   UNL     1       6.546  -5.693  22.422  0.00  0.00    +0.243 C 
ATOM     22  O   UNL     1       7.364  -6.437  21.899  0.00  0.00    -0.270 OA
ATOM     23  N   UNL     1       5.237  -6.072  22.527  0.00  0.00    -0.325 N 
ATOM     24  H   UNL     1       4.959  -6.945  22.099  0.00  0.00    +0.145 HD
ATOM     25  H   UNL     1       4.529  -5.411  22.826  0.00  0.00    +0.145 HD
ENDBRANCH   2  21
BRANCH   1  26
ATOM     26  N   UNL     1       8.599  -5.119  24.551  0.00  0.00    -0.341 N 
ATOM     27  H   UNL     1       9.546  -5.180  24.158  0.00  0.00    +0.146 HD
BRANCH  26  28
ATOM     28  C   UNL     1       8.656  -5.125  26.022  0.00  0.00    +0.129 C 
BRANCH  28  29
ATOM     29  C   UNL     1       7.272  -5.329  26.635  0.00  0.00    +0.178 C 
BRANCH  29  31
ATOM     30  C   UNL     1       6.155  -6.030  28.580  0.00  0.00    +0.194 C 
ATOM     31  O   UNL     1       7.402  -5.986  27.898  0.00  0.00    -0.381 OA
ENDBRANCH  29  31
ENDBRANCH  28  29
ENDBRANCH  26  28
ENDBRANCH   1  26
TORSDOF 6
ENDMDL
MODEL 4
REMARK VINA RESULT:      -6.8      2.474      7.942
REMARK  Name = 
REMARK  7 active torsions:
REMARK  status: ('A' for Active; 'I' for Inactive)
REMARK    1  A    between atoms: C_1  and  O_2
REMARK    2  A    between atoms: O_2  and  C_3
REMARK    3  A    between atoms: C_3  and  C_4
REMARK    4  A    between atoms: C_4  and  N_5
REMARK    5  A    between atoms: N_5  and  C_6
REMARK    6  A    between atoms: C_8  and  N_15
REMARK    7  A    between atoms: C_11  and  C_12
REMARK                            x       y       z     vdW  Elec       q    Type
REMARK                         _______ _______ _______ _____ _____    ______ ____
ROOT
ATOM      1  C   UNL     1       6.426  -3.151  25.001  0.00  0.00    +0.041 A 
ATOM      2  C   UNL     1       7.251  -3.871  25.895  0.00  0.00    +0.057 A 
ATOM      3  C   UNL     1       8.280  -3.207  26.587  0.00  0.00    +0.017 A 
ATOM      4  C   UNL     1       8.519  -1.840  26.400  0.00  0.00    +0.027 A 
ATOM      5  C   UNL     1       7.755  -1.116  25.488  0.00  0.00    +0.049 A 
ATOM      6  C   UNL     1       6.742  -1.789  24.791  0.00  0.00    +0.049 A 
ENDROOT
BRANCH   5   7
ATOM      7  N   UNL     1       7.999   0.280  25.239  0.00  0.00    -0.312 N 
ATOM      8  C   UNL     1       7.553   1.345  26.044  0.00  0.00    +0.055 A 
ATOM      9  C   UNL     1       7.983   2.544  25.458  0.00  0.00    +0.011 A 
ATOM     10  C   UNL     1       7.643   3.776  26.058  0.00  0.00    +0.011 A 
ATOM     11  C   UNL     1       6.918   3.798  27.248  0.00  0.00    +0.001 A 
ATOM     12  C   UNL     1       6.551   2.610  27.858  0.00  0.00    +0.002 A 
ATOM     13  C   UNL     1       8.761   2.209  24.329  0.00  0.00    +0.046 A 
ATOM     14  C   UNL     1       9.495   3.073  23.412  0.00  0.00    +0.165 C 
ATOM     15  C   UNL     1      10.378   2.363  22.398  0.00  0.00    +0.080 C 
ATOM     16  C   UNL     1       9.697   1.092  21.889  0.00  0.00    +0.014 C 
ATOM     17  C   UNL     1       9.382   0.111  23.035  0.00  0.00    +0.055 C 
ATOM     18  O   UNL     1       9.480   4.302  23.491  0.00  0.00    -0.292 OA
ATOM     19  C   UNL     1       6.871   1.375  27.281  0.00  0.00    +0.027 A 
ATOM     20  C   UNL     1       8.743   0.830  24.189  0.00  0.00    +0.035 A 
ENDBRANCH   5   7
BRANCH   2  21
ATOM     21  C   UNL     1       7.126  -5.333  26.176  0.00  0.00    +0.243 C 
ATOM     22  O   UNL     1       6.125  -5.968  25.872  0.00  0.00    -0.270 OA
ATOM     23  N   UNL     1       8.155  -5.943  26.836  0.00  0.00    -0.325 N 
ATOM     24  H   UNL     1       8.032  -6.905  27.125  0.00  0.00    +0.145 HD
ATOM     25  H   UNL     1       8.921  -5.399  27.216  0.00  0.00    +0.145 HD
ENDBRANCH   2  21
BRANCH   1  26
ATOM     26  N   UNL     1       5.391  -3.780  24.265  0.00  0.00    -0.341 N 
ATOM     27  H   UNL     1       4.521  -3.764  24.813  0.00  0.00    +0.146 HD
BRANCH  26  28
ATOM     28  C   UNL     1       5.134  -3.320  22.890  0.00  0.00    +0.129 C 
BRANCH  28  29
ATOM     29  C   UNL     1       6.084  -3.980  21.893  0.00  0.00    +0.178 C 
BRANCH  29  31
ATOM     30  C   UNL     1       6.585  -6.276  21.876  0.00  0.00    +0.194 C 
ATOM     31  O   UNL     1       5.607  -5.289  21.573  0.00  0.00    -0.381 OA
ENDBRANCH  29  31
ENDBRANCH  28  29
ENDBRANCH  26  28
ENDBRANCH   1  26
TORSDOF 6
ENDMDL
MODEL 5
REMARK VINA RESULT:      -6.7      2.461      7.421
REMARK  Name = 
REMARK  7 active torsions:
REMARK  status: ('A' for Active; 'I' for Inactive)
REMARK    1  A    between atoms: C_1  and  O_2
REMARK    2  A    between atoms: O_2  and  C_3
REMARK    3  A    between atoms: C_3  and  C_4
REMARK    4  A    between atoms: C_4  and  N_5
REMARK    5  A    between atoms: N_5  and  C_6
REMARK    6  A    between atoms: C_8  and  N_15
REMARK    7  A    between atoms: C_11  and  C_12
REMARK                            x       y       z     vdW  Elec       q    Type
REMARK                         _______ _______ _______ _____ _____    ______ ____
ROOT
ATOM      1  C   UNL     1       6.149  -3.183  25.293  0.00  0.00    +0.041 A 
ATOM      2  C   UNL     1       7.049  -3.949  26.068  0.00  0.00    +0.057 A 
ATOM      3  C   UNL     1       8.217  -3.352  26.576  0.00  0.00    +0.017 A 
ATOM      4  C   UNL     1       8.522  -2.011  26.318  0.00  0.00    +0.027 A 
ATOM      5  C   UNL     1       7.679  -1.245  25.514  0.00  0.00    +0.049 A 
ATOM      6  C   UNL     1       6.525  -1.852  25.000  0.00  0.00    +0.049 A 
ENDROOT
BRANCH   5   7
ATOM      7  N   UNL     1       7.980   0.125  25.194  0.00  0.00    -0.312 N 
ATOM      8  C   UNL     1       8.697   0.563  24.066  0.00  0.00    +0.055 A 
ATOM      9  C   UNL     1       8.788   1.961  24.123  0.00  0.00    +0.011 A 
ATOM     10  C   UNL     1       9.487   2.658  23.114  0.00  0.00    +0.011 A 
ATOM     11  C   UNL     1      10.051   1.963  22.046  0.00  0.00    +0.001 A 
ATOM     12  C   UNL     1       9.904   0.588  21.959  0.00  0.00    +0.002 A 
ATOM     13  C   UNL     1       8.057   2.388  25.253  0.00  0.00    +0.046 A 
ATOM     14  C   UNL     1       7.777   3.737  25.728  0.00  0.00    +0.165 C 
ATOM     15  C   UNL     1       6.803   3.841  26.891  0.00  0.00    +0.080 C 
ATOM     16  C   UNL     1       7.027   2.699  27.884  0.00  0.00    +0.014 C 
ATOM     17  C   UNL     1       6.854   1.319  27.221  0.00  0.00    +0.055 C 
ATOM     18  O   UNL     1       8.226   4.746  25.184  0.00  0.00    -0.292 OA
ATOM     19  C   UNL     1       9.219  -0.127  22.949  0.00  0.00    +0.027 A 
ATOM     20  C   UNL     1       7.591   1.260  25.913  0.00  0.00    +0.035 A 
ENDBRANCH   5   7
BRANCH   2  21
ATOM     21  C   UNL     1       6.864  -5.393  26.405  0.00  0.00    +0.243 C 
ATOM     22  O   UNL     1       5.868  -6.016  26.064  0.00  0.00    -0.270 OA
ATOM     23  N   UNL     1       7.831  -5.998  27.158  0.00  0.00    -0.325 N 
ATOM     24  H   UNL     1       7.662  -6.941  27.480  0.00  0.00    +0.145 HD
ATOM     25  H   UNL     1       8.586  -5.455  27.563  0.00  0.00    +0.145 HD
ENDBRANCH   2  21
BRANCH   1  26
ATOM     26  N   UNL     1       4.969  -3.744  24.742  0.00  0.00    -0.341 N 
ATOM     27  H   UNL     1       4.148  -3.254  25.118  0.00  0.00    +0.146 HD
BRANCH  26  28
ATOM     28  C   UNL     1       4.868  -3.856  23.278  0.00  0.00    +0.129 C 
BRANCH  28  29
ATOM     29  C   UNL     1       4.741  -5.313  22.836  0.00  0.00    +0.178 C 
BRANCH  29  31
ATOM     30  C   UNL     1       6.832  -5.208  21.769  0.00  0.00    +0.194 C 
ATOM     31  O   UNL     1       5.450  -5.503  21.609  0.00  0.00    -0.381 OA
ENDBRANCH  29  31
ENDBRANCH  28  29
ENDBRANCH  26  28
ENDBRANCH   1  26
TORSDOF 6
ENDMDL
MODEL 6
REMARK VINA RESULT:      -6.5      2.457      7.467
REMARK  Name = 
REMARK  7 active torsions:
REMARK  status: ('A' for Active; 'I' for Inactive)
REMARK    1  A    between atoms: C_1  and  O_2
REMARK    2  A    between atoms: O_2  and  C_3
REMARK    3  A    between atoms: C_3  and  C_4
REMARK    4  A    between atoms: C_4  and  N_5
REMARK    5  A    between atoms: N_5  and  C_6
REMARK    6  A    between atoms: C_8  and  N_15
REMARK    7  A    between atoms: C_11  and  C_12
REMARK                            x       y       z     vdW  Elec       q    Type
REMARK                         _______ _______ _______ _____ _____    ______ ____
ROOT
ATOM      1  C   UNL     1       8.104  -3.060  23.885  0.00  0.00    +0.041 A 
ATOM      2  C   UNL     1       8.526  -3.614  25.116  0.00  0.00    +0.057 A 
ATOM      3  C   UNL     1       8.691  -2.781  26.237  0.00  0.00    +0.017 A 
ATOM      4  C   UNL     1       8.462  -1.402  26.162  0.00  0.00    +0.027 A 
ATOM      5  C   UNL     1       8.095  -0.821  24.950  0.00  0.00    +0.049 A 
ATOM      6  C   UNL     1       7.947  -1.656  23.833  0.00  0.00    +0.049 A 
ENDROOT
BRANCH   5   7
ATOM      7  N   UNL     1       7.890   0.597  24.824  0.00  0.00    -0.312 N 
ATOM      8  C   UNL     1       8.863   1.534  24.431  0.00  0.00    +0.055 A 
ATOM      9  C   UNL     1       8.275   2.806  24.445  0.00  0.00    +0.011 A 
ATOM     10  C   UNL     1       9.051   3.938  24.113  0.00  0.00    +0.011 A 
ATOM     11  C   UNL     1      10.383   3.787  23.734  0.00  0.00    +0.001 A 
ATOM     12  C   UNL     1      10.943   2.521  23.658  0.00  0.00    +0.002 A 
ATOM     13  C   UNL     1       6.913   2.640  24.776  0.00  0.00    +0.046 A 
ATOM     14  C   UNL     1       5.846   3.631  24.860  0.00  0.00    +0.165 C 
ATOM     15  C   UNL     1       4.445   3.078  25.074  0.00  0.00    +0.080 C 
ATOM     16  C   UNL     1       4.478   1.888  26.035  0.00  0.00    +0.014 C 
ATOM     17  C   UNL     1       5.379   0.752  25.513  0.00  0.00    +0.055 C 
ATOM     18  O   UNL     1       6.034   4.835  24.687  0.00  0.00    -0.292 OA
ATOM     19  C   UNL     1      10.197   1.383  23.988  0.00  0.00    +0.027 A 
ATOM     20  C   UNL     1       6.694   1.295  25.030  0.00  0.00    +0.035 A 
ENDBRANCH   5   7
BRANCH   2  21
ATOM     21  C   UNL     1       8.827  -5.060  25.337  0.00  0.00    +0.243 C 
ATOM     22  O   UNL     1       9.443  -5.727  24.517  0.00  0.00    -0.270 OA
ATOM     23  N   UNL     1       8.347  -5.642  26.477  0.00  0.00    -0.325 N 
ATOM     24  H   UNL     1       8.454  -6.642  26.582  0.00  0.00    +0.145 HD
ATOM     25  H   UNL     1       7.717  -5.136  27.090  0.00  0.00    +0.145 HD
ENDBRANCH   2  21
BRANCH   1  26
ATOM     26  N   UNL     1       7.943  -3.854  22.723  0.00  0.00    -0.341 N 
ATOM     27  H   UNL     1       8.210  -4.824  22.928  0.00  0.00    +0.146 HD
BRANCH  26  28
ATOM     28  C   UNL     1       6.644  -3.820  22.030  0.00  0.00    +0.129 C 
BRANCH  28  29
ATOM     29  C   UNL     1       6.091  -5.227  21.809  0.00  0.00    +0.178 C 
BRANCH  29  31
ATOM     30  C   UNL     1       4.494  -4.364  23.301  0.00  0.00    +0.194 C 
ATOM     31  O   UNL     1       4.727  -5.276  22.235  0.00  0.00    -0.381 OA
ENDBRANCH  29  31
ENDBRANCH  28  29
ENDBRANCH  26  28
ENDBRANCH   1  26
TORSDOF 6
ENDMDL
MODEL 7
REMARK VINA RESULT:      -6.5      2.443      8.040
REMARK  Name = 
REMARK  7 active torsions:
REMARK  status: ('A' for Active; 'I' for Inactive)
REMARK    1  A    between atoms: C_1  and  O_2
REMARK    2  A    between atoms: O_2  and  C_3
REMARK    3  A    between atoms: C_3  and  C_4
REMARK    4  A    between atoms: C_4  and  N_5
REMARK    5  A    between atoms: N_5  and  C_6
REMARK    6  A    between atoms: C_8  and  N_15
REMARK    7  A    between atoms: C_11  and  C_12
REMARK                            x       y       z     vdW  Elec       q    Type
REMARK                         _______ _______ _______ _____ _____    ______ ____
ROOT
ATOM      1  C   UNL     1       8.375  -1.717  23.382  0.00  0.00    +0.041 A 
ATOM      2  C   UNL     1       8.784  -2.125  24.672  0.00  0.00    +0.057 A 
ATOM      3  C   UNL     1       8.951  -1.167  25.689  0.00  0.00    +0.017 A 
ATOM      4  C   UNL     1       8.734   0.195  25.449  0.00  0.00    +0.027 A 
ATOM      5  C   UNL     1       8.379   0.632  24.174  0.00  0.00    +0.049 A 
ATOM      6  C   UNL     1       8.230  -0.328  23.163  0.00  0.00    +0.049 A 
ENDROOT
BRANCH   5   7
ATOM      7  N   UNL     1       8.188   2.027  23.880  0.00  0.00    -0.312 N 
ATOM      8  C   UNL     1       6.947   2.659  23.679  0.00  0.00    +0.055 A 
ATOM      9  C   UNL     1       7.186   4.012  23.405  0.00  0.00    +0.011 A 
ATOM     10  C   UNL     1       6.100   4.874  23.136  0.00  0.00    +0.011 A 
ATOM     11  C   UNL     1       4.795   4.388  23.181  0.00  0.00    +0.001 A 
ATOM     12  C   UNL     1       4.559   3.064  23.516  0.00  0.00    +0.002 A 
ATOM     13  C   UNL     1       8.577   4.228  23.515  0.00  0.00    +0.046 A 
ATOM     14  C   UNL     1       9.342   5.464  23.395  0.00  0.00    +0.165 C 
ATOM     15  C   UNL     1      10.818   5.365  23.747  0.00  0.00    +0.080 C 
ATOM     16  C   UNL     1      11.401   4.040  23.252  0.00  0.00    +0.014 C 
ATOM     17  C   UNL     1      10.670   2.828  23.861  0.00  0.00    +0.055 C 
ATOM     18  O   UNL     1       8.828   6.546  23.111  0.00  0.00    -0.292 OA
ATOM     19  C   UNL     1       5.618   2.189  23.782  0.00  0.00    +0.027 A 
ATOM     20  C   UNL     1       9.181   3.008  23.779  0.00  0.00    +0.035 A 
ENDBRANCH   5   7
BRANCH   2  21
ATOM     21  C   UNL     1       9.072  -3.538  25.065  0.00  0.00    +0.243 C 
ATOM     22  O   UNL     1       9.959  -4.191  24.534  0.00  0.00    -0.270 OA
ATOM     23  N   UNL     1       8.272  -4.107  26.016  0.00  0.00    -0.325 N 
ATOM     24  H   UNL     1       8.391  -5.093  26.209  0.00  0.00    +0.145 HD
ATOM     25  H   UNL     1       7.449  -3.623  26.357  0.00  0.00    +0.145 HD
ENDBRANCH   2  21
BRANCH   1  26
ATOM     26  N   UNL     1       8.214  -2.642  22.320  0.00  0.00    -0.341 N 
ATOM     27  H   UNL     1       9.111  -3.104  22.127  0.00  0.00    +0.146 HD
BRANCH  26  28
ATOM     28  C   UNL     1       7.138  -3.641  22.423  0.00  0.00    +0.129 C 
BRANCH  28  29
ATOM     29  C   UNL     1       5.774  -3.031  22.105  0.00  0.00    +0.178 C 
BRANCH  29  31
ATOM     30  C   UNL     1       5.302  -5.301  22.489  0.00  0.00    +0.194 C 
ATOM     31  O   UNL     1       4.750  -3.997  22.352  0.00  0.00    -0.381 OA
ENDBRANCH  29  31
ENDBRANCH  28  29
ENDBRANCH  26  28
ENDBRANCH   1  26
TORSDOF 6
ENDMDL
MODEL 8
REMARK VINA RESULT:      -6.4      0.646      3.072
REMARK  Name = 
REMARK  7 active torsions:
REMARK  status: ('A' for Active; 'I' for Inactive)
REMARK    1  A    between atoms: C_1  and  O_2
REMARK    2  A    between atoms: O_2  and  C_3
REMARK    3  A    between atoms: C_3  and  C_4
REMARK    4  A    between atoms: C_4  and  N_5
REMARK    5  A    between atoms: N_5  and  C_6
REMARK    6  A    between atoms: C_8  and  N_15
REMARK    7  A    between atoms: C_11  and  C_12
REMARK                            x       y       z     vdW  Elec       q    Type
REMARK                         _______ _______ _______ _____ _____    ______ ____
ROOT
ATOM      1  C   UNL     1       7.798   0.543  23.605  0.00  0.00    +0.041 A 
ATOM      2  C   UNL     1       9.185   0.458  23.347  0.00  0.00    +0.057 A 
ATOM      3  C   UNL     1       9.820  -0.798  23.342  0.00  0.00    +0.017 A 
ATOM      4  C   UNL     1       9.108  -1.975  23.603  0.00  0.00    +0.027 A 
ATOM      5  C   UNL     1       7.751  -1.916  23.911  0.00  0.00    +0.049 A 
ATOM      6  C   UNL     1       7.130  -0.660  23.928  0.00  0.00    +0.049 A 
ENDROOT
BRANCH   5   7
ATOM      7  N   UNL     1       6.996  -3.100  24.224  0.00  0.00    -0.312 N 
ATOM      8  C   UNL     1       6.406  -3.390  25.468  0.00  0.00    +0.055 A 
ATOM      9  C   UNL     1       5.775  -4.638  25.372  0.00  0.00    +0.011 A 
ATOM     10  C   UNL     1       5.122  -5.181  26.500  0.00  0.00    +0.011 A 
ATOM     11  C   UNL     1       5.073  -4.461  27.692  0.00  0.00    +0.001 A 
ATOM     12  C   UNL     1       5.642  -3.200  27.765  0.00  0.00    +0.002 A 
ATOM     13  C   UNL     1       5.913  -5.082  24.038  0.00  0.00    +0.046 A 
ATOM     14  C   UNL     1       5.385  -6.278  23.394  0.00  0.00    +0.165 C 
ATOM     15  C   UNL     1       5.580  -6.358  21.887  0.00  0.00    +0.080 C 
ATOM     16  C   UNL     1       6.949  -5.803  21.492  0.00  0.00    +0.014 C 
ATOM     17  C   UNL     1       7.123  -4.336  21.931  0.00  0.00    +0.055 C 
ATOM     18  O   UNL     1       4.746  -7.139  23.998  0.00  0.00    -0.292 OA
ATOM     19  C   UNL     1       6.299  -2.642  26.662  0.00  0.00    +0.027 A 
ATOM     20  C   UNL     1       6.680  -4.150  23.355  0.00  0.00    +0.035 A 
ENDBRANCH   5   7
BRANCH   2  21
ATOM     21  C   UNL     1      10.072   1.629  23.074  0.00  0.00    +0.243 C 
ATOM     22  O   UNL     1      10.730   2.163  23.956  0.00  0.00    -0.270 OA
ATOM     23  N   UNL     1      10.093   2.127  21.801  0.00  0.00    -0.325 N 
ATOM     24  H   UNL     1      10.606   2.982  21.634  0.00  0.00    +0.145 HD
ATOM     25  H   UNL     1       9.446   1.782  21.101  0.00  0.00    +0.145 HD
ENDBRANCH   2  21
BRANCH   1  26
ATOM     26  N   UNL     1       7.118   1.786  23.640  0.00  0.00    -0.341 N 
ATOM     27  H   UNL     1       7.744   2.510  24.014  0.00  0.00    +0.146 HD
BRANCH  26  28
ATOM     28  C   UNL     1       6.469   2.261  22.408  0.00  0.00    +0.129 C 
BRANCH  28  29
ATOM     29  C   UNL     1       6.518   3.785  22.301  0.00  0.00    +0.178 C 
BRANCH  29  31
ATOM     30  C   UNL     1       8.038   5.234  23.354  0.00  0.00    +0.194 C 
ATOM     31  O   UNL     1       7.876   4.224  22.366  0.00  0.00    -0.381 OA
ENDBRANCH  29  31
ENDBRANCH  28  29
ENDBRANCH  26  28
ENDBRANCH   1  26
TORSDOF 6
ENDMDL
MODEL 9
REMARK VINA RESULT:      -6.4      2.714      8.472
REMARK  Name = 
REMARK  7 active torsions:
REMARK  status: ('A' for Active; 'I' for Inactive)
REMARK    1  A    between atoms: C_1  and  O_2
REMARK    2  A    between atoms: O_2  and  C_3
REMARK    3  A    between atoms: C_3  and  C_4
REMARK    4  A    between atoms: C_4  and  N_5
REMARK    5  A    between atoms: N_5  and  C_6
REMARK    6  A    between atoms: C_8  and  N_15
REMARK    7  A    between atoms: C_11  and  C_12
REMARK                            x       y       z     vdW  Elec       q    Type
REMARK                         _______ _______ _______ _____ _____    ______ ____
ROOT
ATOM      1  C   UNL     1       8.748  -0.759  25.091  0.00  0.00    +0.041 A 
ATOM      2  C   UNL     1       8.993  -1.464  23.890  0.00  0.00    +0.057 A 
ATOM      3  C   UNL     1       9.153  -0.757  22.684  0.00  0.00    +0.017 A 
ATOM      4  C   UNL     1       9.061   0.640  22.640  0.00  0.00    +0.027 A 
ATOM      5  C   UNL     1       8.771   1.357  23.799  0.00  0.00    +0.049 A 
ATOM      6  C   UNL     1       8.597   0.643  24.993  0.00  0.00    +0.049 A 
ENDROOT
BRANCH   5   7
ATOM      7  N   UNL     1       8.628   2.789  23.785  0.00  0.00    -0.312 N 
ATOM      8  C   UNL     1       9.683   3.715  23.694  0.00  0.00    +0.055 A 
ATOM      9  C   UNL     1       9.134   5.005  23.725  0.00  0.00    +0.011 A 
ATOM     10  C   UNL     1       9.986   6.129  23.675  0.00  0.00    +0.011 A 
ATOM     11  C   UNL     1      11.364   5.957  23.557  0.00  0.00    +0.001 A 
ATOM     12  C   UNL     1      11.898   4.682  23.462  0.00  0.00    +0.002 A 
ATOM     13  C   UNL     1       7.729   4.867  23.757  0.00  0.00    +0.046 A 
ATOM     14  C   UNL     1       6.691   5.890  23.730  0.00  0.00    +0.165 C 
ATOM     15  C   UNL     1       5.263   5.381  23.600  0.00  0.00    +0.080 C 
ATOM     16  C   UNL     1       5.073   4.103  24.418  0.00  0.00    +0.014 C 
ATOM     17  C   UNL     1       6.034   2.985  23.970  0.00  0.00    +0.055 C 
ATOM     18  O   UNL     1       6.937   7.097  23.726  0.00  0.00    -0.292 OA
ATOM     19  C   UNL     1      11.074   3.551  23.514  0.00  0.00    +0.027 A 
ATOM     20  C   UNL     1       7.432   3.514  23.820  0.00  0.00    +0.035 A 
ENDBRANCH   5   7
BRANCH   2  21
ATOM     21  C   UNL     1       9.094  -2.950  23.783  0.00  0.00    +0.243 C 
ATOM     22  O   UNL     1      10.107  -3.556  24.105  0.00  0.00    -0.270 OA
ATOM     23  N   UNL     1       8.025  -3.624  23.262  0.00  0.00    -0.325 N 
ATOM     24  H   UNL     1       8.127  -4.614  23.087  0.00  0.00    +0.145 HD
ATOM     25  H   UNL     1       7.241  -3.120  22.862  0.00  0.00    +0.145 HD
ENDBRANCH   2  21
BRANCH   1  26
ATOM     26  N   UNL     1       8.559  -1.427  26.326  0.00  0.00    -0.341 N 
ATOM     27  H   UNL     1       9.146  -0.989  27.047  0.00  0.00    +0.146 HD
BRANCH  26  28
ATOM     28  C   UNL     1       7.185  -1.598  26.824  0.00  0.00    +0.129 C 
BRANCH  28  29
ATOM     29  C   UNL     1       6.745  -3.060  26.763  0.00  0.00    +0.178 C 
BRANCH  29  31
ATOM     30  C   UNL     1       7.588  -5.247  26.939  0.00  0.00    +0.194 C 
ATOM     31  O   UNL     1       7.894  -3.897  26.609  0.00  0.00    -0.381 OA
ENDBRANCH  29  31
ENDBRANCH  28  29
ENDBRANCH  26  28
ENDBRANCH   1  26
TORSDOF 6
ENDMDL
