MODEL 1
REMARK VINA RESULT:      -7.6      0.000      0.000
REMARK  Name = 
REMARK  6 active torsions:
REMARK  status: ('A' for Active; 'I' for Inactive)
REMARK    1  A    between atoms: C_2  and  C_3
REMARK    2  A    between atoms: C_3  and  C_19
REMARK    3  A    between atoms: C_4  and  N_5
REMARK    4  A    between atoms: N_5  and  C_6
REMARK    5  A    between atoms: C_9  and  N_10
REMARK    6  A    between atoms: N_10  and  C_11
REMARK                            x       y       z     vdW  Elec       q    Type
REMARK                         _______ _______ _______ _____ _____    ______ ____
ROOT
ATOM      1  C   UNL     1       9.837  -0.776  23.153  0.00  0.00    +0.031 A 
ATOM      2  C   UNL     1       9.537  -0.052  21.991  0.00  0.00    +0.025 A 
ATOM      3  C   UNL     1       9.766   1.330  21.916  0.00  0.00    +0.025 A 
ATOM      4  C   UNL     1      10.300   2.029  23.001  0.00  0.00    +0.031 A 
ATOM      5  C   UNL     1      10.640   1.299  24.143  0.00  0.00    +0.025 A 
ATOM      6  C   UNL     1      10.408  -0.079  24.220  0.00  0.00    +0.025 A 
ENDROOT
BRANCH   1   7
ATOM      7  N   UNL     1       9.471  -2.128  23.235  0.00  0.00    -0.319 N 
ATOM      8  H   UNL     1      10.109  -2.738  23.753  0.00  0.00    +0.152 HD
BRANCH   7  10
ATOM      9  C   UNL     1       7.750  -3.878  23.136  0.00  0.00    +0.113 C 
ATOM     10  C   UNL     1       8.362  -2.754  22.707  0.00  0.00    +0.095 C 
BRANCH   9  11
ATOM     11  C   UNL     1       8.174  -4.618  24.289  0.00  0.00    +0.216 A 
ATOM     12  N   UNL     1       7.268  -4.998  25.250  0.00  0.00    -0.107 NA
ATOM     13  N   UNL     1       7.950  -5.628  26.195  0.00  0.00    -0.049 NA
ATOM     14  N   UNL     1       9.217  -5.604  25.774  0.00  0.00    -0.176 N 
ATOM     15  H   UNL     1       9.970  -6.016  26.321  0.00  0.00    +0.214 HD
ATOM     16  N   UNL     1       9.433  -5.002  24.594  0.00  0.00    -0.132 NA
ENDBRANCH   9  11
BRANCH   9  18
ATOM     17  N   UNL     1       5.716  -4.746  21.790  0.00  0.00    -0.191 NA
ATOM     18  C   UNL     1       6.616  -4.359  22.415  0.00  0.00    +0.104 C 
ENDBRANCH   9  18
ENDBRANCH   7  10
ENDBRANCH   1   7
BRANCH   4  19
ATOM     19  N   UNL     1      10.495   3.418  22.916  0.00  0.00    -0.314 N 
ATOM     20  H   UNL     1      11.108   3.728  22.173  0.00  0.00    +0.152 HD
BRANCH  19  21
ATOM     21  C   UNL     1      10.119   4.440  23.806  0.00  0.00    +0.031 A 
ATOM     22  C   UNL     1      10.910   5.590  23.921  0.00  0.00    +0.023 A 
ATOM     23  C   UNL     1      10.530   6.637  24.770  0.00  0.00    +0.002 A 
ATOM     24  C   UNL     1       9.360   6.539  25.518  0.00  0.00    +0.000 A 
ATOM     25  C   UNL     1       8.566   5.401  25.415  0.00  0.00    +0.002 A 
ATOM     26  C   UNL     1       8.940   4.365  24.558  0.00  0.00    +0.023 A 
ENDBRANCH  19  21
ENDBRANCH   4  19
TORSDOF 6
ENDMDL
MODEL 2
REMARK VINA RESULT:      -7.5      0.896      1.461
REMARK  Name = 
REMARK  6 active torsions:
REMARK  status: ('A' for Active; 'I' for Inactive)
REMARK    1  A    between atoms: C_2  and  C_3
REMARK    2  A    between atoms: C_3  and  C_19
REMARK    3  A    between atoms: C_4  and  N_5
REMARK    4  A    between atoms: N_5  and  C_6
REMARK    5  A    between atoms: C_9  and  N_10
REMARK    6  A    between atoms: N_10  and  C_11
REMARK                            x       y       z     vdW  Elec       q    Type
REMARK                         _______ _______ _______ _____ _____    ______ ____
ROOT
ATOM      1  C   UNL     1       9.154  -0.923  23.592  0.00  0.00    +0.031 A 
ATOM      2  C   UNL     1       9.909  -0.169  24.502  0.00  0.00    +0.025 A 
ATOM      3  C   UNL     1      10.432   1.084  24.151  0.00  0.00    +0.025 A 
ATOM      4  C   UNL     1      10.218   1.620  22.879  0.00  0.00    +0.031 A 
ATOM      5  C   UNL     1       9.428   0.888  21.988  0.00  0.00    +0.025 A 
ATOM      6  C   UNL     1       8.910  -0.365  22.336  0.00  0.00    +0.025 A 
ENDROOT
BRANCH   1   7
ATOM      7  N   UNL     1       8.762  -2.226  23.937  0.00  0.00    -0.319 N 
ATOM      8  H   UNL     1       8.911  -2.499  24.911  0.00  0.00    +0.152 HD
BRANCH   7  10
ATOM      9  C   UNL     1       7.837  -4.453  23.470  0.00  0.00    +0.113 C 
ATOM     10  C   UNL     1       8.200  -3.196  23.135  0.00  0.00    +0.095 C 
BRANCH   9  11
ATOM     11  C   UNL     1       7.968  -4.987  24.794  0.00  0.00    +0.216 A 
ATOM     12  N   UNL     1       6.857  -5.363  25.511  0.00  0.00    -0.107 NA
ATOM     13  N   UNL     1       7.284  -5.781  26.694  0.00  0.00    -0.049 NA
ATOM     14  N   UNL     1       8.612  -5.644  26.644  0.00  0.00    -0.176 N 
ATOM     15  H   UNL     1       9.205  -5.885  27.435  0.00  0.00    +0.214 HD
ATOM     16  N   UNL     1       9.111  -5.165  25.493  0.00  0.00    -0.132 NA
ENDBRANCH   9  11
BRANCH   9  18
ATOM     17  N   UNL     1       6.872  -6.016  21.646  0.00  0.00    -0.191 NA
ATOM     18  C   UNL     1       7.287  -5.299  22.461  0.00  0.00    +0.104 C 
ENDBRANCH   9  18
ENDBRANCH   7  10
ENDBRANCH   1   7
BRANCH   4  19
ATOM     19  N   UNL     1      10.775   2.864  22.536  0.00  0.00    -0.314 N 
ATOM     20  H   UNL     1      11.317   2.879  21.682  0.00  0.00    +0.152 HD
BRANCH  19  21
ATOM     21  C   UNL     1      10.850   4.056  23.279  0.00  0.00    +0.031 A 
ATOM     22  C   UNL     1      12.066   4.744  23.371  0.00  0.00    +0.023 A 
ATOM     23  C   UNL     1      12.152   5.953  24.070  0.00  0.00    +0.002 A 
ATOM     24  C   UNL     1      11.023   6.483  24.691  0.00  0.00    +0.000 A 
ATOM     25  C   UNL     1       9.809   5.809  24.608  0.00  0.00    +0.002 A 
ATOM     26  C   UNL     1       9.724   4.609  23.900  0.00  0.00    +0.023 A 
ENDBRANCH  19  21
ENDBRANCH   4  19
TORSDOF 6
ENDMDL
MODEL 3
REMARK VINA RESULT:      -7.5      1.123      2.547
REMARK  Name = 
REMARK  6 active torsions:
REMARK  status: ('A' for Active; 'I' for Inactive)
REMARK    1  A    between atoms: C_2  and  C_3
REMARK    2  A    between atoms: C_3  and  C_19
REMARK    3  A    between atoms: C_4  and  N_5
REMARK    4  A    between atoms: N_5  and  C_6
REMARK    5  A    between atoms: C_9  and  N_10
REMARK    6  A    between atoms: N_10  and  C_11
REMARK                            x       y       z     vdW  Elec       q    Type
REMARK                         _______ _______ _______ _____ _____    ______ ____
ROOT
ATOM      1  C   UNL     1       9.964  -0.921  23.251  0.00  0.00    +0.031 A 
ATOM      2  C   UNL     1       9.915  -0.238  22.028  0.00  0.00    +0.025 A 
ATOM      3  C   UNL     1       9.801   1.159  21.979  0.00  0.00    +0.025 A 
ATOM      4  C   UNL     1       9.731   1.914  23.153  0.00  0.00    +0.031 A 
ATOM      5  C   UNL     1       9.825   1.236  24.371  0.00  0.00    +0.025 A 
ATOM      6  C   UNL     1       9.934  -0.159  24.420  0.00  0.00    +0.025 A 
ENDROOT
BRANCH   1   7
ATOM      7  N   UNL     1       9.945  -2.325  23.256  0.00  0.00    -0.319 N 
ATOM      8  H   UNL     1      10.263  -2.784  22.398  0.00  0.00    +0.152 HD
BRANCH   7  10
ATOM      9  C   UNL     1       8.510  -4.037  24.278  0.00  0.00    +0.113 C 
ATOM     10  C   UNL     1       9.552  -3.177  24.265  0.00  0.00    +0.095 C 
BRANCH   9  11
ATOM     11  C   UNL     1       7.622  -4.219  23.167  0.00  0.00    +0.216 A 
ATOM     12  N   UNL     1       7.196  -5.476  22.810  0.00  0.00    -0.107 NA
ATOM     13  N   UNL     1       6.423  -5.333  21.743  0.00  0.00    -0.049 NA
ATOM     14  N   UNL     1       6.413  -4.019  21.505  0.00  0.00    -0.176 N 
ATOM     15  H   UNL     1       5.897  -3.621  20.724  0.00  0.00    +0.214 HD
ATOM     16  N   UNL     1       7.127  -3.262  22.353  0.00  0.00    -0.132 NA
ENDBRANCH   9  11
BRANCH   9  18
ATOM     17  N   UNL     1       8.112  -5.481  26.390  0.00  0.00    -0.191 NA
ATOM     18  C   UNL     1       8.279  -4.814  25.452  0.00  0.00    +0.104 C 
ENDBRANCH   9  18
ENDBRANCH   7  10
ENDBRANCH   1   7
BRANCH   4  19
ATOM     19  N   UNL     1       9.588   3.311  23.084  0.00  0.00    -0.314 N 
ATOM     20  H   UNL     1       8.825   3.643  22.508  0.00  0.00    +0.152 HD
BRANCH  19  21
ATOM     21  C   UNL     1      10.441   4.331  23.542  0.00  0.00    +0.031 A 
ATOM     22  C   UNL     1      11.806   4.288  23.233  0.00  0.00    +0.023 A 
ATOM     23  C   UNL     1      12.664   5.314  23.644  0.00  0.00    +0.002 A 
ATOM     24  C   UNL     1      12.166   6.389  24.376  0.00  0.00    +0.000 A 
ATOM     25  C   UNL     1      10.812   6.443  24.692  0.00  0.00    +0.002 A 
ATOM     26  C   UNL     1       9.957   5.424  24.270  0.00  0.00    +0.023 A 
ENDBRANCH  19  21
ENDBRANCH   4  19
TORSDOF 6
ENDMDL
MODEL 4
REMARK VINA RESULT:      -7.3      0.545      1.489
REMARK  Name = 
REMARK  6 active torsions:
REMARK  status: ('A' for Active; 'I' for Inactive)
REMARK    1  A    between atoms: C_2  and  C_3
REMARK    2  A    between atoms: C_3  and  C_19
REMARK    3  A    between atoms: C_4  and  N_5
REMARK    4  A    between atoms: N_5  and  C_6
REMARK    5  A    between atoms: C_9  and  N_10
REMARK    6  A    between atoms: N_10  and  C_11
REMARK                            x       y       z     vdW  Elec       q    Type
REMARK                         _______ _______ _______ _____ _____    ______ ____
ROOT
ATOM      1  C   UNL     1       9.531  -0.852  23.043  0.00  0.00    +0.031 A 
ATOM      2  C   UNL     1       9.835  -0.235  24.265  0.00  0.00    +0.025 A 
ATOM      3  C   UNL     1      10.189   1.121  24.326  0.00  0.00    +0.025 A 
ATOM      4  C   UNL     1      10.252   1.899  23.167  0.00  0.00    +0.031 A 
ATOM      5  C   UNL     1       9.905   1.294  21.956  0.00  0.00    +0.025 A 
ATOM      6  C   UNL     1       9.556  -0.060  21.894  0.00  0.00    +0.025 A 
ENDROOT
BRANCH   1   7
ATOM      7  N   UNL     1       9.311  -2.238  23.009  0.00  0.00    -0.319 N 
ATOM      8  H   UNL     1      10.075  -2.825  23.353  0.00  0.00    +0.152 HD
BRANCH   7  10
ATOM      9  C   UNL     1       7.639  -4.036  23.091  0.00  0.00    +0.113 C 
ATOM     10  C   UNL     1       8.198  -2.922  22.570  0.00  0.00    +0.095 C 
BRANCH   9  11
ATOM     11  C   UNL     1       8.137  -4.695  24.264  0.00  0.00    +0.216 A 
ATOM     12  N   UNL     1       7.275  -5.131  25.242  0.00  0.00    -0.107 NA
ATOM     13  N   UNL     1       8.018  -5.662  26.202  0.00  0.00    -0.049 NA
ATOM     14  N   UNL     1       9.275  -5.529  25.772  0.00  0.00    -0.176 N 
ATOM     15  H   UNL     1      10.066  -5.849  26.326  0.00  0.00    +0.214 HD
ATOM     16  N   UNL     1       9.428  -4.946  24.572  0.00  0.00    -0.132 NA
ENDBRANCH   9  11
BRANCH   9  18
ATOM     17  N   UNL     1       5.534  -5.045  21.973  0.00  0.00    -0.191 NA
ATOM     18  C   UNL     1       6.489  -4.588  22.453  0.00  0.00    +0.104 C 
ENDBRANCH   9  18
ENDBRANCH   7  10
ENDBRANCH   1   7
BRANCH   4  19
ATOM     19  N   UNL     1      10.637   3.249  23.246  0.00  0.00    -0.314 N 
ATOM     20  H   UNL     1      11.623   3.430  23.110  0.00  0.00    +0.152 HD
BRANCH  19  21
ATOM     21  C   UNL     1       9.903   4.376  23.658  0.00  0.00    +0.031 A 
ATOM     22  C   UNL     1       8.516   4.281  23.826  0.00  0.00    +0.023 A 
ATOM     23  C   UNL     1       7.774   5.378  24.276  0.00  0.00    +0.002 A 
ATOM     24  C   UNL     1       8.410   6.585  24.554  0.00  0.00    +0.000 A 
ATOM     25  C   UNL     1       9.788   6.694  24.389  0.00  0.00    +0.002 A 
ATOM     26  C   UNL     1      10.527   5.594  23.953  0.00  0.00    +0.023 A 
ENDBRANCH  19  21
ENDBRANCH   4  19
TORSDOF 6
ENDMDL
MODEL 5
REMARK VINA RESULT:      -7.1      2.134      8.751
REMARK  Name = 
REMARK  6 active torsions:
REMARK  status: ('A' for Active; 'I' for Inactive)
REMARK    1  A    between atoms: C_2  and  C_3
REMARK    2  A    between atoms: C_3  and  C_19
REMARK    3  A    between atoms: C_4  and  N_5
REMARK    4  A    between atoms: N_5  and  C_6
REMARK    5  A    between atoms: C_9  and  N_10
REMARK    6  A    between atoms: N_10  and  C_11
REMARK                            x       y       z     vdW  Elec       q    Type
REMARK                         _______ _______ _______ _____ _____    ______ ____
ROOT
ATOM      1  C   UNL     1       9.902   1.536  22.815  0.00  0.00    +0.031 A 
ATOM      2  C   UNL     1      10.152   1.068  24.113  0.00  0.00    +0.025 A 
ATOM      3  C   UNL     1      10.225  -0.305  24.389  0.00  0.00    +0.025 A 
ATOM      4  C   UNL     1      10.048  -1.251  23.376  0.00  0.00    +0.031 A 
ATOM      5  C   UNL     1       9.843  -0.783  22.076  0.00  0.00    +0.025 A 
ATOM      6  C   UNL     1       9.766   0.588  21.800  0.00  0.00    +0.025 A 
ENDROOT
BRANCH   1   7
ATOM      7  N   UNL     1       9.705   2.910  22.605  0.00  0.00    -0.319 N 
ATOM      8  H   UNL     1      10.037   3.282  21.712  0.00  0.00    +0.152 HD
BRANCH   7  10
ATOM      9  C   UNL     1       9.699   4.891  24.058  0.00  0.00    +0.113 C 
ATOM     10  C   UNL     1       9.122   3.835  23.446  0.00  0.00    +0.095 C 
BRANCH   9  11
ATOM     11  C   UNL     1      11.079   5.243  23.894  0.00  0.00    +0.216 A 
ATOM     12  N   UNL     1      11.967   4.355  23.334  0.00  0.00    -0.107 NA
ATOM     13  N   UNL     1      13.156   4.940  23.345  0.00  0.00    -0.049 NA
ATOM     14  N   UNL     1      12.942   6.136  23.901  0.00  0.00    -0.176 N 
ATOM     15  H   UNL     1      13.698   6.801  24.045  0.00  0.00    +0.214 HD
ATOM     16  N   UNL     1      11.675   6.399  24.259  0.00  0.00    -0.132 NA
ENDBRANCH   9  11
BRANCH   9  18
ATOM     17  N   UNL     1       8.282   6.386  25.626  0.00  0.00    -0.191 NA
ATOM     18  C   UNL     1       8.898   5.710  24.909  0.00  0.00    +0.104 C 
ENDBRANCH   9  18
ENDBRANCH   7  10
ENDBRANCH   1   7
BRANCH   4  19
ATOM     19  N   UNL     1      10.097  -2.623  23.678  0.00  0.00    -0.314 N 
ATOM     20  H   UNL     1      10.905  -3.119  23.326  0.00  0.00    +0.152 HD
BRANCH  19  21
ATOM     21  C   UNL     1       9.117  -3.460  24.241  0.00  0.00    +0.031 A 
ATOM     22  C   UNL     1       9.492  -4.464  25.143  0.00  0.00    +0.023 A 
ATOM     23  C   UNL     1       8.528  -5.280  25.745  0.00  0.00    +0.002 A 
ATOM     24  C   UNL     1       7.180  -5.105  25.446  0.00  0.00    +0.000 A 
ATOM     25  C   UNL     1       6.793  -4.113  24.550  0.00  0.00    +0.002 A 
ATOM     26  C   UNL     1       7.756  -3.293  23.960  0.00  0.00    +0.023 A 
ENDBRANCH  19  21
ENDBRANCH   4  19
TORSDOF 6
ENDMDL
MODEL 6
REMARK VINA RESULT:      -6.9      2.728      4.979
REMARK  Name = 
REMARK  6 active torsions:
REMARK  status: ('A' for Active; 'I' for Inactive)
REMARK    1  A    between atoms: C_2  and  C_3
REMARK    2  A    between atoms: C_3  and  C_19
REMARK    3  A    between atoms: C_4  and  N_5
REMARK    4  A    between atoms: N_5  and  C_6
REMARK    5  A    between atoms: C_9  and  N_10
REMARK    6  A    between atoms: N_10  and  C_11
REMARK                            x       y       z     vdW  Elec       q    Type
REMARK                         _______ _______ _______ _____ _____    ______ ____
ROOT
ATOM      1  C   UNL     1       6.954  -4.299  25.285  0.00  0.00    +0.031 A 
ATOM      2  C   UNL     1       8.221  -4.847  25.034  0.00  0.00    +0.025 A 
ATOM      3  C   UNL     1       9.273  -4.055  24.554  0.00  0.00    +0.025 A 
ATOM      4  C   UNL     1       9.091  -2.692  24.307  0.00  0.00    +0.031 A 
ATOM      5  C   UNL     1       7.841  -2.138  24.599  0.00  0.00    +0.025 A 
ATOM      6  C   UNL     1       6.789  -2.929  25.074  0.00  0.00    +0.025 A 
ENDROOT
BRANCH   1   7
ATOM      7  N   UNL     1       5.895  -5.150  25.638  0.00  0.00    -0.319 N 
ATOM      8  H   UNL     1       6.101  -5.856  26.350  0.00  0.00    +0.152 HD
BRANCH   7  10
ATOM      9  C   UNL     1       4.193  -5.204  23.867  0.00  0.00    +0.113 C 
ATOM     10  C   UNL     1       4.605  -5.165  25.153  0.00  0.00    +0.095 C 
BRANCH   9  11
ATOM     11  C   UNL     1       5.092  -5.265  22.751  0.00  0.00    +0.216 A 
ATOM     12  N   UNL     1       5.159  -4.230  21.849  0.00  0.00    -0.107 NA
ATOM     13  N   UNL     1       6.040  -4.582  20.924  0.00  0.00    -0.049 NA
ATOM     14  N   UNL     1       6.463  -5.792  21.300  0.00  0.00    -0.176 N 
ATOM     15  H   UNL     1       7.148  -6.311  20.755  0.00  0.00    +0.214 HD
ATOM     16  N   UNL     1       5.926  -6.278  22.430  0.00  0.00    -0.132 NA
ENDBRANCH   9  11
BRANCH   9  18
ATOM     17  N   UNL     1       1.657  -5.217  23.349  0.00  0.00    -0.191 NA
ATOM     18  C   UNL     1       2.792  -5.192  23.596  0.00  0.00    +0.104 C 
ENDBRANCH   9  18
ENDBRANCH   7  10
ENDBRANCH   1   7
BRANCH   4  19
ATOM     19  N   UNL     1      10.150  -1.920  23.798  0.00  0.00    -0.314 N 
ATOM     20  H   UNL     1      11.057  -2.370  23.798  0.00  0.00    +0.152 HD
BRANCH  19  21
ATOM     21  C   UNL     1      10.191  -0.558  23.450  0.00  0.00    +0.031 A 
ATOM     22  C   UNL     1       9.813  -0.156  22.163  0.00  0.00    +0.023 A 
ATOM     23  C   UNL     1       9.807   1.198  21.810  0.00  0.00    +0.002 A 
ATOM     24  C   UNL     1      10.186   2.163  22.740  0.00  0.00    +0.000 A 
ATOM     25  C   UNL     1      10.565   1.778  24.022  0.00  0.00    +0.002 A 
ATOM     26  C   UNL     1      10.559   0.427  24.374  0.00  0.00    +0.023 A 
ENDBRANCH  19  21
ENDBRANCH   4  19
TORSDOF 6
ENDMDL
MODEL 7
REMARK VINA RESULT:      -6.7      1.925      3.065
REMARK  Name = 
REMARK  6 active torsions:
REMARK  status: ('A' for Active; 'I' for Inactive)
REMARK    1  A    between atoms: C_2  and  C_3
REMARK    2  A    between atoms: C_3  and  C_19
REMARK    3  A    between atoms: C_4  and  N_5
REMARK    4  A    between atoms: N_5  and  C_6
REMARK    5  A    between atoms: C_9  and  N_10
REMARK    6  A    between atoms: N_10  and  C_11
REMARK                            x       y       z     vdW  Elec       q    Type
REMARK                         _______ _______ _______ _____ _____    ______ ____
ROOT
ATOM      1  C   UNL     1       8.227  -3.388  23.419  0.00  0.00    +0.031 A 
ATOM      2  C   UNL     1       9.359  -3.037  24.169  0.00  0.00    +0.025 A 
ATOM      3  C   UNL     1       9.944  -1.768  24.052  0.00  0.00    +0.025 A 
ATOM      4  C   UNL     1       9.415  -0.812  23.180  0.00  0.00    +0.031 A 
ATOM      5  C   UNL     1       8.261  -1.148  22.467  0.00  0.00    +0.025 A 
ATOM      6  C   UNL     1       7.680  -2.416  22.581  0.00  0.00    +0.025 A 
ENDROOT
BRANCH   1   7
ATOM      7  N   UNL     1       7.753  -4.709  23.467  0.00  0.00    -0.319 N 
ATOM      8  H   UNL     1       8.465  -5.444  23.471  0.00  0.00    +0.152 HD
BRANCH   7  10
ATOM      9  C   UNL     1       5.785  -5.706  24.547  0.00  0.00    +0.113 C 
ATOM     10  C   UNL     1       6.450  -5.155  23.509  0.00  0.00    +0.095 C 
BRANCH   9  11
ATOM     11  C   UNL     1       6.365  -5.896  25.845  0.00  0.00    +0.216 A 
ATOM     12  N   UNL     1       5.619  -6.413  26.877  0.00  0.00    -0.107 NA
ATOM     13  N   UNL     1       6.403  -6.441  27.944  0.00  0.00    -0.049 NA
ATOM     14  N   UNL     1       7.571  -5.949  27.521  0.00  0.00    -0.176 N 
ATOM     15  H   UNL     1       8.366  -5.845  28.147  0.00  0.00    +0.214 HD
ATOM     16  N   UNL     1       7.626  -5.598  26.226  0.00  0.00    -0.132 NA
ENDBRANCH   9  11
BRANCH   9  18
ATOM     17  N   UNL     1       3.322  -6.440  24.238  0.00  0.00    -0.191 NA
ATOM     18  C   UNL     1       4.432  -6.117  24.354  0.00  0.00    +0.104 C 
ENDBRANCH   9  18
ENDBRANCH   7  10
ENDBRANCH   1   7
BRANCH   4  19
ATOM     19  N   UNL     1      10.032   0.445  23.055  0.00  0.00    -0.314 N 
ATOM     20  H   UNL     1      10.931   0.445  22.590  0.00  0.00    +0.152 HD
BRANCH  19  21
ATOM     21  C   UNL     1       9.687   1.682  23.629  0.00  0.00    +0.031 A 
ATOM     22  C   UNL     1      10.375   2.841  23.248  0.00  0.00    +0.023 A 
ATOM     23  C   UNL     1      10.020   4.088  23.776  0.00  0.00    +0.002 A 
ATOM     24  C   UNL     1       8.978   4.186  24.695  0.00  0.00    +0.000 A 
ATOM     25  C   UNL     1       8.288   3.042  25.083  0.00  0.00    +0.002 A 
ATOM     26  C   UNL     1       8.637   1.802  24.546  0.00  0.00    +0.023 A 
ENDBRANCH  19  21
ENDBRANCH   4  19
TORSDOF 6
ENDMDL
MODEL 8
REMARK VINA RESULT:      -6.7      1.700      2.991
REMARK  Name = 
REMARK  6 active torsions:
REMARK  status: ('A' for Active; 'I' for Inactive)
REMARK    1  A    between atoms: C_2  and  C_3
REMARK    2  A    between atoms: C_3  and  C_19
REMARK    3  A    between atoms: C_4  and  N_5
REMARK    4  A    between atoms: N_5  and  C_6
REMARK    5  A    between atoms: C_9  and  N_10
REMARK    6  A    between atoms: N_10  and  C_11
REMARK                            x       y       z     vdW  Elec       q    Type
REMARK                         _______ _______ _______ _____ _____    ______ ____
ROOT
ATOM      1  C   UNL     1       9.562  -2.289  24.136  0.00  0.00    +0.031 A 
ATOM      2  C   UNL     1      10.105  -1.758  22.957  0.00  0.00    +0.025 A 
ATOM      3  C   UNL     1      10.320  -0.380  22.812  0.00  0.00    +0.025 A 
ATOM      4  C   UNL     1       9.996   0.509  23.840  0.00  0.00    +0.031 A 
ATOM      5  C   UNL     1       9.496  -0.026  25.031  0.00  0.00    +0.025 A 
ATOM      6  C   UNL     1       9.278  -1.401  25.175  0.00  0.00    +0.025 A 
ENDROOT
BRANCH   1   7
ATOM      7  N   UNL     1       9.240  -3.655  24.191  0.00  0.00    -0.319 N 
ATOM      8  H   UNL     1       9.644  -4.243  23.457  0.00  0.00    +0.152 HD
BRANCH   7  10
ATOM      9  C   UNL     1       7.309  -5.005  24.882  0.00  0.00    +0.113 C 
ATOM     10  C   UNL     1       8.449  -4.317  25.105  0.00  0.00    +0.095 C 
BRANCH   9  11
ATOM     11  C   UNL     1       6.732  -5.181  23.581  0.00  0.00    +0.216 A 
ATOM     12  N   UNL     1       5.386  -4.991  23.379  0.00  0.00    -0.107 NA
ATOM     13  N   UNL     1       5.147  -5.254  22.102  0.00  0.00    -0.049 NA
ATOM     14  N   UNL     1       6.337  -5.584  21.594  0.00  0.00    -0.176 N 
ATOM     15  H   UNL     1       6.447  -5.848  20.618  0.00  0.00    +0.214 HD
ATOM     16  N   UNL     1       7.371  -5.553  22.450  0.00  0.00    -0.132 NA
ENDBRANCH   9  11
BRANCH   9  18
ATOM     17  N   UNL     1       6.133  -6.095  26.914  0.00  0.00    -0.191 NA
ATOM     18  C   UNL     1       6.639  -5.598  25.994  0.00  0.00    +0.104 C 
ENDBRANCH   9  18
ENDBRANCH   7  10
ENDBRANCH   1   7
BRANCH   4  19
ATOM     19  N   UNL     1      10.192   1.890  23.665  0.00  0.00    -0.314 N 
ATOM     20  H   UNL     1      11.105   2.238  23.929  0.00  0.00    +0.152 HD
BRANCH  19  21
ATOM     21  C   UNL     1       9.267   2.901  23.348  0.00  0.00    +0.031 A 
ATOM     22  C   UNL     1       9.414   4.178  23.903  0.00  0.00    +0.023 A 
ATOM     23  C   UNL     1       8.529   5.209  23.567  0.00  0.00    +0.002 A 
ATOM     24  C   UNL     1       7.483   4.970  22.680  0.00  0.00    +0.000 A 
ATOM     25  C   UNL     1       7.324   3.705  22.122  0.00  0.00    +0.002 A 
ATOM     26  C   UNL     1       8.216   2.682  22.449  0.00  0.00    +0.023 A 
ENDBRANCH  19  21
ENDBRANCH   4  19
TORSDOF 6
ENDMDL
MODEL 9
REMARK VINA RESULT:      -6.6      1.558      2.598
REMARK  Name = 
REMARK  6 active torsions:
REMARK  status: ('A' for Active; 'I' for Inactive)
REMARK    1  A    between atoms: C_2  and  C_3
REMARK    2  A    between atoms: C_3  and  C_19
REMARK    3  A    between atoms: C_4  and  N_5
REMARK    4  A    between atoms: N_5  and  C_6
REMARK    5  A    between atoms: C_9  and  N_10
REMARK    6  A    between atoms: N_10  and  C_11
REMARK                            x       y       z     vdW  Elec       q    Type
REMARK                         _______ _______ _______ _____ _____    ______ ____
ROOT
ATOM      1  C   UNL     1      10.216  -0.457  23.048  0.00  0.00    +0.031 A 
ATOM      2  C   UNL     1      10.028   0.345  21.913  0.00  0.00    +0.025 A 
ATOM      3  C   UNL     1      10.054   1.744  22.000  0.00  0.00    +0.025 A 
ATOM      4  C   UNL     1      10.267   2.384  23.223  0.00  0.00    +0.031 A 
ATOM      5  C   UNL     1      10.499   1.583  24.345  0.00  0.00    +0.025 A 
ATOM      6  C   UNL     1      10.469   0.187  24.261  0.00  0.00    +0.025 A 
ENDROOT
BRANCH   1   7
ATOM      7  N   UNL     1      10.052  -1.847  22.943  0.00  0.00    -0.319 N 
ATOM      8  H   UNL     1      10.091  -2.236  21.997  0.00  0.00    +0.152 HD
BRANCH   7  10
ATOM      9  C   UNL     1       8.695  -3.392  24.286  0.00  0.00    +0.113 C 
ATOM     10  C   UNL     1       9.844  -2.768  23.947  0.00  0.00    +0.095 C 
BRANCH   9  11
ATOM     11  C   UNL     1       7.455  -3.197  23.594  0.00  0.00    +0.216 A 
ATOM     12  N   UNL     1       6.256  -3.319  24.255  0.00  0.00    -0.107 NA
ATOM     13  N   UNL     1       5.300  -3.118  23.360  0.00  0.00    -0.049 NA
ATOM     14  N   UNL     1       5.948  -2.885  22.216  0.00  0.00    -0.176 N 
ATOM     15  H   UNL     1       5.451  -2.706  21.346  0.00  0.00    +0.214 HD
ATOM     16  N   UNL     1       7.289  -2.909  22.284  0.00  0.00    -0.132 NA
ENDBRANCH   9  11
BRANCH   9  18
ATOM     17  N   UNL     1       8.753  -5.019  26.300  0.00  0.00    -0.191 NA
ATOM     18  C   UNL     1       8.709  -4.302  25.386  0.00  0.00    +0.104 C 
ENDBRANCH   9  18
ENDBRANCH   7  10
ENDBRANCH   1   7
BRANCH   4  19
ATOM     19  N   UNL     1      10.260   3.788  23.295  0.00  0.00    -0.314 N 
ATOM     20  H   UNL     1      11.165   4.222  23.423  0.00  0.00    +0.152 HD
BRANCH  19  21
ATOM     21  C   UNL     1       9.180   4.683  23.395  0.00  0.00    +0.031 A 
ATOM     22  C   UNL     1       9.415   6.023  23.727  0.00  0.00    +0.023 A 
ATOM     23  C   UNL     1       8.359   6.939  23.791  0.00  0.00    +0.002 A 
ATOM     24  C   UNL     1       7.056   6.521  23.530  0.00  0.00    +0.000 A 
ATOM     25  C   UNL     1       6.808   5.192  23.200  0.00  0.00    +0.002 A 
ATOM     26  C   UNL     1       7.866   4.284  23.126  0.00  0.00    +0.023 A 
ENDBRANCH  19  21
ENDBRANCH   4  19
TORSDOF 6
ENDMDL
