MODEL 1
REMARK VINA RESULT:      -5.4      0.000      0.000
REMARK  Name = 
REMARK  4 active torsions:
REMARK  status: ('A' for Active; 'I' for Inactive)
REMARK    1  A    between atoms: C_1  and  C_2
REMARK    2  A    between atoms: C_2  and  C_3
REMARK    3  A    between atoms: C_3  and  N_4
REMARK    4  A    between atoms: N_4  and  C_5
REMARK                            x       y       z     vdW  Elec       q    Type
REMARK                         _______ _______ _______ _____ _____    ______ ____
ROOT
ATOM      1  C   UNL     1       9.914  -1.271  24.303  0.00  0.00    +0.059 C 
ATOM      2  C   UNL     1       9.784  -2.794  23.974  0.00  0.00    +0.063 C 
ATOM      3  C   UNL     1       9.085  -3.511  25.086  0.00  0.00    +0.016 A 
ATOM      4  S   UNL     1       9.022  -5.202  25.268  0.00  0.00    -0.057 S 
ATOM      5  C   UNL     1       8.065  -4.997  26.688  0.00  0.00    +0.156 A 
ATOM      6  N   UNL     1       7.783  -3.756  27.003  0.00  0.00    -0.230 NA
ATOM      7  N   UNL     1       7.625  -6.045  27.405  0.00  0.00    -0.338 N 
ATOM      8  H   UNL     1       6.858  -5.838  28.036  0.00  0.00    +0.144 HD
ATOM      9  H   UNL     1       7.555  -6.940  26.939  0.00  0.00    +0.144 HD
ATOM     10  C   UNL     1       8.361  -2.906  26.089  0.00  0.00    +0.054 A 
ATOM     11  C   UNL     1       8.224  -1.434  26.216  0.00  0.00    +0.058 C 
ATOM     12  C   UNL     1       8.586  -0.731  24.900  0.00  0.00    +0.025 C 
ENDROOT
BRANCH   1  13
ATOM     13  N   UNL     1      10.324  -0.534  23.089  0.00  0.00    -0.313 NA
ATOM     14  H   UNL     1      10.484   0.446  23.325  0.00  0.00    +0.122 HD
BRANCH  13  15
ATOM     15  C   UNL     1       9.325  -0.605  22.018  0.00  0.00    +0.081 C 
BRANCH  15  17
ATOM     16  C   UNL     1       9.997   1.811  22.030  0.00  0.00    +0.005 C 
ATOM     17  C   UNL     1       9.058   0.777  21.422  0.00  0.00    +0.012 C 
ENDBRANCH  15  17
ENDBRANCH  13  15
ENDBRANCH   1  13
TORSDOF 3
ENDMDL
MODEL 2
REMARK VINA RESULT:      -5.3      1.664      2.042
REMARK  Name = 
REMARK  4 active torsions:
REMARK  status: ('A' for Active; 'I' for Inactive)
REMARK    1  A    between atoms: C_1  and  C_2
REMARK    2  A    between atoms: C_2  and  C_3
REMARK    3  A    between atoms: C_3  and  N_4
REMARK    4  A    between atoms: N_4  and  C_5
REMARK                            x       y       z     vdW  Elec       q    Type
REMARK                         _______ _______ _______ _____ _____    ______ ____
ROOT
ATOM      1  C   UNL     1       8.426  -2.413  22.802  0.00  0.00    +0.059 C 
ATOM      2  C   UNL     1       9.367  -3.015  23.896  0.00  0.00    +0.063 C 
ATOM      3  C   UNL     1       8.593  -3.905  24.818  0.00  0.00    +0.016 A 
ATOM      4  S   UNL     1       9.164  -4.496  26.308  0.00  0.00    -0.057 S 
ATOM      5  C   UNL     1       7.676  -5.342  26.523  0.00  0.00    +0.156 A 
ATOM      6  N   UNL     1       6.812  -5.220  25.545  0.00  0.00    -0.230 NA
ATOM      7  N   UNL     1       7.435  -6.089  27.614  0.00  0.00    -0.338 N 
ATOM      8  H   UNL     1       6.675  -6.753  27.516  0.00  0.00    +0.144 HD
ATOM      9  H   UNL     1       8.231  -6.437  28.134  0.00  0.00    +0.144 HD
ATOM     10  C   UNL     1       7.334  -4.403  24.569  0.00  0.00    +0.054 A 
ATOM     11  C   UNL     1       6.557  -4.071  23.350  0.00  0.00    +0.058 C 
ATOM     12  C   UNL     1       7.469  -3.505  22.252  0.00  0.00    +0.025 C 
ENDROOT
BRANCH   1  13
ATOM     13  N   UNL     1       9.240  -1.792  21.735  0.00  0.00    -0.313 NA
ATOM     14  H   UNL     1       9.910  -2.475  21.379  0.00  0.00    +0.122 HD
BRANCH  13  15
ATOM     15  C   UNL     1       9.970  -0.607  22.195  0.00  0.00    +0.081 C 
BRANCH  15  17
ATOM     16  C   UNL     1      10.064   1.900  22.168  0.00  0.00    +0.005 C 
ATOM     17  C   UNL     1       9.408   0.665  21.562  0.00  0.00    +0.012 C 
ENDBRANCH  15  17
ENDBRANCH  13  15
ENDBRANCH   1  13
TORSDOF 3
ENDMDL
MODEL 3
REMARK VINA RESULT:      -5.2      2.827      4.562
REMARK  Name = 
REMARK  4 active torsions:
REMARK  status: ('A' for Active; 'I' for Inactive)
REMARK    1  A    between atoms: C_1  and  C_2
REMARK    2  A    between atoms: C_2  and  C_3
REMARK    3  A    between atoms: C_3  and  N_4
REMARK    4  A    between atoms: N_4  and  C_5
REMARK                            x       y       z     vdW  Elec       q    Type
REMARK                         _______ _______ _______ _____ _____    ______ ____
ROOT
ATOM      1  C   UNL     1       9.485   2.537  23.158  0.00  0.00    +0.059 C 
ATOM      2  C   UNL     1       9.674   1.676  24.449  0.00  0.00    +0.063 C 
ATOM      3  C   UNL     1       9.408   0.232  24.157  0.00  0.00    +0.016 A 
ATOM      4  S   UNL     1       9.197  -0.978  25.336  0.00  0.00    -0.057 S 
ATOM      5  C   UNL     1       8.999  -2.143  24.080  0.00  0.00    +0.156 A 
ATOM      6  N   UNL     1       9.105  -1.679  22.858  0.00  0.00    -0.230 NA
ATOM      7  N   UNL     1       8.771  -3.441  24.345  0.00  0.00    -0.338 N 
ATOM      8  H   UNL     1       8.949  -4.071  23.570  0.00  0.00    +0.144 HD
ATOM      9  H   UNL     1       9.056  -3.795  25.248  0.00  0.00    +0.144 HD
ATOM     10  C   UNL     1       9.342  -0.324  22.900  0.00  0.00    +0.054 A 
ATOM     11  C   UNL     1       9.483   0.469  21.654  0.00  0.00    +0.058 C 
ATOM     12  C   UNL     1      10.133   1.830  21.937  0.00  0.00    +0.025 C 
ENDROOT
BRANCH   1  13
ATOM     13  N   UNL     1      10.037   3.891  23.380  0.00  0.00    -0.313 NA
ATOM     14  H   UNL     1       9.698   4.519  22.649  0.00  0.00    +0.122 HD
BRANCH  13  15
ATOM     15  C   UNL     1      11.503   3.913  23.382  0.00  0.00    +0.081 C 
BRANCH  15  17
ATOM     16  C   UNL     1      13.181   5.497  22.399  0.00  0.00    +0.005 C 
ATOM     17  C   UNL     1      12.030   5.348  23.387  0.00  0.00    +0.012 C 
ENDBRANCH  15  17
ENDBRANCH  13  15
ENDBRANCH   1  13
TORSDOF 3
ENDMDL
MODEL 4
REMARK VINA RESULT:      -5.2      3.056      6.152
REMARK  Name = 
REMARK  4 active torsions:
REMARK  status: ('A' for Active; 'I' for Inactive)
REMARK    1  A    between atoms: C_1  and  C_2
REMARK    2  A    between atoms: C_2  and  C_3
REMARK    3  A    between atoms: C_3  and  N_4
REMARK    4  A    between atoms: N_4  and  C_5
REMARK                            x       y       z     vdW  Elec       q    Type
REMARK                         _______ _______ _______ _____ _____    ______ ____
ROOT
ATOM      1  C   UNL     1       9.314  -2.314  23.334  0.00  0.00    +0.059 C 
ATOM      2  C   UNL     1       9.267  -1.133  24.358  0.00  0.00    +0.063 C 
ATOM      3  C   UNL     1       9.662   0.149  23.695  0.00  0.00    +0.016 A 
ATOM      4  S   UNL     1      10.042   1.592  24.512  0.00  0.00    -0.057 S 
ATOM      5  C   UNL     1      10.301   2.365  22.992  0.00  0.00    +0.156 A 
ATOM      6  N   UNL     1      10.097   1.615  21.936  0.00  0.00    -0.230 NA
ATOM      7  N   UNL     1      10.668   3.655  22.905  0.00  0.00    -0.338 N 
ATOM      8  H   UNL     1      10.520   4.080  21.995  0.00  0.00    +0.144 HD
ATOM      9  H   UNL     1      10.459   4.260  23.688  0.00  0.00    +0.144 HD
ATOM     10  C   UNL     1       9.729   0.351  22.334  0.00  0.00    +0.054 A 
ATOM     11  C   UNL     1       9.457  -0.717  21.342  0.00  0.00    +0.058 C 
ATOM     12  C   UNL     1       8.687  -1.882  21.981  0.00  0.00    +0.025 C 
ENDROOT
BRANCH   1  13
ATOM     13  N   UNL     1       8.641  -3.498  23.911  0.00  0.00    -0.313 NA
ATOM     14  H   UNL     1       9.319  -4.253  24.021  0.00  0.00    +0.122 HD
BRANCH  13  15
ATOM     15  C   UNL     1       7.527  -3.976  23.086  0.00  0.00    +0.081 C 
BRANCH  15  17
ATOM     16  C   UNL     1       6.791  -5.934  21.702  0.00  0.00    +0.005 C 
ATOM     17  C   UNL     1       7.567  -5.497  22.938  0.00  0.00    +0.012 C 
ENDBRANCH  15  17
ENDBRANCH  13  15
ENDBRANCH   1  13
TORSDOF 3
ENDMDL
MODEL 5
REMARK VINA RESULT:      -5.2      2.679      3.008
REMARK  Name = 
REMARK  4 active torsions:
REMARK  status: ('A' for Active; 'I' for Inactive)
REMARK    1  A    between atoms: C_1  and  C_2
REMARK    2  A    between atoms: C_2  and  C_3
REMARK    3  A    between atoms: C_3  and  N_4
REMARK    4  A    between atoms: N_4  and  C_5
REMARK                            x       y       z     vdW  Elec       q    Type
REMARK                         _______ _______ _______ _____ _____    ______ ____
ROOT
ATOM      1  C   UNL     1       9.696  -2.002  22.951  0.00  0.00    +0.059 C 
ATOM      2  C   UNL     1       8.312  -2.037  22.225  0.00  0.00    +0.063 C 
ATOM      3  C   UNL     1       7.584  -3.303  22.551  0.00  0.00    +0.016 A 
ATOM      4  S   UNL     1       6.204  -3.873  21.732  0.00  0.00    -0.057 S 
ATOM      5  C   UNL     1       6.156  -5.231  22.793  0.00  0.00    +0.156 A 
ATOM      6  N   UNL     1       7.085  -5.258  23.718  0.00  0.00    -0.230 NA
ATOM      7  N   UNL     1       5.212  -6.183  22.686  0.00  0.00    -0.338 N 
ATOM      8  H   UNL     1       5.102  -6.768  23.508  0.00  0.00    +0.144 HD
ATOM      9  H   UNL     1       4.345  -5.939  22.226  0.00  0.00    +0.144 HD
ATOM     10  C   UNL     1       7.899  -4.157  23.584  0.00  0.00    +0.054 A 
ATOM     11  C   UNL     1       9.056  -3.944  24.488  0.00  0.00    +0.058 C 
ATOM     12  C   UNL     1       9.550  -2.492  24.417  0.00  0.00    +0.025 C 
ENDROOT
BRANCH   1  13
ATOM     13  N   UNL     1      10.265  -0.639  22.870  0.00  0.00    -0.313 NA
ATOM     14  H   UNL     1      10.089  -0.146  23.746  0.00  0.00    +0.122 HD
BRANCH  13  15
ATOM     15  C   UNL     1       9.705   0.144  21.763  0.00  0.00    +0.081 C 
BRANCH  15  17
ATOM     16  C   UNL     1      10.302   1.916  23.436  0.00  0.00    +0.005 C 
ATOM     17  C   UNL     1       9.920   1.641  21.987  0.00  0.00    +0.012 C 
ENDBRANCH  15  17
ENDBRANCH  13  15
ENDBRANCH   1  13
TORSDOF 3
ENDMDL
MODEL 6
REMARK VINA RESULT:      -5.1      2.327      6.264
REMARK  Name = 
REMARK  4 active torsions:
REMARK  status: ('A' for Active; 'I' for Inactive)
REMARK    1  A    between atoms: C_1  and  C_2
REMARK    2  A    between atoms: C_2  and  C_3
REMARK    3  A    between atoms: C_3  and  N_4
REMARK    4  A    between atoms: N_4  and  C_5
REMARK                            x       y       z     vdW  Elec       q    Type
REMARK                         _______ _______ _______ _____ _____    ______ ____
ROOT
ATOM      1  C   UNL     1       8.085  -5.225  25.404  0.00  0.00    +0.059 C 
ATOM      2  C   UNL     1       9.002  -3.959  25.438  0.00  0.00    +0.063 C 
ATOM      3  C   UNL     1       8.922  -3.222  24.138  0.00  0.00    +0.016 A 
ATOM      4  S   UNL     1       9.987  -1.987  23.651  0.00  0.00    -0.057 S 
ATOM      5  C   UNL     1       9.097  -1.820  22.184  0.00  0.00    +0.156 A 
ATOM      6  N   UNL     1       8.057  -2.610  22.062  0.00  0.00    -0.230 NA
ATOM      7  N   UNL     1       9.440  -0.924  21.242  0.00  0.00    -0.338 N 
ATOM      8  H   UNL     1       8.711  -0.713  20.569  0.00  0.00    +0.144 HD
ATOM      9  H   UNL     1       9.991  -0.126  21.528  0.00  0.00    +0.144 HD
ATOM     10  C   UNL     1       7.953  -3.408  23.178  0.00  0.00    +0.054 A 
ATOM     11  C   UNL     1       6.875  -4.419  23.300  0.00  0.00    +0.058 C 
ATOM     12  C   UNL     1       6.716  -4.884  24.754  0.00  0.00    +0.025 C 
ENDROOT
BRANCH   1  13
ATOM     13  N   UNL     1       7.937  -5.767  26.772  0.00  0.00    -0.313 NA
ATOM     14  H   UNL     1       7.705  -6.760  26.719  0.00  0.00    +0.122 HD
BRANCH  13  15
ATOM     15  C   UNL     1       6.900  -5.078  27.546  0.00  0.00    +0.081 C 
BRANCH  15  17
ATOM     16  C   UNL     1       5.021  -6.740  27.605  0.00  0.00    +0.005 C 
ATOM     17  C   UNL     1       6.119  -6.063  28.416  0.00  0.00    +0.012 C 
ENDBRANCH  15  17
ENDBRANCH  13  15
ENDBRANCH   1  13
TORSDOF 3
ENDMDL
MODEL 7
REMARK VINA RESULT:      -5.1      3.106      5.959
REMARK  Name = 
REMARK  4 active torsions:
REMARK  status: ('A' for Active; 'I' for Inactive)
REMARK    1  A    between atoms: C_1  and  C_2
REMARK    2  A    between atoms: C_2  and  C_3
REMARK    3  A    between atoms: C_3  and  N_4
REMARK    4  A    between atoms: N_4  and  C_5
REMARK                            x       y       z     vdW  Elec       q    Type
REMARK                         _______ _______ _______ _____ _____    ______ ____
ROOT
ATOM      1  C   UNL     1       7.383  -2.649  24.164  0.00  0.00    +0.059 C 
ATOM      2  C   UNL     1       6.891  -1.482  23.247  0.00  0.00    +0.063 C 
ATOM      3  C   UNL     1       8.028  -0.569  22.909  0.00  0.00    +0.016 A 
ATOM      4  S   UNL     1       7.865   0.973  22.208  0.00  0.00    -0.057 S 
ATOM      5  C   UNL     1       9.581   1.139  22.213  0.00  0.00    +0.156 A 
ATOM      6  N   UNL     1      10.245   0.110  22.681  0.00  0.00    -0.230 NA
ATOM      7  N   UNL     1      10.189   2.244  21.748  0.00  0.00    -0.338 N 
ATOM      8  H   UNL     1      11.175   2.130  21.537  0.00  0.00    +0.144 HD
ATOM      9  H   UNL     1       9.683   2.820  21.089  0.00  0.00    +0.144 HD
ATOM     10  C   UNL     1       9.362  -0.867  23.076  0.00  0.00    +0.054 A 
ATOM     11  C   UNL     1       9.840  -2.140  23.669  0.00  0.00    +0.058 C 
ATOM     12  C   UNL     1       8.737  -3.207  23.648  0.00  0.00    +0.025 C 
ENDROOT
BRANCH   1  13
ATOM     13  N   UNL     1       6.338  -3.693  24.240  0.00  0.00    -0.313 NA
ATOM     14  H   UNL     1       5.922  -3.689  25.172  0.00  0.00    +0.122 HD
BRANCH  13  15
ATOM     15  C   UNL     1       6.856  -5.036  23.958  0.00  0.00    +0.081 C 
BRANCH  15  17
ATOM     16  C   UNL     1       6.970  -5.792  21.568  0.00  0.00    +0.005 C 
ATOM     17  C   UNL     1       6.089  -5.689  22.808  0.00  0.00    +0.012 C 
ENDBRANCH  15  17
ENDBRANCH  13  15
ENDBRANCH   1  13
TORSDOF 3
ENDMDL
MODEL 8
REMARK VINA RESULT:      -5.0      2.769      6.221
REMARK  Name = 
REMARK  4 active torsions:
REMARK  status: ('A' for Active; 'I' for Inactive)
REMARK    1  A    between atoms: C_1  and  C_2
REMARK    2  A    between atoms: C_2  and  C_3
REMARK    3  A    between atoms: C_3  and  N_4
REMARK    4  A    between atoms: N_4  and  C_5
REMARK                            x       y       z     vdW  Elec       q    Type
REMARK                         _______ _______ _______ _____ _____    ______ ____
ROOT
ATOM      1  C   UNL     1       9.972  -2.003  23.484  0.00  0.00    +0.059 C 
ATOM      2  C   UNL     1       9.503  -0.899  24.486  0.00  0.00    +0.063 C 
ATOM      3  C   UNL     1       9.377   0.419  23.789  0.00  0.00    +0.016 A 
ATOM      4  S   UNL     1       9.202   1.922  24.569  0.00  0.00    -0.057 S 
ATOM      5  C   UNL     1       9.125   2.694  23.029  0.00  0.00    +0.156 A 
ATOM      6  N   UNL     1       9.199   1.894  21.993  0.00  0.00    -0.230 NA
ATOM      7  N   UNL     1       8.979   4.025  22.908  0.00  0.00    -0.338 N 
ATOM      8  H   UNL     1       8.667   4.338  21.995  0.00  0.00    +0.144 HD
ATOM      9  H   UNL     1       8.572   4.528  23.685  0.00  0.00    +0.144 HD
ATOM     10  C   UNL     1       9.339   0.595  22.424  0.00  0.00    +0.054 A 
ATOM     11  C   UNL     1       9.470  -0.524  21.459  0.00  0.00    +0.058 C 
ATOM     12  C   UNL     1       9.205  -1.874  22.140  0.00  0.00    +0.025 C 
ENDROOT
BRANCH   1  13
ATOM     13  N   UNL     1       9.802  -3.337  24.100  0.00  0.00    -0.313 NA
ATOM     14  H   UNL     1       9.471  -3.996  23.395  0.00  0.00    +0.122 HD
BRANCH  13  15
ATOM     15  C   UNL     1       8.858  -3.328  25.222  0.00  0.00    +0.081 C 
BRANCH  15  17
ATOM     16  C   UNL     1       7.827  -5.023  26.757  0.00  0.00    +0.005 C 
ATOM     17  C   UNL     1       9.132  -4.487  26.180  0.00  0.00    +0.012 C 
ENDBRANCH  15  17
ENDBRANCH  13  15
ENDBRANCH   1  13
TORSDOF 3
ENDMDL
MODEL 9
REMARK VINA RESULT:      -4.8      2.592      3.704
REMARK  Name = 
REMARK  4 active torsions:
REMARK  status: ('A' for Active; 'I' for Inactive)
REMARK    1  A    between atoms: C_1  and  C_2
REMARK    2  A    between atoms: C_2  and  C_3
REMARK    3  A    between atoms: C_3  and  N_4
REMARK    4  A    between atoms: N_4  and  C_5
REMARK                            x       y       z     vdW  Elec       q    Type
REMARK                         _______ _______ _______ _____ _____    ______ ____
ROOT
ATOM      1  C   UNL     1       9.561   1.298  22.221  0.00  0.00    +0.059 C 
ATOM      2  C   UNL     1       8.321   0.349  22.129  0.00  0.00    +0.063 C 
ATOM      3  C   UNL     1       8.606  -0.951  22.813  0.00  0.00    +0.016 A 
ATOM      4  S   UNL     1       7.656  -2.356  22.672  0.00  0.00    -0.057 S 
ATOM      5  C   UNL     1       8.725  -3.168  23.754  0.00  0.00    +0.156 A 
ATOM      6  N   UNL     1       9.715  -2.444  24.217  0.00  0.00    -0.230 NA
ATOM      7  N   UNL     1       8.537  -4.450  24.109  0.00  0.00    -0.338 N 
ATOM      8  H   UNL     1       9.037  -4.739  24.944  0.00  0.00    +0.144 HD
ATOM      9  H   UNL     1       7.603  -4.831  24.028  0.00  0.00    +0.144 HD
ATOM     10  C   UNL     1       9.648  -1.177  23.684  0.00  0.00    +0.054 A 
ATOM     11  C   UNL     1      10.663  -0.149  24.019  0.00  0.00    +0.058 C 
ATOM     12  C   UNL     1      10.168   1.256  23.650  0.00  0.00    +0.025 C 
ENDROOT
BRANCH   1  13
ATOM     13  N   UNL     1       9.170   2.665  21.817  0.00  0.00    -0.313 NA
ATOM     14  H   UNL     1      10.009   3.219  21.638  0.00  0.00    +0.122 HD
BRANCH  13  15
ATOM     15  C   UNL     1       8.360   3.347  22.832  0.00  0.00    +0.081 C 
BRANCH  15  17
ATOM     16  C   UNL     1       7.300   5.525  22.177  0.00  0.00    +0.005 C 
ATOM     17  C   UNL     1       7.135   4.010  22.202  0.00  0.00    +0.012 C 
ENDBRANCH  15  17
ENDBRANCH  13  15
ENDBRANCH   1  13
TORSDOF 3
ENDMDL
