MODEL 1
REMARK VINA RESULT:      -7.3      0.000      0.000
REMARK  Name = 
REMARK  10 active torsions:
REMARK  status: ('A' for Active; 'I' for Inactive)
REMARK    1  A    between atoms: C_2  and  C_24
REMARK    2  A    between atoms: N_3  and  S_10
REMARK    3  A    between atoms: C_7  and  C_8
REMARK    4  A    between atoms: C_7  and  C_9
REMARK    5  A    between atoms: S_10  and  C_13
REMARK    6  A    between atoms: C_16  and  O_17
REMARK    7  A    between atoms: O_17  and  C_18
REMARK    8  A    between atoms: C_18  and  C_19
REMARK    9  A    between atoms: C_20  and  C_21
REMARK   10  A    between atoms: N_26  and  O_27
REMARK                            x       y       z     vdW  Elec       q    Type
REMARK                         _______ _______ _______ _____ _____    ______ ____
ROOT
ATOM      1  C   UNL     1       7.515  -3.664  24.183  0.00  0.00    +0.183 C 
ATOM      2  C   UNL     1       6.313  -3.949  25.164  0.00  0.00    +0.037 C 
ATOM      3  C   UNL     1       6.690  -3.966  26.658  0.00  0.00    +0.024 C 
ATOM      4  C   UNL     1       5.636  -5.296  24.824  0.00  0.00    +0.024 C 
ATOM      5  S   UNL     1       4.967  -2.702  24.957  0.00  0.00    -0.151 S 
ATOM      6  C   UNL     1       5.960  -1.219  25.205  0.00  0.00    +0.087 C 
ATOM      7  C   UNL     1       7.059  -1.154  24.165  0.00  0.00    +0.121 C 
ATOM      8  N   UNL     1       8.123  -2.237  24.283  0.00  0.00    -0.163 NA
ENDROOT
BRANCH   1   9
ATOM      9  C   UNL     1       8.576  -4.748  24.401  0.00  0.00    +0.256 C 
ATOM     10  N   UNL     1       9.399  -4.551  25.484  0.00  0.00    -0.196 N 
ATOM     11  H   UNL     1       9.568  -3.635  25.889  0.00  0.00    +0.182 HD
ATOM     12  O   UNL     1       8.630  -5.783  23.738  0.00  0.00    -0.272 OA
BRANCH  10  13
ATOM     13  O   UNL     1      10.348  -5.560  25.751  0.00  0.00    -0.295 OA
ATOM     14  H   UNL     1      10.032  -5.939  26.601  0.00  0.00    +0.241 HD
ENDBRANCH  10  13
ENDBRANCH   1   9
BRANCH   8  15
ATOM     15  S   UNL     1       9.296  -1.901  22.983  0.00  0.00    +0.062 S 
ATOM     16  O   UNL     1       8.606  -2.078  21.722  0.00  0.00    -0.153 OA
ATOM     17  O   UNL     1      10.491  -2.657  23.290  0.00  0.00    -0.153 OA
BRANCH  15  18
ATOM     18  C   UNL     1       9.665  -0.173  23.076  0.00  0.00    +0.106 A 
ATOM     19  C   UNL     1       9.509   0.627  21.940  0.00  0.00    +0.032 A 
ATOM     20  C   UNL     1       9.846   1.988  21.990  0.00  0.00    +0.047 A 
ATOM     21  C   UNL     1      10.350   2.543  23.171  0.00  0.00    +0.122 A 
ATOM     22  C   UNL     1      10.552   1.718  24.282  0.00  0.00    +0.047 A 
ATOM     23  C   UNL     1      10.228   0.360  24.237  0.00  0.00    +0.032 A 
BRANCH  21  24
ATOM     24  O   UNL     1      10.644   3.865  23.388  0.00  0.00    -0.480 OA
BRANCH  24  25
ATOM     25  C   UNL     1       9.741   4.590  24.214  0.00  0.00    +0.317 C 
BRANCH  25  26
ATOM     26  C   UNL     1       8.755   5.386  23.374  0.00  0.00    -0.062 C 
ATOM     27  C   UNL     1       7.910   6.070  22.653  0.00  0.00    -0.102 C 
ATOM     28  C   UNL     1       6.926   6.867  21.813  0.00  0.00    +0.106 C 
ENDBRANCH  25  26
ENDBRANCH  24  25
ENDBRANCH  21  24
ENDBRANCH  15  18
ENDBRANCH   8  15
TORSDOF 7
ENDMDL
MODEL 2
REMARK VINA RESULT:      -7.2      2.523      3.441
REMARK  Name = 
REMARK  10 active torsions:
REMARK  status: ('A' for Active; 'I' for Inactive)
REMARK    1  A    between atoms: C_2  and  C_24
REMARK    2  A    between atoms: N_3  and  S_10
REMARK    3  A    between atoms: C_7  and  C_8
REMARK    4  A    between atoms: C_7  and  C_9
REMARK    5  A    between atoms: S_10  and  C_13
REMARK    6  A    between atoms: C_16  and  O_17
REMARK    7  A    between atoms: O_17  and  C_18
REMARK    8  A    between atoms: C_18  and  C_19
REMARK    9  A    between atoms: C_20  and  C_21
REMARK   10  A    between atoms: N_26  and  O_27
REMARK                            x       y       z     vdW  Elec       q    Type
REMARK                         _______ _______ _______ _____ _____    ______ ____
ROOT
ATOM      1  C   UNL     1       6.070  -5.444  25.200  0.00  0.00    +0.183 C 
ATOM      2  C   UNL     1       4.757  -5.739  26.023  0.00  0.00    +0.037 C 
ATOM      3  C   UNL     1       4.131  -4.505  26.701  0.00  0.00    +0.024 C 
ATOM      4  C   UNL     1       5.022  -6.803  27.113  0.00  0.00    +0.024 C 
ATOM      5  S   UNL     1       3.451  -6.497  24.960  0.00  0.00    -0.151 S 
ATOM      6  C   UNL     1       3.408  -5.231  23.678  0.00  0.00    +0.087 C 
ATOM      7  C   UNL     1       4.771  -5.107  23.029  0.00  0.00    +0.121 C 
ATOM      8  N   UNL     1       5.869  -4.564  23.934  0.00  0.00    -0.163 NA
ENDROOT
BRANCH   1   9
ATOM      9  C   UNL     1       7.105  -4.838  26.152  0.00  0.00    +0.256 C 
ATOM     10  N   UNL     1       8.216  -5.614  26.378  0.00  0.00    -0.196 N 
ATOM     11  H   UNL     1       8.219  -6.622  26.256  0.00  0.00    +0.182 HD
ATOM     12  O   UNL     1       7.023  -3.695  26.600  0.00  0.00    -0.272 OA
BRANCH  10  13
ATOM     13  O   UNL     1       9.220  -5.061  27.202  0.00  0.00    -0.295 OA
ATOM     14  H   UNL     1       9.386  -5.777  27.854  0.00  0.00    +0.241 HD
ENDBRANCH  10  13
ENDBRANCH   1   9
BRANCH   8  15
ATOM     15  S   UNL     1       7.332  -4.483  22.918  0.00  0.00    +0.062 S 
ATOM     16  O   UNL     1       6.897  -4.431  21.538  0.00  0.00    -0.153 OA
ATOM     17  O   UNL     1       8.222  -5.527  23.380  0.00  0.00    -0.153 OA
BRANCH  15  18
ATOM     18  C   UNL     1       8.075  -2.909  23.235  0.00  0.00    +0.106 A 
ATOM     19  C   UNL     1       7.496  -1.754  22.699  0.00  0.00    +0.032 A 
ATOM     20  C   UNL     1       8.104  -0.507  22.903  0.00  0.00    +0.047 A 
ATOM     21  C   UNL     1       9.296  -0.417  23.630  0.00  0.00    +0.122 A 
ATOM     22  C   UNL     1       9.892  -1.588  24.112  0.00  0.00    +0.047 A 
ATOM     23  C   UNL     1       9.297  -2.834  23.905  0.00  0.00    +0.032 A 
BRANCH  21  24
ATOM     24  O   UNL     1       9.955   0.735  23.974  0.00  0.00    -0.480 OA
BRANCH  24  25
ATOM     25  C   UNL     1       9.474   1.940  23.394  0.00  0.00    +0.317 C 
BRANCH  25  26
ATOM     26  C   UNL     1      10.564   3.000  23.354  0.00  0.00    -0.062 C 
ATOM     27  C   UNL     1      11.499   3.908  23.321  0.00  0.00    -0.102 C 
ATOM     28  C   UNL     1      12.589   4.967  23.282  0.00  0.00    +0.106 C 
ENDBRANCH  25  26
ENDBRANCH  24  25
ENDBRANCH  21  24
ENDBRANCH  15  18
ENDBRANCH   8  15
TORSDOF 7
ENDMDL
MODEL 3
REMARK VINA RESULT:      -7.1      2.388      3.119
REMARK  Name = 
REMARK  10 active torsions:
REMARK  status: ('A' for Active; 'I' for Inactive)
REMARK    1  A    between atoms: C_2  and  C_24
REMARK    2  A    between atoms: N_3  and  S_10
REMARK    3  A    between atoms: C_7  and  C_8
REMARK    4  A    between atoms: C_7  and  C_9
REMARK    5  A    between atoms: S_10  and  C_13
REMARK    6  A    between atoms: C_16  and  O_17
REMARK    7  A    between atoms: O_17  and  C_18
REMARK    8  A    between atoms: C_18  and  C_19
REMARK    9  A    between atoms: C_20  and  C_21
REMARK   10  A    between atoms: N_26  and  O_27
REMARK                            x       y       z     vdW  Elec       q    Type
REMARK                         _______ _______ _______ _____ _____    ______ ____
ROOT
ATOM      1  C   UNL     1       6.570  -4.961  24.830  0.00  0.00    +0.183 C 
ATOM      2  C   UNL     1       5.195  -5.406  24.199  0.00  0.00    +0.037 C 
ATOM      3  C   UNL     1       3.964  -4.645  24.731  0.00  0.00    +0.024 C 
ATOM      4  C   UNL     1       4.955  -6.917  24.417  0.00  0.00    +0.024 C 
ATOM      5  S   UNL     1       5.202  -5.210  22.363  0.00  0.00    -0.151 S 
ATOM      6  C   UNL     1       5.666  -3.470  22.300  0.00  0.00    +0.087 C 
ATOM      7  C   UNL     1       7.009  -3.269  22.972  0.00  0.00    +0.121 C 
ATOM      8  N   UNL     1       7.021  -3.516  24.474  0.00  0.00    -0.163 NA
ENDROOT
BRANCH   1   9
ATOM      9  C   UNL     1       6.490  -5.171  26.346  0.00  0.00    +0.256 C 
ATOM     10  N   UNL     1       7.407  -6.055  26.863  0.00  0.00    -0.196 N 
ATOM     11  H   UNL     1       7.845  -6.783  26.306  0.00  0.00    +0.182 HD
ATOM     12  O   UNL     1       5.746  -4.521  27.079  0.00  0.00    -0.272 OA
BRANCH  10  13
ATOM     13  O   UNL     1       7.402  -6.227  28.263  0.00  0.00    -0.295 OA
ATOM     14  H   UNL     1       8.352  -6.139  28.498  0.00  0.00    +0.241 HD
ENDBRANCH  10  13
ENDBRANCH   1   9
BRANCH   8  15
ATOM     15  S   UNL     1       8.689  -3.171  25.004  0.00  0.00    +0.062 S 
ATOM     16  O   UNL     1       9.553  -4.147  24.373  0.00  0.00    -0.153 OA
ATOM     17  O   UNL     1       8.651  -3.031  26.443  0.00  0.00    -0.153 OA
BRANCH  15  18
ATOM     18  C   UNL     1       9.131  -1.618  24.282  0.00  0.00    +0.106 A 
ATOM     19  C   UNL     1      10.024  -1.588  23.206  0.00  0.00    +0.032 A 
ATOM     20  C   UNL     1      10.420  -0.358  22.659  0.00  0.00    +0.047 A 
ATOM     21  C   UNL     1       9.933   0.839  23.196  0.00  0.00    +0.122 A 
ATOM     22  C   UNL     1       9.084   0.793  24.307  0.00  0.00    +0.047 A 
ATOM     23  C   UNL     1       8.693  -0.426  24.863  0.00  0.00    +0.032 A 
BRANCH  21  24
ATOM     24  O   UNL     1      10.168   2.102  22.715  0.00  0.00    -0.480 OA
BRANCH  24  25
ATOM     25  C   UNL     1      10.385   3.120  23.684  0.00  0.00    +0.317 C 
BRANCH  25  26
ATOM     26  C   UNL     1      11.506   4.052  23.252  0.00  0.00    -0.062 C 
ATOM     27  C   UNL     1      12.468   4.851  22.881  0.00  0.00    -0.102 C 
ATOM     28  C   UNL     1      13.588   5.783  22.449  0.00  0.00    +0.106 C 
ENDBRANCH  25  26
ENDBRANCH  24  25
ENDBRANCH  21  24
ENDBRANCH  15  18
ENDBRANCH   8  15
TORSDOF 7
ENDMDL
MODEL 4
REMARK VINA RESULT:      -7.1      1.323      1.805
REMARK  Name = 
REMARK  10 active torsions:
REMARK  status: ('A' for Active; 'I' for Inactive)
REMARK    1  A    between atoms: C_2  and  C_24
REMARK    2  A    between atoms: N_3  and  S_10
REMARK    3  A    between atoms: C_7  and  C_8
REMARK    4  A    between atoms: C_7  and  C_9
REMARK    5  A    between atoms: S_10  and  C_13
REMARK    6  A    between atoms: C_16  and  O_17
REMARK    7  A    between atoms: O_17  and  C_18
REMARK    8  A    between atoms: C_18  and  C_19
REMARK    9  A    between atoms: C_20  and  C_21
REMARK   10  A    between atoms: N_26  and  O_27
REMARK                            x       y       z     vdW  Elec       q    Type
REMARK                         _______ _______ _______ _____ _____    ______ ____
ROOT
ATOM      1  C   UNL     1       7.257  -3.650  24.136  0.00  0.00    +0.183 C 
ATOM      2  C   UNL     1       6.073  -4.143  25.052  0.00  0.00    +0.037 C 
ATOM      3  C   UNL     1       6.440  -4.330  26.537  0.00  0.00    +0.024 C 
ATOM      4  C   UNL     1       5.496  -5.479  24.529  0.00  0.00    +0.024 C 
ATOM      5  S   UNL     1       4.642  -2.977  24.989  0.00  0.00    -0.151 S 
ATOM      6  C   UNL     1       5.525  -1.474  25.444  0.00  0.00    +0.087 C 
ATOM      7  C   UNL     1       6.623  -1.196  24.438  0.00  0.00    +0.121 C 
ATOM      8  N   UNL     1       7.761  -2.208  24.431  0.00  0.00    -0.163 NA
ENDROOT
BRANCH   1   9
ATOM      9  C   UNL     1       8.392  -4.675  24.228  0.00  0.00    +0.256 C 
ATOM     10  N   UNL     1       9.262  -4.493  25.275  0.00  0.00    -0.196 N 
ATOM     11  H   UNL     1       9.399  -3.594  25.728  0.00  0.00    +0.182 HD
ATOM     12  O   UNL     1       8.469  -5.663  23.498  0.00  0.00    -0.272 OA
BRANCH  10  13
ATOM     13  O   UNL     1      10.284  -5.455  25.426  0.00  0.00    -0.295 OA
ATOM     14  H   UNL     1       9.845  -6.287  25.144  0.00  0.00    +0.241 HD
ENDBRANCH  10  13
ENDBRANCH   1   9
BRANCH   8  15
ATOM     15  S   UNL     1       8.916  -1.624  23.204  0.00  0.00    +0.062 S 
ATOM     16  O   UNL     1       8.393  -1.997  21.907  0.00  0.00    -0.153 OA
ATOM     17  O   UNL     1      10.232  -2.051  23.628  0.00  0.00    -0.153 OA
BRANCH  15  18
ATOM     18  C   UNL     1       8.840   0.143  23.249  0.00  0.00    +0.106 A 
ATOM     19  C   UNL     1       8.467   0.846  22.098  0.00  0.00    +0.032 A 
ATOM     20  C   UNL     1       8.451   2.248  22.108  0.00  0.00    +0.047 A 
ATOM     21  C   UNL     1       8.822   2.946  23.263  0.00  0.00    +0.122 A 
ATOM     22  C   UNL     1       9.245   2.230  24.388  0.00  0.00    +0.047 A 
ATOM     23  C   UNL     1       9.272   0.834  24.382  0.00  0.00    +0.032 A 
BRANCH  21  24
ATOM     24  O   UNL     1       8.778   4.306  23.443  0.00  0.00    -0.480 OA
BRANCH  24  25
ATOM     25  C   UNL     1       9.744   4.862  24.324  0.00  0.00    +0.317 C 
BRANCH  25  26
ATOM     26  C   UNL     1      11.049   5.140  23.596  0.00  0.00    -0.062 C 
ATOM     27  C   UNL     1      12.169   5.379  22.971  0.00  0.00    -0.102 C 
ATOM     28  C   UNL     1      13.473   5.658  22.242  0.00  0.00    +0.106 C 
ENDBRANCH  25  26
ENDBRANCH  24  25
ENDBRANCH  21  24
ENDBRANCH  15  18
ENDBRANCH   8  15
TORSDOF 7
ENDMDL
MODEL 5
REMARK VINA RESULT:      -7.0      2.499      3.305
REMARK  Name = 
REMARK  10 active torsions:
REMARK  status: ('A' for Active; 'I' for Inactive)
REMARK    1  A    between atoms: C_2  and  C_24
REMARK    2  A    between atoms: N_3  and  S_10
REMARK    3  A    between atoms: C_7  and  C_8
REMARK    4  A    between atoms: C_7  and  C_9
REMARK    5  A    between atoms: S_10  and  C_13
REMARK    6  A    between atoms: C_16  and  O_17
REMARK    7  A    between atoms: O_17  and  C_18
REMARK    8  A    between atoms: C_18  and  C_19
REMARK    9  A    between atoms: C_20  and  C_21
REMARK   10  A    between atoms: N_26  and  O_27
REMARK                            x       y       z     vdW  Elec       q    Type
REMARK                         _______ _______ _______ _____ _____    ______ ____
ROOT
ATOM      1  C   UNL     1       6.128  -5.260  25.352  0.00  0.00    +0.183 C 
ATOM      2  C   UNL     1       4.664  -5.519  24.827  0.00  0.00    +0.037 C 
ATOM      3  C   UNL     1       3.622  -4.478  25.281  0.00  0.00    +0.024 C 
ATOM      4  C   UNL     1       4.166  -6.917  25.259  0.00  0.00    +0.024 C 
ATOM      5  S   UNL     1       4.611  -5.572  22.981  0.00  0.00    -0.151 S 
ATOM      6  C   UNL     1       5.379  -3.973  22.664  0.00  0.00    +0.087 C 
ATOM      7  C   UNL     1       6.769  -3.940  23.265  0.00  0.00    +0.121 C 
ATOM      8  N   UNL     1       6.815  -3.985  24.786  0.00  0.00    -0.163 NA
ENDROOT
BRANCH   1   9
ATOM      9  C   UNL     1       6.090  -5.250  26.884  0.00  0.00    +0.256 C 
ATOM     10  N   UNL     1       6.793  -6.262  27.492  0.00  0.00    -0.196 N 
ATOM     11  H   UNL     1       7.006  -7.141  27.030  0.00  0.00    +0.182 HD
ATOM     12  O   UNL     1       5.573  -4.347  27.541  0.00  0.00    -0.272 OA
BRANCH  10  13
ATOM     13  O   UNL     1       6.831  -6.249  28.903  0.00  0.00    -0.295 OA
ATOM     14  H   UNL     1       7.790  -6.156  29.095  0.00  0.00    +0.241 HD
ENDBRANCH  10  13
ENDBRANCH   1   9
BRANCH   8  15
ATOM     15  S   UNL     1       8.543  -3.891  25.218  0.00  0.00    +0.062 S 
ATOM     16  O   UNL     1       9.238  -4.890  24.434  0.00  0.00    -0.153 OA
ATOM     17  O   UNL     1       8.615  -3.896  26.663  0.00  0.00    -0.153 OA
BRANCH  15  18
ATOM     18  C   UNL     1       9.124  -2.333  24.615  0.00  0.00    +0.106 A 
ATOM     19  C   UNL     1       9.841  -2.283  23.414  0.00  0.00    +0.032 A 
ATOM     20  C   UNL     1      10.349  -1.061  22.952  0.00  0.00    +0.047 A 
ATOM     21  C   UNL     1      10.152   0.108  23.697  0.00  0.00    +0.122 A 
ATOM     22  C   UNL     1       9.482   0.032  24.922  0.00  0.00    +0.047 A 
ATOM     23  C   UNL     1       8.981  -1.183  25.393  0.00  0.00    +0.032 A 
BRANCH  21  24
ATOM     24  O   UNL     1      10.520   1.378  23.332  0.00  0.00    -0.480 OA
BRANCH  24  25
ATOM     25  C   UNL     1      10.067   1.830  22.062  0.00  0.00    +0.317 C 
BRANCH  25  26
ATOM     26  C   UNL     1       8.633   2.332  22.143  0.00  0.00    -0.062 C 
ATOM     27  C   UNL     1       7.404   2.761  22.212  0.00  0.00    -0.102 C 
ATOM     28  C   UNL     1       5.971   3.262  22.292  0.00  0.00    +0.106 C 
ENDBRANCH  25  26
ENDBRANCH  24  25
ENDBRANCH  21  24
ENDBRANCH  15  18
ENDBRANCH   8  15
TORSDOF 7
ENDMDL
MODEL 6
REMARK VINA RESULT:      -6.8      1.966      2.493
REMARK  Name = 
REMARK  10 active torsions:
REMARK  status: ('A' for Active; 'I' for Inactive)
REMARK    1  A    between atoms: C_2  and  C_24
REMARK    2  A    between atoms: N_3  and  S_10
REMARK    3  A    between atoms: C_7  and  C_8
REMARK    4  A    between atoms: C_7  and  C_9
REMARK    5  A    between atoms: S_10  and  C_13
REMARK    6  A    between atoms: C_16  and  O_17
REMARK    7  A    between atoms: O_17  and  C_18
REMARK    8  A    between atoms: C_18  and  C_19
REMARK    9  A    between atoms: C_20  and  C_21
REMARK   10  A    between atoms: N_26  and  O_27
REMARK                            x       y       z     vdW  Elec       q    Type
REMARK                         _______ _______ _______ _____ _____    ______ ____
ROOT
ATOM      1  C   UNL     1       7.978  -4.234  23.551  0.00  0.00    +0.183 C 
ATOM      2  C   UNL     1       6.796  -5.058  22.911  0.00  0.00    +0.037 C 
ATOM      3  C   UNL     1       5.636  -5.379  23.874  0.00  0.00    +0.024 C 
ATOM      4  C   UNL     1       7.314  -6.391  22.324  0.00  0.00    +0.024 C 
ATOM      5  S   UNL     1       6.069  -4.177  21.459  0.00  0.00    -0.151 S 
ATOM      6  C   UNL     1       5.697  -2.616  22.277  0.00  0.00    +0.087 C 
ATOM      7  C   UNL     1       6.969  -2.004  22.827  0.00  0.00    +0.121 C 
ATOM      8  N   UNL     1       7.616  -2.780  23.967  0.00  0.00    -0.163 NA
ENDROOT
BRANCH   1   9
ATOM      9  C   UNL     1       8.537  -5.037  24.730  0.00  0.00    +0.256 C 
ATOM     10  N   UNL     1       7.868  -4.873  25.919  0.00  0.00    -0.196 N 
ATOM     11  H   UNL     1       7.311  -4.050  26.129  0.00  0.00    +0.182 HD
ATOM     12  O   UNL     1       9.443  -5.861  24.616  0.00  0.00    -0.272 OA
BRANCH  10  13
ATOM     13  O   UNL     1       8.318  -5.644  27.012  0.00  0.00    -0.295 OA
ATOM     14  H   UNL     1       9.070  -6.148  26.630  0.00  0.00    +0.241 HD
ENDBRANCH  10  13
ENDBRANCH   1   9
BRANCH   8  15
ATOM     15  S   UNL     1       9.048  -1.829  24.442  0.00  0.00    +0.062 S 
ATOM     16  O   UNL     1      10.171  -2.327  23.675  0.00  0.00    -0.153 OA
ATOM     17  O   UNL     1       9.082  -1.815  25.889  0.00  0.00    -0.153 OA
BRANCH  15  18
ATOM     18  C   UNL     1       8.773  -0.183  23.855  0.00  0.00    +0.106 A 
ATOM     19  C   UNL     1       9.346   0.221  22.644  0.00  0.00    +0.032 A 
ATOM     20  C   UNL     1       9.175   1.538  22.194  0.00  0.00    +0.047 A 
ATOM     21  C   UNL     1       8.443   2.453  22.960  0.00  0.00    +0.122 A 
ATOM     22  C   UNL     1       7.923   2.049  24.194  0.00  0.00    +0.047 A 
ATOM     23  C   UNL     1       8.097   0.741  24.654  0.00  0.00    +0.032 A 
BRANCH  21  24
ATOM     24  O   UNL     1       8.128   3.741  22.609  0.00  0.00    -0.480 OA
BRANCH  24  25
ATOM     25  C   UNL     1       8.282   4.730  23.619  0.00  0.00    +0.317 C 
BRANCH  25  26
ATOM     26  C   UNL     1       9.733   5.168  23.735  0.00  0.00    -0.062 C 
ATOM     27  C   UNL     1      10.978   5.544  23.835  0.00  0.00    -0.102 C 
ATOM     28  C   UNL     1      12.429   5.982  23.952  0.00  0.00    +0.106 C 
ENDBRANCH  25  26
ENDBRANCH  24  25
ENDBRANCH  21  24
ENDBRANCH  15  18
ENDBRANCH   8  15
TORSDOF 7
ENDMDL
MODEL 7
REMARK VINA RESULT:      -6.7      2.380      3.262
REMARK  Name = 
REMARK  10 active torsions:
REMARK  status: ('A' for Active; 'I' for Inactive)
REMARK    1  A    between atoms: C_2  and  C_24
REMARK    2  A    between atoms: N_3  and  S_10
REMARK    3  A    between atoms: C_7  and  C_8
REMARK    4  A    between atoms: C_7  and  C_9
REMARK    5  A    between atoms: S_10  and  C_13
REMARK    6  A    between atoms: C_16  and  O_17
REMARK    7  A    between atoms: O_17  and  C_18
REMARK    8  A    between atoms: C_18  and  C_19
REMARK    9  A    between atoms: C_20  and  C_21
REMARK   10  A    between atoms: N_26  and  O_27
REMARK                            x       y       z     vdW  Elec       q    Type
REMARK                         _______ _______ _______ _____ _____    ______ ____
ROOT
ATOM      1  C   UNL     1       7.869  -2.235  24.734  0.00  0.00    +0.183 C 
ATOM      2  C   UNL     1       6.747  -3.328  24.917  0.00  0.00    +0.037 C 
ATOM      3  C   UNL     1       5.305  -2.786  24.878  0.00  0.00    +0.024 C 
ATOM      4  C   UNL     1       6.938  -4.090  26.249  0.00  0.00    +0.024 C 
ATOM      5  S   UNL     1       6.870  -4.642  23.624  0.00  0.00    -0.151 S 
ATOM      6  C   UNL     1       6.812  -3.572  22.176  0.00  0.00    +0.087 C 
ATOM      7  C   UNL     1       7.970  -2.595  22.209  0.00  0.00    +0.121 C 
ATOM      8  N   UNL     1       7.913  -1.566  23.330  0.00  0.00    -0.163 NA
ENDROOT
BRANCH   1   9
ATOM      9  C   UNL     1       7.712  -1.198  25.850  0.00  0.00    +0.256 C 
ATOM     10  N   UNL     1       8.752  -1.141  26.746  0.00  0.00    -0.196 N 
ATOM     11  H   UNL     1       9.381  -1.921  26.910  0.00  0.00    +0.182 HD
ATOM     12  O   UNL     1       6.788  -0.386  25.893  0.00  0.00    -0.272 OA
BRANCH  10  13
ATOM     13  O   UNL     1       8.670  -0.156  27.753  0.00  0.00    -0.295 OA
ATOM     14  H   UNL     1       9.497  -0.295  28.264  0.00  0.00    +0.241 HD
ENDBRANCH  10  13
ENDBRANCH   1   9
BRANCH   8  15
ATOM     15  S   UNL     1       9.351  -0.535  23.110  0.00  0.00    +0.062 S 
ATOM     16  O   UNL     1       9.735  -0.622  21.716  0.00  0.00    -0.153 OA
ATOM     17  O   UNL     1      10.282  -0.882  24.162  0.00  0.00    -0.153 OA
BRANCH  15  18
ATOM     18  C   UNL     1       8.811   1.133  23.343  0.00  0.00    +0.106 A 
ATOM     19  C   UNL     1       9.072   1.778  24.557  0.00  0.00    +0.032 A 
ATOM     20  C   UNL     1       8.605   3.083  24.770  0.00  0.00    +0.047 A 
ATOM     21  C   UNL     1       7.867   3.737  23.777  0.00  0.00    +0.122 A 
ATOM     22  C   UNL     1       7.567   3.058  22.592  0.00  0.00    +0.047 A 
ATOM     23  C   UNL     1       8.020   1.755  22.375  0.00  0.00    +0.032 A 
BRANCH  21  24
ATOM     24  O   UNL     1       7.418   5.032  23.816  0.00  0.00    -0.480 OA
BRANCH  24  25
ATOM     25  C   UNL     1       8.141   5.978  23.038  0.00  0.00    +0.317 C 
BRANCH  25  26
ATOM     26  C   UNL     1       9.606   6.011  23.443  0.00  0.00    -0.062 C 
ATOM     27  C   UNL     1      10.862   6.039  23.792  0.00  0.00    -0.102 C 
ATOM     28  C   UNL     1      12.327   6.072  24.198  0.00  0.00    +0.106 C 
ENDBRANCH  25  26
ENDBRANCH  24  25
ENDBRANCH  21  24
ENDBRANCH  15  18
ENDBRANCH   8  15
TORSDOF 7
ENDMDL
MODEL 8
REMARK VINA RESULT:      -6.6      2.547      3.867
REMARK  Name = 
REMARK  10 active torsions:
REMARK  status: ('A' for Active; 'I' for Inactive)
REMARK    1  A    between atoms: C_2  and  C_24
REMARK    2  A    between atoms: N_3  and  S_10
REMARK    3  A    between atoms: C_7  and  C_8
REMARK    4  A    between atoms: C_7  and  C_9
REMARK    5  A    between atoms: S_10  and  C_13
REMARK    6  A    between atoms: C_16  and  O_17
REMARK    7  A    between atoms: O_17  and  C_18
REMARK    8  A    between atoms: C_18  and  C_19
REMARK    9  A    between atoms: C_20  and  C_21
REMARK   10  A    between atoms: N_26  and  O_27
REMARK                            x       y       z     vdW  Elec       q    Type
REMARK                         _______ _______ _______ _____ _____    ______ ____
ROOT
ATOM      1  C   UNL     1       5.796  -4.385  24.773  0.00  0.00    +0.183 C 
ATOM      2  C   UNL     1       4.551  -4.449  25.738  0.00  0.00    +0.037 C 
ATOM      3  C   UNL     1       3.815  -5.803  25.753  0.00  0.00    +0.024 C 
ATOM      4  C   UNL     1       3.524  -3.349  25.383  0.00  0.00    +0.024 C 
ATOM      5  S   UNL     1       5.031  -4.072  27.482  0.00  0.00    -0.151 S 
ATOM      6  C   UNL     1       6.330  -5.308  27.655  0.00  0.00    +0.087 C 
ATOM      7  C   UNL     1       7.414  -5.066  26.625  0.00  0.00    +0.121 C 
ATOM      8  N   UNL     1       6.992  -5.292  25.179  0.00  0.00    -0.163 NA
ENDROOT
BRANCH   1   9
ATOM      9  C   UNL     1       5.313  -4.688  23.351  0.00  0.00    +0.256 C 
ATOM     10  N   UNL     1       5.303  -6.018  23.008  0.00  0.00    -0.196 N 
ATOM     11  H   UNL     1       5.889  -6.710  23.466  0.00  0.00    +0.182 HD
ATOM     12  O   UNL     1       4.855  -3.830  22.597  0.00  0.00    -0.272 OA
BRANCH  10  13
ATOM     13  O   UNL     1       4.808  -6.339  21.726  0.00  0.00    -0.295 OA
ATOM     14  H   UNL     1       4.834  -5.476  21.259  0.00  0.00    +0.241 HD
ENDBRANCH  10  13
ENDBRANCH   1   9
BRANCH   8  15
ATOM     15  S   UNL     1       8.449  -4.981  24.199  0.00  0.00    +0.062 S 
ATOM     16  O   UNL     1       8.252  -5.626  22.918  0.00  0.00    -0.153 OA
ATOM     17  O   UNL     1       9.590  -5.305  25.029  0.00  0.00    -0.153 OA
BRANCH  15  18
ATOM     18  C   UNL     1       8.459  -3.246  23.855  0.00  0.00    +0.106 A 
ATOM     19  C   UNL     1       8.239  -2.802  22.546  0.00  0.00    +0.032 A 
ATOM     20  C   UNL     1       8.294  -1.432  22.253  0.00  0.00    +0.047 A 
ATOM     21  C   UNL     1       8.582  -0.509  23.264  0.00  0.00    +0.122 A 
ATOM     22  C   UNL     1       8.853  -0.972  24.556  0.00  0.00    +0.047 A 
ATOM     23  C   UNL     1       8.810  -2.336  24.854  0.00  0.00    +0.032 A 
BRANCH  21  24
ATOM     24  O   UNL     1       8.589   0.858  23.142  0.00  0.00    -0.480 OA
BRANCH  24  25
ATOM     25  C   UNL     1       9.024   1.595  24.276  0.00  0.00    +0.317 C 
BRANCH  25  26
ATOM     26  C   UNL     1      10.097   2.602  23.892  0.00  0.00    -0.062 C 
ATOM     27  C   UNL     1      11.018   3.465  23.563  0.00  0.00    -0.102 C 
ATOM     28  C   UNL     1      12.090   4.471  23.178  0.00  0.00    +0.106 C 
ENDBRANCH  25  26
ENDBRANCH  24  25
ENDBRANCH  21  24
ENDBRANCH  15  18
ENDBRANCH   8  15
TORSDOF 7
ENDMDL
MODEL 9
REMARK VINA RESULT:      -6.6      1.458      2.095
REMARK  Name = 
REMARK  10 active torsions:
REMARK  status: ('A' for Active; 'I' for Inactive)
REMARK    1  A    between atoms: C_2  and  C_24
REMARK    2  A    between atoms: N_3  and  S_10
REMARK    3  A    between atoms: C_7  and  C_8
REMARK    4  A    between atoms: C_7  and  C_9
REMARK    5  A    between atoms: S_10  and  C_13
REMARK    6  A    between atoms: C_16  and  O_17
REMARK    7  A    between atoms: O_17  and  C_18
REMARK    8  A    between atoms: C_18  and  C_19
REMARK    9  A    between atoms: C_20  and  C_21
REMARK   10  A    between atoms: N_26  and  O_27
REMARK                            x       y       z     vdW  Elec       q    Type
REMARK                         _______ _______ _______ _____ _____    ______ ____
ROOT
ATOM      1  C   UNL     1       7.107  -3.160  23.898  0.00  0.00    +0.183 C 
ATOM      2  C   UNL     1       6.030  -3.389  25.027  0.00  0.00    +0.037 C 
ATOM      3  C   UNL     1       6.521  -4.224  26.226  0.00  0.00    +0.024 C 
ATOM      4  C   UNL     1       4.769  -4.072  24.451  0.00  0.00    +0.024 C 
ATOM      5  S   UNL     1       5.409  -1.785  25.699  0.00  0.00    -0.151 S 
ATOM      6  C   UNL     1       7.000  -1.069  26.147  0.00  0.00    +0.087 C 
ATOM      7  C   UNL     1       7.878  -0.952  24.917  0.00  0.00    +0.121 C 
ATOM      8  N   UNL     1       8.318  -2.278  24.311  0.00  0.00    -0.163 NA
ENDROOT
BRANCH   1   9
ATOM      9  C   UNL     1       7.555  -4.531  23.381  0.00  0.00    +0.256 C 
ATOM     10  N   UNL     1       7.002  -4.914  22.183  0.00  0.00    -0.196 N 
ATOM     11  H   UNL     1       6.120  -4.545  21.840  0.00  0.00    +0.182 HD
ATOM     12  O   UNL     1       8.433  -5.203  23.923  0.00  0.00    -0.272 OA
BRANCH  10  13
ATOM     13  O   UNL     1       7.439  -6.145  21.647  0.00  0.00    -0.295 OA
ATOM     14  H   UNL     1       6.612  -6.674  21.612  0.00  0.00    +0.241 HD
ENDBRANCH  10  13
ENDBRANCH   1   9
BRANCH   8  15
ATOM     15  S   UNL     1       9.358  -1.851  22.926  0.00  0.00    +0.062 S 
ATOM     16  O   UNL     1       8.553  -1.975  21.729  0.00  0.00    -0.153 OA
ATOM     17  O   UNL     1      10.587  -2.599  23.078  0.00  0.00    -0.153 OA
BRANCH  15  18
ATOM     18  C   UNL     1       9.709  -0.124  23.079  0.00  0.00    +0.106 A 
ATOM     19  C   UNL     1       9.223   0.765  22.114  0.00  0.00    +0.032 A 
ATOM     20  C   UNL     1       9.538   2.130  22.199  0.00  0.00    +0.047 A 
ATOM     21  C   UNL     1      10.348   2.601  23.238  0.00  0.00    +0.122 A 
ATOM     22  C   UNL     1      10.871   1.691  24.163  0.00  0.00    +0.047 A 
ATOM     23  C   UNL     1      10.570   0.329  24.080  0.00  0.00    +0.032 A 
BRANCH  21  24
ATOM     24  O   UNL     1      10.669   3.910  23.491  0.00  0.00    -0.480 OA
BRANCH  24  25
ATOM     25  C   UNL     1       9.592   4.775  23.827  0.00  0.00    +0.317 C 
BRANCH  25  26
ATOM     26  C   UNL     1       8.684   4.136  24.866  0.00  0.00    -0.062 C 
ATOM     27  C   UNL     1       7.906   3.588  25.757  0.00  0.00    -0.102 C 
ATOM     28  C   UNL     1       6.999   2.949  26.796  0.00  0.00    +0.106 C 
ENDBRANCH  25  26
ENDBRANCH  24  25
ENDBRANCH  21  24
ENDBRANCH  15  18
ENDBRANCH   8  15
TORSDOF 7
ENDMDL
