MODEL 1
REMARK VINA RESULT:      -3.8      0.000      0.000
REMARK  Name = 
REMARK  1 active torsions:
REMARK  status: ('A' for Active; 'I' for Inactive)
REMARK    1  A    between atoms: C_2  and  CA_3
REMARK                            x       y       z     vdW  Elec       q    Type
REMARK                         _______ _______ _______ _____ _____    ______ ____
ROOT
ATOM      1  CA  UNL     1      10.310  -0.959  22.768  0.00  0.00    +0.136 C 
ATOM      2  N   UNL     1      10.439   0.015  23.820  0.00  0.00    -0.306 N 
ATOM      3  H   UNL     1      10.854  -0.135  24.733  0.00  0.00    +0.149 HD
ATOM      4  C   UNL     1      10.306   1.303  23.345  0.00  0.00    +0.214 C 
ATOM      5  O   UNL     1      10.522   2.310  23.994  0.00  0.00    -0.276 OA
ATOM      6  C   UNL     1       9.924   1.234  21.889  0.00  0.00    +0.098 C 
ATOM      7  C   UNL     1       9.499  -0.221  21.716  0.00  0.00    +0.039 C 
ENDROOT
BRANCH   1   9
ATOM      8  O   UNL     1      10.196  -3.080  23.922  0.00  0.00    -0.299 OA
ATOM      9  C   UNL     1       9.629  -2.224  23.249  0.00  0.00    +0.245 C 
ENDBRANCH   1   9
TORSDOF 1
ENDMDL
MODEL 2
REMARK VINA RESULT:      -3.7      0.890      3.522
REMARK  Name = 
REMARK  1 active torsions:
REMARK  status: ('A' for Active; 'I' for Inactive)
REMARK    1  A    between atoms: C_2  and  CA_3
REMARK                            x       y       z     vdW  Elec       q    Type
REMARK                         _______ _______ _______ _____ _____    ______ ____
ROOT
ATOM      1  CA  UNL     1       9.731   1.040  23.354  0.00  0.00    +0.136 C 
ATOM      2  N   UNL     1      10.382  -0.206  23.661  0.00  0.00    -0.306 N 
ATOM      3  H   UNL     1      10.669  -0.527  24.579  0.00  0.00    +0.149 HD
ATOM      4  C   UNL     1      10.231  -1.126  22.645  0.00  0.00    +0.214 C 
ATOM      5  O   UNL     1      10.552  -2.299  22.715  0.00  0.00    -0.276 OA
ATOM      6  C   UNL     1       9.549  -0.446  21.486  0.00  0.00    +0.098 C 
ATOM      7  C   UNL     1       9.677   1.033  21.836  0.00  0.00    +0.039 C 
ENDROOT
BRANCH   1   9
ATOM      8  O   UNL     1      10.966   3.113  23.199  0.00  0.00    -0.299 OA
ATOM      9  C   UNL     1      10.494   2.228  23.906  0.00  0.00    +0.245 C 
ENDBRANCH   1   9
TORSDOF 1
ENDMDL
MODEL 3
REMARK VINA RESULT:      -3.6      2.416      4.426
REMARK  Name = 
REMARK  1 active torsions:
REMARK  status: ('A' for Active; 'I' for Inactive)
REMARK    1  A    between atoms: C_2  and  CA_3
REMARK                            x       y       z     vdW  Elec       q    Type
REMARK                         _______ _______ _______ _____ _____    ______ ____
ROOT
ATOM      1  CA  UNL     1      10.541   2.683  23.151  0.00  0.00    +0.136 C 
ATOM      2  N   UNL     1       9.829   2.213  21.992  0.00  0.00    -0.306 N 
ATOM      3  H   UNL     1       9.638   2.740  21.147  0.00  0.00    +0.149 HD
ATOM      4  C   UNL     1       9.761   0.837  21.956  0.00  0.00    +0.214 C 
ATOM      5  O   UNL     1       9.351   0.185  21.012  0.00  0.00    -0.276 OA
ATOM      6  C   UNL     1      10.343   0.298  23.237  0.00  0.00    +0.098 C 
ATOM      7  C   UNL     1      10.393   1.533  24.133  0.00  0.00    +0.039 C 
ENDROOT
BRANCH   1   9
ATOM      8  O   UNL     1      10.591   5.037  23.699  0.00  0.00    -0.299 OA
ATOM      9  C   UNL     1       9.966   3.981  23.681  0.00  0.00    +0.245 C 
ENDBRANCH   1   9
TORSDOF 1
ENDMDL
MODEL 4
REMARK VINA RESULT:      -3.6      5.531      6.580
REMARK  Name = 
REMARK  1 active torsions:
REMARK  status: ('A' for Active; 'I' for Inactive)
REMARK    1  A    between atoms: C_2  and  CA_3
REMARK                            x       y       z     vdW  Elec       q    Type
REMARK                         _______ _______ _______ _____ _____    ______ ____
ROOT
ATOM      1  CA  UNL     1       7.456  -4.801  23.190  0.00  0.00    +0.136 C 
ATOM      2  N   UNL     1       6.081  -4.665  23.598  0.00  0.00    -0.306 N 
ATOM      3  H   UNL     1       5.726  -4.053  24.324  0.00  0.00    +0.149 HD
ATOM      4  C   UNL     1       5.214  -5.151  22.643  0.00  0.00    +0.214 C 
ATOM      5  O   UNL     1       4.004  -5.019  22.671  0.00  0.00    -0.276 OA
ATOM      6  C   UNL     1       6.025  -5.797  21.549  0.00  0.00    +0.098 C 
ATOM      7  C   UNL     1       7.404  -5.940  22.187  0.00  0.00    +0.039 C 
ENDROOT
BRANCH   1   9
ATOM      8  O   UNL     1       9.499  -4.635  24.471  0.00  0.00    -0.299 OA
ATOM      9  C   UNL     1       8.367  -5.097  24.364  0.00  0.00    +0.245 C 
ENDBRANCH   1   9
TORSDOF 1
ENDMDL
MODEL 5
REMARK VINA RESULT:      -3.6      1.451      1.910
REMARK  Name = 
REMARK  1 active torsions:
REMARK  status: ('A' for Active; 'I' for Inactive)
REMARK    1  A    between atoms: C_2  and  CA_3
REMARK                            x       y       z     vdW  Elec       q    Type
REMARK                         _______ _______ _______ _____ _____    ______ ____
ROOT
ATOM      1  CA  UNL     1       9.279  -0.656  24.192  0.00  0.00    +0.136 C 
ATOM      2  N   UNL     1       9.474  -0.183  22.846  0.00  0.00    -0.306 N 
ATOM      3  H   UNL     1       9.016  -0.534  22.011  0.00  0.00    +0.149 HD
ATOM      4  C   UNL     1      10.050   1.069  22.822  0.00  0.00    +0.214 C 
ATOM      5  O   UNL     1      10.180   1.755  21.824  0.00  0.00    -0.276 OA
ATOM      6  C   UNL     1      10.412   1.453  24.233  0.00  0.00    +0.098 C 
ATOM      7  C   UNL     1      10.314   0.128  24.982  0.00  0.00    +0.039 C 
ENDROOT
BRANCH   1   9
ATOM      8  O   UNL     1      10.270  -2.781  23.603  0.00  0.00    -0.299 OA
ATOM      9  C   UNL     1       9.476  -2.155  24.298  0.00  0.00    +0.245 C 
ENDBRANCH   1   9
TORSDOF 1
ENDMDL
MODEL 6
REMARK VINA RESULT:      -3.5      1.827      3.628
REMARK  Name = 
REMARK  1 active torsions:
REMARK  status: ('A' for Active; 'I' for Inactive)
REMARK    1  A    between atoms: C_2  and  CA_3
REMARK                            x       y       z     vdW  Elec       q    Type
REMARK                         _______ _______ _______ _____ _____    ______ ____
ROOT
ATOM      1  CA  UNL     1      10.204  -0.022  23.241  0.00  0.00    +0.136 C 
ATOM      2  N   UNL     1      10.330  -1.426  22.947  0.00  0.00    -0.306 N 
ATOM      3  H   UNL     1      10.943  -1.845  22.256  0.00  0.00    +0.149 HD
ATOM      4  C   UNL     1       9.829  -2.208  23.966  0.00  0.00    +0.214 C 
ATOM      5  O   UNL     1       9.950  -3.418  24.036  0.00  0.00    -0.276 OA
ATOM      6  C   UNL     1       9.184  -1.305  24.985  0.00  0.00    +0.098 C 
ATOM      7  C   UNL     1       9.058   0.018  24.237  0.00  0.00    +0.039 C 
ENDROOT
BRANCH   1   9
ATOM      8  O   UNL     1       9.156   0.429  21.109  0.00  0.00    -0.299 OA
ATOM      9  C   UNL     1       9.924   0.794  21.995  0.00  0.00    +0.245 C 
ENDBRANCH   1   9
TORSDOF 1
ENDMDL
MODEL 7
REMARK VINA RESULT:      -3.4      4.249      6.287
REMARK  Name = 
REMARK  1 active torsions:
REMARK  status: ('A' for Active; 'I' for Inactive)
REMARK    1  A    between atoms: C_2  and  CA_3
REMARK                            x       y       z     vdW  Elec       q    Type
REMARK                         _______ _______ _______ _____ _____    ______ ____
ROOT
ATOM      1  CA  UNL     1       7.823  -3.501  25.442  0.00  0.00    +0.136 C 
ATOM      2  N   UNL     1       8.187  -4.178  26.660  0.00  0.00    -0.306 N 
ATOM      3  H   UNL     1       8.754  -3.803  27.412  0.00  0.00    +0.149 HD
ATOM      4  C   UNL     1       7.365  -5.256  26.910  0.00  0.00    +0.214 C 
ATOM      5  O   UNL     1       7.360  -5.902  27.943  0.00  0.00    -0.276 OA
ATOM      6  C   UNL     1       6.447  -5.439  25.729  0.00  0.00    +0.098 C 
ATOM      7  C   UNL     1       7.104  -4.581  24.652  0.00  0.00    +0.039 C 
ENDROOT
BRANCH   1   9
ATOM      8  O   UNL     1       9.945  -3.664  24.295  0.00  0.00    -0.299 OA
ATOM      9  C   UNL     1       9.036  -2.955  24.716  0.00  0.00    +0.245 C 
ENDBRANCH   1   9
TORSDOF 1
ENDMDL
MODEL 8
REMARK VINA RESULT:      -3.4      5.437      6.287
REMARK  Name = 
REMARK  1 active torsions:
REMARK  status: ('A' for Active; 'I' for Inactive)
REMARK    1  A    between atoms: C_2  and  CA_3
REMARK                            x       y       z     vdW  Elec       q    Type
REMARK                         _______ _______ _______ _____ _____    ______ ____
ROOT
ATOM      1  CA  UNL     1       8.206  -4.970  24.315  0.00  0.00    +0.136 C 
ATOM      2  N   UNL     1       7.313  -5.366  25.373  0.00  0.00    -0.306 N 
ATOM      3  H   UNL     1       6.462  -5.909  25.273  0.00  0.00    +0.149 HD
ATOM      4  C   UNL     1       7.918  -5.284  26.610  0.00  0.00    +0.214 C 
ATOM      5  O   UNL     1       7.437  -5.702  27.648  0.00  0.00    -0.276 OA
ATOM      6  C   UNL     1       9.279  -4.662  26.433  0.00  0.00    +0.098 C 
ATOM      7  C   UNL     1       9.204  -4.073  25.027  0.00  0.00    +0.039 C 
ENDROOT
BRANCH   1   9
ATOM      8  O   UNL     1       7.253  -4.769  22.102  0.00  0.00    -0.299 OA
ATOM      9  C   UNL     1       7.474  -4.257  23.196  0.00  0.00    +0.245 C 
ENDBRANCH   1   9
TORSDOF 1
ENDMDL
MODEL 9
REMARK VINA RESULT:      -3.4      2.781      3.421
REMARK  Name = 
REMARK  1 active torsions:
REMARK  status: ('A' for Active; 'I' for Inactive)
REMARK    1  A    between atoms: C_2  and  CA_3
REMARK                            x       y       z     vdW  Elec       q    Type
REMARK                         _______ _______ _______ _____ _____    ______ ____
ROOT
ATOM      1  CA  UNL     1       8.304  -3.146  23.690  0.00  0.00    +0.136 C 
ATOM      2  N   UNL     1       8.262  -2.602  22.358  0.00  0.00    -0.306 N 
ATOM      3  H   UNL     1       7.493  -2.674  21.701  0.00  0.00    +0.149 HD
ATOM      4  C   UNL     1       9.214  -1.621  22.175  0.00  0.00    +0.214 C 
ATOM      5  O   UNL     1       9.291  -0.901  21.197  0.00  0.00    -0.276 OA
ATOM      6  C   UNL     1      10.074  -1.558  23.411  0.00  0.00    +0.098 C 
ATOM      7  C   UNL     1       9.728  -2.857  24.133  0.00  0.00    +0.039 C 
ENDROOT
BRANCH   1   9
ATOM      8  O   UNL     1       8.806  -5.496  23.948  0.00  0.00    -0.299 OA
ATOM      9  C   UNL     1       7.975  -4.625  23.708  0.00  0.00    +0.245 C 
ENDBRANCH   1   9
TORSDOF 1
ENDMDL
