MODEL 1
REMARK VINA RESULT:      -4.8      0.000      0.000
REMARK  Name = 
REMARK  5 active torsions:
REMARK  status: ('A' for Active; 'I' for Inactive)
REMARK    1  A    between atoms: O_1  and  C_2
REMARK    2  A    between atoms: C_2  and  C_3
REMARK    3  A    between atoms: C_7  and  O_9
REMARK    4  A    between atoms: C_10  and  O_12
REMARK    5  A    between atoms: C_13  and  O_15
REMARK                            x       y       z     vdW  Elec       q    Type
REMARK                         _______ _______ _______ _____ _____    ______ ____
ROOT
ATOM      1  C   UNK     1       9.585   1.939  23.684  0.00  0.00    +0.111 C 
ATOM      2  C   UNK     1       9.944   1.269  22.339  0.00  0.00    +0.165 C 
ATOM      3  C   UNK     1       9.547  -0.217  22.370  0.00  0.00    +0.174 C 
ATOM      4  C   UNK     1      10.149  -0.923  23.590  0.00  0.00    +0.159 C 
ATOM      5  C   UNK     1       9.800  -0.174  24.882  0.00  0.00    +0.115 C 
ATOM      6  N   UNK     1      10.183   1.238  24.844  0.00  0.00    -0.306 NA
ATOM      7  H   UNK     1       9.857   1.688  25.701  0.00  0.00    +0.122 HD
ENDROOT
BRANCH   2   8
ATOM      8  O   UNK     1       9.274   1.956  21.273  0.00  0.00    -0.388 OA
ATOM      9  H   UNK     1       8.989   2.828  21.595  0.00  0.00    +0.210 HD
ENDBRANCH   2   8
BRANCH   3  10
ATOM     10  O   UNK     1       9.966  -0.884  21.172  0.00  0.00    -0.387 OA
ATOM     11  H   UNK     1      10.761  -0.404  20.851  0.00  0.00    +0.210 HD
ENDBRANCH   3  10
BRANCH   4  12
ATOM     12  O   UNK     1       9.656  -2.270  23.629  0.00  0.00    -0.388 OA
ATOM     13  H   UNK     1       9.216  -2.413  24.486  0.00  0.00    +0.210 HD
ENDBRANCH   4  12
BRANCH   1  14
ATOM     14  C   UNK     1      10.010   3.422  23.682  0.00  0.00    +0.177 C 
BRANCH  14  15
ATOM     15  O   UNK     1      11.141   3.601  22.826  0.00  0.00    -0.393 OA
ATOM     16  H   UNK     1      10.933   3.130  22.000  0.00  0.00    +0.209 HD
ENDBRANCH  14  15
ENDBRANCH   1  14
TORSDOF 5
ENDMDL
MODEL 2
REMARK VINA RESULT:      -4.6      0.976      3.742
REMARK  Name = 
REMARK  5 active torsions:
REMARK  status: ('A' for Active; 'I' for Inactive)
REMARK    1  A    between atoms: O_1  and  C_2
REMARK    2  A    between atoms: C_2  and  C_3
REMARK    3  A    between atoms: C_7  and  O_9
REMARK    4  A    between atoms: C_10  and  O_12
REMARK    5  A    between atoms: C_13  and  O_15
REMARK                            x       y       z     vdW  Elec       q    Type
REMARK                         _______ _______ _______ _____ _____    ______ ____
ROOT
ATOM      1  C   UNK     1      10.292  -0.917  23.339  0.00  0.00    +0.111 C 
ATOM      2  C   UNK     1       9.410  -0.203  22.291  0.00  0.00    +0.165 C 
ATOM      3  C   UNK     1       9.936   1.220  22.041  0.00  0.00    +0.174 C 
ATOM      4  C   UNK     1      10.076   1.994  23.357  0.00  0.00    +0.159 C 
ATOM      5  C   UNK     1      10.917   1.204  24.368  0.00  0.00    +0.115 C 
ATOM      6  N   UNK     1      10.406  -0.148  24.601  0.00  0.00    -0.306 NA
ATOM      7  H   UNK     1      11.052  -0.637  25.224  0.00  0.00    +0.122 HD
ENDROOT
BRANCH   2   8
ATOM      8  O   UNK     1       9.404  -0.968  21.076  0.00  0.00    -0.388 OA
ATOM      9  H   UNK     1      10.323  -1.087  20.780  0.00  0.00    +0.210 HD
ENDBRANCH   2   8
BRANCH   3  10
ATOM     10  O   UNK     1       9.071   1.938  21.150  0.00  0.00    -0.387 OA
ATOM     11  H   UNK     1       9.645   2.552  20.643  0.00  0.00    +0.210 HD
ENDBRANCH   3  10
BRANCH   4  12
ATOM     12  O   UNK     1      10.675   3.268  23.078  0.00  0.00    -0.388 OA
ATOM     13  H   UNK     1      11.094   3.597  23.893  0.00  0.00    +0.210 HD
ENDBRANCH   4  12
BRANCH   1  14
ATOM     14  C   UNK     1       9.755  -2.333  23.627  0.00  0.00    +0.177 C 
BRANCH  14  15
ATOM     15  O   UNK     1       8.356  -2.390  23.340  0.00  0.00    -0.393 OA
ATOM     16  H   UNK     1       7.914  -2.592  24.182  0.00  0.00    +0.209 HD
ENDBRANCH  14  15
ENDBRANCH   1  14
TORSDOF 5
ENDMDL
MODEL 3
REMARK VINA RESULT:      -4.5      1.520      3.601
REMARK  Name = 
REMARK  5 active torsions:
REMARK  status: ('A' for Active; 'I' for Inactive)
REMARK    1  A    between atoms: O_1  and  C_2
REMARK    2  A    between atoms: C_2  and  C_3
REMARK    3  A    between atoms: C_7  and  O_9
REMARK    4  A    between atoms: C_10  and  O_12
REMARK    5  A    between atoms: C_13  and  O_15
REMARK                            x       y       z     vdW  Elec       q    Type
REMARK                         _______ _______ _______ _____ _____    ______ ____
ROOT
ATOM      1  C   UNK     1       9.669  -0.219  25.056  0.00  0.00    +0.111 C 
ATOM      2  C   UNK     1       9.417  -0.869  23.678  0.00  0.00    +0.165 C 
ATOM      3  C   UNK     1      10.064  -0.022  22.570  0.00  0.00    +0.174 C 
ATOM      4  C   UNK     1       9.605   1.439  22.654  0.00  0.00    +0.159 C 
ATOM      5  C   UNK     1       9.835   2.002  24.062  0.00  0.00    +0.115 C 
ATOM      6  N   UNK     1       9.213   1.191  25.109  0.00  0.00    -0.306 NA
ATOM      7  H   UNK     1       9.467   1.582  26.018  0.00  0.00    +0.122 HD
ENDROOT
BRANCH   2   8
ATOM      8  O   UNK     1       9.947  -2.203  23.679  0.00  0.00    -0.388 OA
ATOM      9  H   UNK     1      10.669  -2.250  23.029  0.00  0.00    +0.210 HD
ENDBRANCH   2   8
BRANCH   3  10
ATOM     10  O   UNK     1       9.753  -0.550  21.273  0.00  0.00    -0.387 OA
ATOM     11  H   UNK     1       9.673  -1.523  21.382  0.00  0.00    +0.210 HD
ENDBRANCH   3  10
BRANCH   4  12
ATOM     12  O   UNK     1      10.323   2.202  21.673  0.00  0.00    -0.388 OA
ATOM     13  H   UNK     1       9.918   2.042  20.802  0.00  0.00    +0.210 HD
ENDBRANCH   4  12
BRANCH   1  14
ATOM     14  C   UNK     1       8.995  -1.038  26.175  0.00  0.00    +0.177 C 
BRANCH  14  15
ATOM     15  O   UNK     1       9.119  -0.349  27.422  0.00  0.00    -0.393 OA
ATOM     16  H   UNK     1       9.794  -0.830  27.932  0.00  0.00    +0.209 HD
ENDBRANCH  14  15
ENDBRANCH   1  14
TORSDOF 5
ENDMDL
MODEL 4
REMARK VINA RESULT:      -4.4      1.984      4.441
REMARK  Name = 
REMARK  5 active torsions:
REMARK  status: ('A' for Active; 'I' for Inactive)
REMARK    1  A    between atoms: O_1  and  C_2
REMARK    2  A    between atoms: C_2  and  C_3
REMARK    3  A    between atoms: C_7  and  O_9
REMARK    4  A    between atoms: C_10  and  O_12
REMARK    5  A    between atoms: C_13  and  O_15
REMARK                            x       y       z     vdW  Elec       q    Type
REMARK                         _______ _______ _______ _____ _____    ______ ____
ROOT
ATOM      1  C   UNK     1       9.460  -1.455  23.358  0.00  0.00    +0.111 C 
ATOM      2  C   UNK     1      10.078  -0.279  24.145  0.00  0.00    +0.165 C 
ATOM      3  C   UNK     1       9.663   1.058  23.507  0.00  0.00    +0.174 C 
ATOM      4  C   UNK     1       9.992   1.079  22.010  0.00  0.00    +0.159 C 
ATOM      5  C   UNK     1       9.395  -0.144  21.302  0.00  0.00    +0.115 C 
ATOM      6  N   UNK     1       9.797  -1.410  21.915  0.00  0.00    -0.306 NA
ATOM      7  H   UNK     1       9.308  -2.172  21.442  0.00  0.00    +0.122 HD
ENDROOT
BRANCH   2   8
ATOM      8  O   UNK     1       9.651  -0.347  25.514  0.00  0.00    -0.388 OA
ATOM      9  H   UNK     1      10.328   0.072  26.072  0.00  0.00    +0.210 HD
ENDBRANCH   2   8
BRANCH   3  10
ATOM     10  O   UNK     1      10.311   2.160  24.158  0.00  0.00    -0.387 OA
ATOM     11  H   UNK     1      10.564   2.791  23.449  0.00  0.00    +0.210 HD
ENDBRANCH   3  10
BRANCH   4  12
ATOM     12  O   UNK     1       9.484   2.297  21.446  0.00  0.00    -0.388 OA
ATOM     13  H   UNK     1       9.971   2.483  20.624  0.00  0.00    +0.210 HD
ENDBRANCH   4  12
BRANCH   1  14
ATOM     14  C   UNK     1       9.897  -2.804  23.964  0.00  0.00    +0.177 C 
BRANCH  14  15
ATOM     15  O   UNK     1       9.011  -3.168  25.026  0.00  0.00    -0.393 OA
ATOM     16  H   UNK     1       8.480  -3.912  24.693  0.00  0.00    +0.209 HD
ENDBRANCH  14  15
ENDBRANCH   1  14
TORSDOF 5
ENDMDL
MODEL 5
REMARK VINA RESULT:      -4.2      1.974      2.667
REMARK  Name = 
REMARK  5 active torsions:
REMARK  status: ('A' for Active; 'I' for Inactive)
REMARK    1  A    between atoms: O_1  and  C_2
REMARK    2  A    between atoms: C_2  and  C_3
REMARK    3  A    between atoms: C_7  and  O_9
REMARK    4  A    between atoms: C_10  and  O_12
REMARK    5  A    between atoms: C_13  and  O_15
REMARK                            x       y       z     vdW  Elec       q    Type
REMARK                         _______ _______ _______ _____ _____    ______ ____
ROOT
ATOM      1  C   UNK     1      10.066   0.755  22.801  0.00  0.00    +0.111 C 
ATOM      2  C   UNK     1       9.318   0.462  24.120  0.00  0.00    +0.165 C 
ATOM      3  C   UNK     1       9.719  -0.924  24.655  0.00  0.00    +0.174 C 
ATOM      4  C   UNK     1       9.525  -2.004  23.585  0.00  0.00    +0.159 C 
ATOM      5  C   UNK     1      10.247  -1.622  22.286  0.00  0.00    +0.115 C 
ATOM      6  N   UNK     1       9.858  -0.304  21.785  0.00  0.00    -0.306 NA
ATOM      7  H   UNK     1      10.427  -0.086  20.965  0.00  0.00    +0.122 HD
ENDROOT
BRANCH   2   8
ATOM      8  O   UNK     1       9.624   1.487  25.077  0.00  0.00    -0.388 OA
ATOM      9  H   UNK     1       9.953   1.066  25.889  0.00  0.00    +0.210 HD
ENDBRANCH   2   8
BRANCH   3  10
ATOM     10  O   UNK     1       8.958  -1.262  25.823  0.00  0.00    -0.387 OA
ATOM     11  H   UNK     1       8.740  -0.413  26.267  0.00  0.00    +0.210 HD
ENDBRANCH   3  10
BRANCH   4  12
ATOM     12  O   UNK     1      10.018  -3.251  24.098  0.00  0.00    -0.388 OA
ATOM     13  H   UNK     1       9.617  -3.404  24.972  0.00  0.00    +0.210 HD
ENDBRANCH   4  12
BRANCH   1  14
ATOM     14  C   UNK     1       9.648   2.126  22.233  0.00  0.00    +0.177 C 
BRANCH  14  15
ATOM     15  O   UNK     1      10.539   3.139  22.705  0.00  0.00    -0.393 OA
ATOM     16  H   UNK     1      10.399   3.913  22.133  0.00  0.00    +0.209 HD
ENDBRANCH  14  15
ENDBRANCH   1  14
TORSDOF 5
ENDMDL
MODEL 6
REMARK VINA RESULT:      -4.1      1.740      2.337
REMARK  Name = 
REMARK  5 active torsions:
REMARK  status: ('A' for Active; 'I' for Inactive)
REMARK    1  A    between atoms: O_1  and  C_2
REMARK    2  A    between atoms: C_2  and  C_3
REMARK    3  A    between atoms: C_7  and  O_9
REMARK    4  A    between atoms: C_10  and  O_12
REMARK    5  A    between atoms: C_13  and  O_15
REMARK                            x       y       z     vdW  Elec       q    Type
REMARK                         _______ _______ _______ _____ _____    ______ ____
ROOT
ATOM      1  C   UNK     1       8.293   0.483  22.531  0.00  0.00    +0.111 C 
ATOM      2  C   UNK     1       9.482  -0.495  22.408  0.00  0.00    +0.165 C 
ATOM      3  C   UNK     1       9.285  -1.686  23.360  0.00  0.00    +0.174 C 
ATOM      4  C   UNK     1       9.027  -1.208  24.794  0.00  0.00    +0.159 C 
ATOM      5  C   UNK     1       7.871  -0.200  24.834  0.00  0.00    +0.115 C 
ATOM      6  N   UNK     1       8.069   0.930  23.926  0.00  0.00    -0.306 NA
ATOM      7  H   UNK     1       7.234   1.518  23.951  0.00  0.00    +0.122 HD
ENDROOT
BRANCH   2   8
ATOM      8  O   UNK     1       9.592  -0.939  21.048  0.00  0.00    -0.388 OA
ATOM      9  H   UNK     1       8.786  -0.679  20.570  0.00  0.00    +0.210 HD
ENDBRANCH   2   8
BRANCH   3  10
ATOM     10  O   UNK     1      10.427  -2.553  23.340  0.00  0.00    -0.387 OA
ATOM     11  H   UNK     1      11.183  -2.024  23.676  0.00  0.00    +0.210 HD
ENDBRANCH   3  10
BRANCH   4  12
ATOM     12  O   UNK     1       8.739  -2.351  25.613  0.00  0.00    -0.388 OA
ATOM     13  H   UNK     1       8.433  -3.074  25.036  0.00  0.00    +0.210 HD
ENDBRANCH   4  12
BRANCH   1  14
ATOM     14  C   UNK     1       8.493   1.702  21.608  0.00  0.00    +0.177 C 
BRANCH  14  15
ATOM     15  O   UNK     1       9.887   1.998  21.492  0.00  0.00    -0.393 OA
ATOM     16  H   UNK     1      10.286   1.245  21.022  0.00  0.00    +0.209 HD
ENDBRANCH  14  15
ENDBRANCH   1  14
TORSDOF 5
ENDMDL
MODEL 7
REMARK VINA RESULT:      -4.1      6.708      8.123
REMARK  Name = 
REMARK  5 active torsions:
REMARK  status: ('A' for Active; 'I' for Inactive)
REMARK    1  A    between atoms: O_1  and  C_2
REMARK    2  A    between atoms: C_2  and  C_3
REMARK    3  A    between atoms: C_7  and  O_9
REMARK    4  A    between atoms: C_10  and  O_12
REMARK    5  A    between atoms: C_13  and  O_15
REMARK                            x       y       z     vdW  Elec       q    Type
REMARK                         _______ _______ _______ _____ _____    ______ ____
ROOT
ATOM      1  C   UNK     1       6.244  -4.969  24.409  0.00  0.00    +0.111 C 
ATOM      2  C   UNK     1       6.222  -5.738  25.748  0.00  0.00    +0.165 C 
ATOM      3  C   UNK     1       7.397  -5.288  26.632  0.00  0.00    +0.174 C 
ATOM      4  C   UNK     1       8.728  -5.403  25.879  0.00  0.00    +0.159 C 
ATOM      5  C   UNK     1       8.660  -4.665  24.536  0.00  0.00    +0.115 C 
ATOM      6  N   UNK     1       7.540  -5.101  23.702  0.00  0.00    -0.306 NA
ATOM      7  H   UNK     1       7.514  -4.520  22.861  0.00  0.00    +0.122 HD
ENDROOT
BRANCH   2   8
ATOM      8  O   UNK     1       4.968  -5.506  26.407  0.00  0.00    -0.388 OA
ATOM      9  H   UNK     1       4.347  -6.208  26.148  0.00  0.00    +0.210 HD
ENDBRANCH   2   8
BRANCH   3  10
ATOM     10  O   UNK     1       7.458  -6.064  27.837  0.00  0.00    -0.387 OA
ATOM     11  H   UNK     1       6.979  -6.901  27.653  0.00  0.00    +0.210 HD
ENDBRANCH   3  10
BRANCH   4  12
ATOM     12  O   UNK     1       9.771  -4.867  26.707  0.00  0.00    -0.388 OA
ATOM     13  H   UNK     1      10.571  -4.757  26.163  0.00  0.00    +0.210 HD
ENDBRANCH   4  12
BRANCH   1  14
ATOM     14  C   UNK     1       5.091  -5.435  23.496  0.00  0.00    +0.177 C 
BRANCH  14  15
ATOM     15  O   UNK     1       4.872  -6.837  23.669  0.00  0.00    -0.393 OA
ATOM     16  H   UNK     1       5.752  -7.252  23.670  0.00  0.00    +0.209 HD
ENDBRANCH  14  15
ENDBRANCH   1  14
TORSDOF 5
ENDMDL
MODEL 8
REMARK VINA RESULT:      -4.0      6.495      7.531
REMARK  Name = 
REMARK  5 active torsions:
REMARK  status: ('A' for Active; 'I' for Inactive)
REMARK    1  A    between atoms: O_1  and  C_2
REMARK    2  A    between atoms: C_2  and  C_3
REMARK    3  A    between atoms: C_7  and  O_9
REMARK    4  A    between atoms: C_10  and  O_12
REMARK    5  A    between atoms: C_13  and  O_15
REMARK                            x       y       z     vdW  Elec       q    Type
REMARK                         _______ _______ _______ _____ _____    ______ ____
ROOT
ATOM      1  C   UNK     1       7.134  -4.847  25.453  0.00  0.00    +0.111 C 
ATOM      2  C   UNK     1       7.803  -5.143  24.093  0.00  0.00    +0.165 C 
ATOM      3  C   UNK     1       6.746  -5.140  22.975  0.00  0.00    +0.174 C 
ATOM      4  C   UNK     1       5.587  -6.087  23.311  0.00  0.00    +0.159 C 
ATOM      5  C   UNK     1       5.009  -5.771  24.695  0.00  0.00    +0.115 C 
ATOM      6  N   UNK     1       6.021  -5.779  25.752  0.00  0.00    -0.306 NA
ATOM      7  H   UNK     1       5.581  -5.491  26.628  0.00  0.00    +0.122 HD
ENDROOT
BRANCH   2   8
ATOM      8  O   UNK     1       8.819  -4.161  23.839  0.00  0.00    -0.388 OA
ATOM      9  H   UNK     1       9.637  -4.439  24.285  0.00  0.00    +0.210 HD
ENDBRANCH   2   8
BRANCH   3  10
ATOM     10  O   UNK     1       7.327  -5.517  21.719  0.00  0.00    -0.387 OA
ATOM     11  H   UNK     1       8.045  -6.155  21.926  0.00  0.00    +0.210 HD
ENDBRANCH   3  10
BRANCH   4  12
ATOM     12  O   UNK     1       4.583  -5.959  22.294  0.00  0.00    -0.388 OA
ATOM     13  H   UNK     1       4.777  -5.163  21.767  0.00  0.00    +0.210 HD
ENDBRANCH   4  12
BRANCH   1  14
ATOM     14  C   UNK     1       8.176  -4.882  26.590  0.00  0.00    +0.177 C 
BRANCH  14  15
ATOM     15  O   UNK     1       7.833  -5.901  27.531  0.00  0.00    -0.393 OA
ATOM     16  H   UNK     1       7.188  -6.478  27.085  0.00  0.00    +0.209 HD
ENDBRANCH  14  15
ENDBRANCH   1  14
TORSDOF 5
ENDMDL
MODEL 9
REMARK VINA RESULT:      -4.0      2.204      4.273
REMARK  Name = 
REMARK  5 active torsions:
REMARK  status: ('A' for Active; 'I' for Inactive)
REMARK    1  A    between atoms: O_1  and  C_2
REMARK    2  A    between atoms: C_2  and  C_3
REMARK    3  A    between atoms: C_7  and  O_9
REMARK    4  A    between atoms: C_10  and  O_12
REMARK    5  A    between atoms: C_13  and  O_15
REMARK                            x       y       z     vdW  Elec       q    Type
REMARK                         _______ _______ _______ _____ _____    ______ ____
ROOT
ATOM      1  C   UNK     1       8.047  -0.278  23.313  0.00  0.00    +0.111 C 
ATOM      2  C   UNK     1       9.251   0.230  22.490  0.00  0.00    +0.165 C 
ATOM      3  C   UNK     1       9.229   1.766  22.419  0.00  0.00    +0.174 C 
ATOM      4  C   UNK     1       7.876   2.275  21.909  0.00  0.00    +0.159 C 
ATOM      5  C   UNK     1       6.725   1.689  22.736  0.00  0.00    +0.115 C 
ATOM      6  N   UNK     1       6.753   0.227  22.795  0.00  0.00    -0.306 NA
ATOM      7  H   UNK     1       6.007  -0.088  23.417  0.00  0.00    +0.122 HD
ENDROOT
BRANCH   2   8
ATOM      8  O   UNK     1      10.468  -0.238  23.090  0.00  0.00    -0.388 OA
ATOM      9  H   UNK     1      10.242  -0.829  23.829  0.00  0.00    +0.210 HD
ENDBRANCH   2   8
BRANCH   3  10
ATOM     10  O   UNK     1      10.278   2.256  21.572  0.00  0.00    -0.387 OA
ATOM     11  H   UNK     1      10.943   2.669  22.164  0.00  0.00    +0.210 HD
ENDBRANCH   3  10
BRANCH   4  12
ATOM     12  O   UNK     1       7.873   3.709  21.970  0.00  0.00    -0.388 OA
ATOM     13  H   UNK     1       8.248   3.982  22.827  0.00  0.00    +0.210 HD
ENDBRANCH   4  12
BRANCH   1  14
ATOM     14  C   UNK     1       8.034  -1.819  23.363  0.00  0.00    +0.177 C 
BRANCH  14  15
ATOM     15  O   UNK     1       8.877  -2.277  24.423  0.00  0.00    -0.393 OA
ATOM     16  H   UNK     1       9.598  -2.775  24.000  0.00  0.00    +0.209 HD
ENDBRANCH  14  15
ENDBRANCH   1  14
TORSDOF 5
ENDMDL
