MODEL 1
REMARK VINA RESULT:      -5.9      0.000      0.000
REMARK  Name = 
REMARK  35 active torsions:
REMARK  status: ('A' for Active; 'I' for Inactive)
REMARK    1  A    between atoms: C_1  and  C_2
REMARK    2  A    between atoms: C_2  and  C_3
REMARK    3  A    between atoms: C_2  and  C_4
REMARK    4  A    between atoms: C_2  and  C_40
REMARK    5  A    between atoms: C_4  and  O_5
REMARK    6  A    between atoms: O_5  and  P_6
REMARK    7  A    between atoms: P_6  and  O_7
REMARK    8  A    between atoms: P_6  and  O_9
REMARK    9  A    between atoms: O_9  and  P_10
REMARK   10  A    between atoms: P_10  and  O_11
REMARK   11  A    between atoms: P_10  and  O_13
REMARK   12  A    between atoms: O_13  and  C_14
REMARK   13  A    between atoms: C_14  and  C_15
REMARK   14  A    between atoms: C_18  and  N_30
REMARK   15  A    between atoms: C_20  and  O_22
REMARK   16  A    between atoms: C_23  and  O_25
REMARK   17  A    between atoms: O_25  and  P_26
REMARK   18  A    between atoms: P_26  and  O_27
REMARK   19  A    between atoms: P_26  and  O_28
REMARK   20  A    between atoms: C_40  and  O_42
REMARK   21  A    between atoms: C_40  and  C_43
REMARK   22  A    between atoms: N_45  and  C_46
REMARK   23  A    between atoms: C_46  and  C_47
REMARK   24  A    between atoms: C_47  and  C_48
REMARK   25  A    between atoms: N_50  and  C_51
REMARK   26  A    between atoms: C_51  and  C_52
REMARK   27  A    between atoms: C_52  and  S_53
REMARK   28  A    between atoms: S_53  and  C_54
REMARK   29  A    between atoms: C_54  and  C_55
REMARK   30  A    between atoms: C_55  and  C_56
REMARK   31  A    between atoms: C_56  and  C_57
REMARK   32  A    between atoms: C_57  and  C_58
REMARK   33  A    between atoms: N_60  and  C_61
REMARK   34  A    between atoms: C_61  and  C_62
REMARK   35  A    between atoms: C_62  and  C_63
REMARK                            x       y       z     vdW  Elec       q    Type
REMARK                         _______ _______ _______ _____ _____    ______ ____
ROOT
ATOM      1  C   UNL     1       5.348  -3.625  23.295  0.00  0.00    +0.016 C 
ATOM      2  C   UNL     1       4.763  -5.075  23.313  0.00  0.00    +0.024 C 
ATOM      3  C   UNL     1       5.623  -5.637  22.104  0.00  0.00    +0.016 C 
ENDROOT
BRANCH   2   4
ATOM      4  C   UNL     1       3.091  -4.920  23.506  0.00  0.00    +0.208 C 
BRANCH   4   5
ATOM      5  C   UNL     1       1.992  -4.802  24.763  0.00  0.00    +0.242 C 
ATOM      6  N   UNL     1       1.208  -5.906  25.207  0.00  0.00    -0.313 N 
ATOM      7  H   UNL     1       1.387  -6.839  24.867  0.00  0.00    +0.149 HD
ATOM      8  O   UNL     1       1.819  -3.685  25.271  0.00  0.00    -0.273 OA
BRANCH   6   9
ATOM      9  C   UNL     1       0.693  -5.957  26.594  0.00  0.00    +0.113 C 
BRANCH   9  10
ATOM     10  C   UNL     1       1.325  -6.760  27.729  0.00  0.00    +0.114 C 
BRANCH  10  11
ATOM     11  C   UNL     1       2.482  -6.008  28.269  0.00  0.00    +0.215 C 
ATOM     12  N   UNL     1       2.239  -4.658  28.360  0.00  0.00    -0.314 N 
ATOM     13  H   UNL     1       1.405  -4.291  27.916  0.00  0.00    +0.149 HD
ATOM     14  O   UNL     1       3.532  -6.532  28.614  0.00  0.00    -0.276 OA
BRANCH  12  15
ATOM     15  C   UNL     1       3.387  -3.780  28.359  0.00  0.00    +0.115 C 
BRANCH  15  16
ATOM     16  C   UNL     1       3.587  -3.124  29.735  0.00  0.00    +0.088 C 
BRANCH  16  17
ATOM     17  S   UNL     1       3.654  -1.301  29.559  0.00  0.00    -0.159 S 
BRANCH  17  18
ATOM     18  C   UNL     1       2.871  -1.110  27.918  0.00  0.00    +0.069 C 
BRANCH  18  19
ATOM     19  C   UNL     1       1.599  -0.267  27.910  0.00  0.00    +0.011 C 
BRANCH  19  20
ATOM     20  C   UNL     1       1.874   1.141  27.379  0.00  0.00    +0.010 C 
BRANCH  20  21
ATOM     21  C   UNL     1       2.189   2.119  28.483  0.00  0.00    +0.096 C 
BRANCH  21  22
ATOM     22  C   UNL     1       3.533   2.808  28.187  0.00  0.00    +0.213 C 
ATOM     23  N   UNL     1       3.462   4.171  27.935  0.00  0.00    -0.315 N 
ATOM     24  H   UNL     1       2.644   4.303  27.347  0.00  0.00    +0.149 HD
ATOM     25  O   UNL     1       4.587   2.181  28.193  0.00  0.00    -0.276 OA
BRANCH  23  26
ATOM     26  C   UNL     1       4.651   5.017  27.630  0.00  0.00    +0.109 C 
BRANCH  26  27
ATOM     27  C   UNL     1       5.156   5.040  26.166  0.00  0.00    +0.056 C 
BRANCH  27  28
ATOM     28  C   UNL     1       4.905   4.184  24.975  0.00  0.00    -0.021 A 
ATOM     29  C   UNL     1       4.355   4.546  23.736  0.00  0.00    +0.003 A 
ATOM     30  C   UNL     1       3.920   3.370  23.120  0.00  0.00    +0.047 A 
ATOM     31  C   UNL     1       2.896   3.358  22.186  0.00  0.00    +0.026 A 
ATOM     32  C   UNL     1       2.458   4.613  21.751  0.00  0.00    +0.002 A 
ATOM     33  C   UNL     1       3.068   5.789  22.189  0.00  0.00    +0.001 A 
ATOM     34  N   UNL     1       4.570   2.339  23.742  0.00  0.00    -0.360 N 
ATOM     35  H   UNL     1       4.420   1.339  23.597  0.00  0.00    +0.165 HD
ATOM     36  C   UNL     1       4.030   5.778  23.193  0.00  0.00    +0.010 A 
ATOM     37  C   UNL     1       5.280   2.867  24.791  0.00  0.00    +0.087 A 
ENDBRANCH  27  28
ENDBRANCH  26  27
ENDBRANCH  23  26
ENDBRANCH  21  22
ENDBRANCH  20  21
ENDBRANCH  19  20
ENDBRANCH  18  19
ENDBRANCH  17  18
ENDBRANCH  16  17
ENDBRANCH  15  16
ENDBRANCH  12  15
ENDBRANCH  10  11
ENDBRANCH   9  10
ENDBRANCH   6   9
ENDBRANCH   4   5
BRANCH   4  38
ATOM     38  O   UNL     1       2.413  -5.776  22.610  0.00  0.00    -0.382 OA
ATOM     39  H   UNL     1       2.422  -5.449  21.701  0.00  0.00    +0.210 HD
ENDBRANCH   4  38
ENDBRANCH   2   4
BRANCH   2  40
ATOM     40  C   UNL     1       5.269  -5.862  24.536  0.00  0.00    +0.181 C 
BRANCH  40  41
ATOM     41  O   UNL     1       5.618  -4.967  25.582  0.00  0.00    -0.286 OA
BRANCH  41  42
ATOM     42  P   UNL     1       6.640  -5.415  26.736  0.00  0.00    +0.483 P 
ATOM     43  O   UNL     1       6.736  -4.429  27.851  0.00  0.00    -0.227 OA
BRANCH  42  44
ATOM     44  O   UNL     1       5.897  -6.768  27.159  0.00  0.00    -0.302 OA
ATOM     45  H   UNL     1       6.603  -7.451  27.206  0.00  0.00    +0.222 HD
ENDBRANCH  42  44
BRANCH  42  46
ATOM     46  O   UNL     1       7.982  -5.822  25.985  0.00  0.00    -0.186 OA
BRANCH  46  47
ATOM     47  P   UNL     1       9.087  -4.723  25.235  0.00  0.00    +0.483 P 
ATOM     48  O   UNL     1       8.693  -5.250  23.856  0.00  0.00    -0.227 OA
BRANCH  47  49
ATOM     49  O   UNL     1      10.349  -5.631  25.653  0.00  0.00    -0.302 OA
ATOM     50  H   UNL     1      10.118  -6.576  25.566  0.00  0.00    +0.222 HD
ENDBRANCH  47  49
BRANCH  47  51
ATOM     51  O   UNL     1      10.193  -3.625  24.485  0.00  0.00    -0.284 OA
BRANCH  51  52
ATOM     52  C   UNL     1       9.568  -2.828  23.481  0.00  0.00    +0.206 C 
BRANCH  52  53
ATOM     53  C   UNL     1       8.501  -1.909  24.096  0.00  0.00    +0.179 C 
ATOM     54  C   UNL     1       9.025  -1.168  25.323  0.00  0.00    +0.194 C 
ATOM     55  C   UNL     1       9.207   0.269  24.859  0.00  0.00    +0.196 C 
ATOM     56  C   UNL     1       8.967   0.243  23.348  0.00  0.00    +0.253 C 
ATOM     57  O   UNL     1       8.117  -0.902  23.128  0.00  0.00    -0.346 OA
BRANCH  56  58
ATOM     58  N   UNL     1       8.301   1.432  22.838  0.00  0.00    -0.286 N 
ATOM     59  C   UNL     1       8.613   2.728  23.175  0.00  0.00    +0.167 A 
ATOM     60  N   UNL     1       9.506   3.144  24.090  0.00  0.00    -0.216 NA
ATOM     61  C   UNL     1       9.526   4.493  24.157  0.00  0.00    +0.225 A 
ATOM     62  N   UNL     1       8.814   5.373  23.434  0.00  0.00    -0.219 NA
ATOM     63  C   UNL     1       7.950   4.899  22.494  0.00  0.00    +0.147 A 
ATOM     64  N   UNL     1       7.240   5.799  21.725  0.00  0.00    -0.341 N 
ATOM     65  H   UNL     1       6.419   5.433  21.305  0.00  0.00    +0.144 HD
ATOM     66  H   UNL     1       7.196   6.725  22.170  0.00  0.00    +0.144 HD
ATOM     67  C   UNL     1       7.810   3.508  22.363  0.00  0.00    +0.147 A 
ATOM     68  N   UNL     1       7.011   2.722  21.562  0.00  0.00    -0.231 NA
ATOM     69  C   UNL     1       7.335   1.483  21.860  0.00  0.00    +0.203 A 
ENDBRANCH  56  58
BRANCH  55  70
ATOM     70  O   UNL     1      10.503   0.733  25.235  0.00  0.00    -0.385 OA
ATOM     71  H   UNL     1      10.498   1.707  25.109  0.00  0.00    +0.210 HD
ENDBRANCH  55  70
BRANCH  54  72
ATOM     72  O   UNL     1       8.041  -1.215  26.374  0.00  0.00    -0.278 OA
BRANCH  72  73
ATOM     73  P   UNL     1       6.457  -0.797  25.817  0.00  0.00    +0.473 P 
ATOM     74  O   UNL     1       5.039  -0.423  25.319  0.00  0.00    -0.228 OA
BRANCH  73  75
ATOM     75  O   UNL     1       5.986  -2.093  26.702  0.00  0.00    -0.303 OA
ATOM     76  H   UNL     1       6.608  -2.835  26.614  0.00  0.00    +0.222 HD
ENDBRANCH  73  75
BRANCH  73  77
ATOM     77  O   UNL     1       6.432   0.218  27.100  0.00  0.00    -0.303 OA
ATOM     78  H   UNL     1       5.636   0.772  26.988  0.00  0.00    +0.222 HD
ENDBRANCH  73  77
ENDBRANCH  72  73
ENDBRANCH  54  72
ENDBRANCH  52  53
ENDBRANCH  51  52
ENDBRANCH  47  51
ENDBRANCH  46  47
ENDBRANCH  42  46
ENDBRANCH  41  42
ENDBRANCH  40  41
ENDBRANCH   2  40
TORSDOF 33
ENDMDL
MODEL 2
REMARK VINA RESULT:      -5.6      3.239      7.752
REMARK  Name = 
REMARK  35 active torsions:
REMARK  status: ('A' for Active; 'I' for Inactive)
REMARK    1  A    between atoms: C_1  and  C_2
REMARK    2  A    between atoms: C_2  and  C_3
REMARK    3  A    between atoms: C_2  and  C_4
REMARK    4  A    between atoms: C_2  and  C_40
REMARK    5  A    between atoms: C_4  and  O_5
REMARK    6  A    between atoms: O_5  and  P_6
REMARK    7  A    between atoms: P_6  and  O_7
REMARK    8  A    between atoms: P_6  and  O_9
REMARK    9  A    between atoms: O_9  and  P_10
REMARK   10  A    between atoms: P_10  and  O_11
REMARK   11  A    between atoms: P_10  and  O_13
REMARK   12  A    between atoms: O_13  and  C_14
REMARK   13  A    between atoms: C_14  and  C_15
REMARK   14  A    between atoms: C_18  and  N_30
REMARK   15  A    between atoms: C_20  and  O_22
REMARK   16  A    between atoms: C_23  and  O_25
REMARK   17  A    between atoms: O_25  and  P_26
REMARK   18  A    between atoms: P_26  and  O_27
REMARK   19  A    between atoms: P_26  and  O_28
REMARK   20  A    between atoms: C_40  and  O_42
REMARK   21  A    between atoms: C_40  and  C_43
REMARK   22  A    between atoms: N_45  and  C_46
REMARK   23  A    between atoms: C_46  and  C_47
REMARK   24  A    between atoms: C_47  and  C_48
REMARK   25  A    between atoms: N_50  and  C_51
REMARK   26  A    between atoms: C_51  and  C_52
REMARK   27  A    between atoms: C_52  and  S_53
REMARK   28  A    between atoms: S_53  and  C_54
REMARK   29  A    between atoms: C_54  and  C_55
REMARK   30  A    between atoms: C_55  and  C_56
REMARK   31  A    between atoms: C_56  and  C_57
REMARK   32  A    between atoms: C_57  and  C_58
REMARK   33  A    between atoms: N_60  and  C_61
REMARK   34  A    between atoms: C_61  and  C_62
REMARK   35  A    between atoms: C_62  and  C_63
REMARK                            x       y       z     vdW  Elec       q    Type
REMARK                         _______ _______ _______ _____ _____    ______ ____
ROOT
ATOM      1  C   UNL     1       7.472  -0.321  25.122  0.00  0.00    +0.016 C 
ATOM      2  C   UNL     1       6.883   0.032  26.528  0.00  0.00    +0.024 C 
ATOM      3  C   UNL     1       8.113  -0.492  27.381  0.00  0.00    +0.016 C 
ENDROOT
BRANCH   2   4
ATOM      4  C   UNL     1       5.263  -0.447  26.508  0.00  0.00    +0.208 C 
BRANCH   4   5
ATOM      5  C   UNL     1       4.186  -1.226  27.525  0.00  0.00    +0.242 C 
ATOM      6  N   UNL     1       3.862  -2.607  27.391  0.00  0.00    -0.313 N 
ATOM      7  H   UNL     1       4.377  -3.202  26.759  0.00  0.00    +0.149 HD
ATOM      8  O   UNL     1       3.606  -0.542  28.380  0.00  0.00    -0.273 OA
BRANCH   6   9
ATOM      9  C   UNL     1       3.389  -3.388  28.557  0.00  0.00    +0.113 C 
BRANCH   9  10
ATOM     10  C   UNL     1       2.350  -4.506  28.494  0.00  0.00    +0.114 C 
BRANCH  10  11
ATOM     11  C   UNL     1       3.034  -5.813  28.630  0.00  0.00    +0.215 C 
ATOM     12  N   UNL     1       4.264  -5.705  29.236  0.00  0.00    -0.314 N 
ATOM     13  H   UNL     1       4.650  -4.778  29.373  0.00  0.00    +0.149 HD
ATOM     14  O   UNL     1       2.552  -6.874  28.260  0.00  0.00    -0.276 OA
BRANCH  12  15
ATOM     15  C   UNL     1       5.226  -6.751  28.967  0.00  0.00    +0.115 C 
BRANCH  15  16
ATOM     16  C   UNL     1       6.532  -6.172  28.400  0.00  0.00    +0.088 C 
BRANCH  16  17
ATOM     17  S   UNL     1       6.257  -5.553  26.697  0.00  0.00    -0.159 S 
BRANCH  17  18
ATOM     18  C   UNL     1       7.225  -4.003  26.761  0.00  0.00    +0.069 C 
BRANCH  18  19
ATOM     19  C   UNL     1       8.730  -4.183  26.589  0.00  0.00    +0.011 C 
BRANCH  19  20
ATOM     20  C   UNL     1       9.079  -4.559  25.147  0.00  0.00    +0.010 C 
BRANCH  20  21
ATOM     21  C   UNL     1       8.983  -3.383  24.208  0.00  0.00    +0.096 C 
BRANCH  21  22
ATOM     22  C   UNL     1       8.002  -3.716  23.070  0.00  0.00    +0.213 C 
ATOM     23  N   UNL     1       7.657  -5.055  22.953  0.00  0.00    -0.315 N 
ATOM     24  H   UNL     1       8.515  -5.578  23.100  0.00  0.00    +0.149 HD
ATOM     25  O   UNL     1       7.557  -2.841  22.335  0.00  0.00    -0.276 OA
BRANCH  23  26
ATOM     26  C   UNL     1       6.720  -5.579  21.917  0.00  0.00    +0.109 C 
BRANCH  26  27
ATOM     27  C   UNL     1       5.292  -5.964  22.374  0.00  0.00    +0.056 C 
BRANCH  27  28
ATOM     28  C   UNL     1       4.347  -5.411  23.381  0.00  0.00    -0.021 A 
ATOM     29  C   UNL     1       3.452  -6.099  24.215  0.00  0.00    +0.003 A 
ATOM     30  C   UNL     1       2.499  -5.176  24.647  0.00  0.00    +0.047 A 
ATOM     31  C   UNL     1       1.219  -5.552  25.022  0.00  0.00    +0.026 A 
ATOM     32  C   UNL     1       0.999  -6.929  25.129  0.00  0.00    +0.002 A 
ATOM     33  C   UNL     1       2.031  -7.849  24.933  0.00  0.00    +0.001 A 
ATOM     34  N   UNL     1       3.041  -3.935  24.454  0.00  0.00    -0.360 N 
ATOM     35  H   UNL     1       2.579  -3.033  24.583  0.00  0.00    +0.165 HD
ATOM     36  C   UNL     1       3.280  -7.451  24.470  0.00  0.00    +0.010 A 
ATOM     37  C   UNL     1       4.237  -4.100  23.802  0.00  0.00    +0.087 A 
ENDBRANCH  27  28
ENDBRANCH  26  27
ENDBRANCH  23  26
ENDBRANCH  21  22
ENDBRANCH  20  21
ENDBRANCH  19  20
ENDBRANCH  18  19
ENDBRANCH  17  18
ENDBRANCH  16  17
ENDBRANCH  15  16
ENDBRANCH  12  15
ENDBRANCH  10  11
ENDBRANCH   9  10
ENDBRANCH   6   9
ENDBRANCH   4   5
BRANCH   4  38
ATOM     38  O   UNL     1       4.934  -1.009  25.254  0.00  0.00    -0.382 OA
ATOM     39  H   UNL     1       4.151  -1.575  25.292  0.00  0.00    +0.210 HD
ENDBRANCH   4  38
ENDBRANCH   2   4
BRANCH   2  40
ATOM     40  C   UNL     1       6.882   1.555  26.762  0.00  0.00    +0.181 C 
BRANCH  40  41
ATOM     41  O   UNL     1       5.791   1.919  27.595  0.00  0.00    -0.286 OA
BRANCH  41  42
ATOM     42  P   UNL     1       6.042   2.429  29.097  0.00  0.00    +0.483 P 
ATOM     43  O   UNL     1       5.626   1.440  30.131  0.00  0.00    -0.227 OA
BRANCH  42  44
ATOM     44  O   UNL     1       7.631   2.597  28.996  0.00  0.00    -0.302 OA
ATOM     45  H   UNL     1       7.946   1.814  28.491  0.00  0.00    +0.222 HD
ENDBRANCH  42  44
BRANCH  42  46
ATOM     46  O   UNL     1       5.412   3.888  29.164  0.00  0.00    -0.186 OA
BRANCH  46  47
ATOM     47  P   UNL     1       5.425   5.048  27.881  0.00  0.00    +0.483 P 
ATOM     48  O   UNL     1       4.799   6.093  28.804  0.00  0.00    -0.227 OA
BRANCH  47  49
ATOM     49  O   UNL     1       4.162   4.348  27.171  0.00  0.00    -0.302 OA
ATOM     50  H   UNL     1       3.954   3.507  27.622  0.00  0.00    +0.222 HD
ENDBRANCH  47  49
BRANCH  47  51
ATOM     51  O   UNL     1       5.436   6.208  26.599  0.00  0.00    -0.284 OA
BRANCH  51  52
ATOM     52  C   UNL     1       6.487   5.972  25.664  0.00  0.00    +0.206 C 
BRANCH  52  53
ATOM     53  C   UNL     1       5.949   5.300  24.391  0.00  0.00    +0.179 C 
ATOM     54  C   UNL     1       6.188   6.155  23.150  0.00  0.00    +0.194 C 
ATOM     55  C   UNL     1       7.299   5.440  22.396  0.00  0.00    +0.196 C 
ATOM     56  C   UNL     1       7.774   4.325  23.331  0.00  0.00    +0.253 C 
ATOM     57  O   UNL     1       6.640   4.045  24.179  0.00  0.00    -0.346 OA
BRANCH  56  58
ATOM     58  N   UNL     1       8.161   3.104  22.640  0.00  0.00    -0.286 N 
ATOM     59  C   UNL     1       9.109   2.208  23.072  0.00  0.00    +0.167 A 
ATOM     60  N   UNL     1       9.919   2.325  24.141  0.00  0.00    -0.216 NA
ATOM     61  C   UNL     1      10.735   1.252  24.239  0.00  0.00    +0.225 A 
ATOM     62  N   UNL     1      10.783   0.168  23.448  0.00  0.00    -0.219 NA
ATOM     63  C   UNL     1       9.915   0.083  22.401  0.00  0.00    +0.147 A 
ATOM     64  N   UNL     1       9.938  -1.044  21.605  0.00  0.00    -0.341 N 
ATOM     65  H   UNL     1       9.542  -0.927  20.704  0.00  0.00    +0.144 HD
ATOM     66  H   UNL     1      10.828  -1.551  21.691  0.00  0.00    +0.144 HD
ATOM     67  C   UNL     1       9.046   1.161  22.172  0.00  0.00    +0.147 A 
ATOM     68  N   UNL     1       8.101   1.408  21.199  0.00  0.00    -0.231 NA
ATOM     69  C   UNL     1       7.579   2.572  21.512  0.00  0.00    +0.203 A 
ENDBRANCH  56  58
BRANCH  55  70
ATOM     70  O   UNL     1       8.316   6.375  22.041  0.00  0.00    -0.385 OA
ATOM     71  H   UNL     1       8.419   6.980  22.808  0.00  0.00    +0.210 HD
ENDBRANCH  55  70
BRANCH  54  72
ATOM     72  O   UNL     1       4.996   6.182  22.343  0.00  0.00    -0.278 OA
BRANCH  72  73
ATOM     73  P   UNL     1       3.724   5.218  23.010  0.00  0.00    +0.473 P 
ATOM     74  O   UNL     1       2.584   4.355  23.607  0.00  0.00    -0.228 OA
BRANCH  73  75
ATOM     75  O   UNL     1       2.790   5.979  21.899  0.00  0.00    -0.303 OA
ATOM     76  H   UNL     1       2.461   5.364  21.224  0.00  0.00    +0.222 HD
ENDBRANCH  73  75
BRANCH  73  77
ATOM     77  O   UNL     1       4.231   4.076  21.954  0.00  0.00    -0.303 OA
ATOM     78  H   UNL     1       4.640   3.373  22.493  0.00  0.00    +0.222 HD
ENDBRANCH  73  77
ENDBRANCH  72  73
ENDBRANCH  54  72
ENDBRANCH  52  53
ENDBRANCH  51  52
ENDBRANCH  47  51
ENDBRANCH  46  47
ENDBRANCH  42  46
ENDBRANCH  41  42
ENDBRANCH  40  41
ENDBRANCH   2  40
TORSDOF 33
ENDMDL
MODEL 3
REMARK VINA RESULT:      -5.4      3.024      7.803
REMARK  Name = 
REMARK  35 active torsions:
REMARK  status: ('A' for Active; 'I' for Inactive)
REMARK    1  A    between atoms: C_1  and  C_2
REMARK    2  A    between atoms: C_2  and  C_3
REMARK    3  A    between atoms: C_2  and  C_4
REMARK    4  A    between atoms: C_2  and  C_40
REMARK    5  A    between atoms: C_4  and  O_5
REMARK    6  A    between atoms: O_5  and  P_6
REMARK    7  A    between atoms: P_6  and  O_7
REMARK    8  A    between atoms: P_6  and  O_9
REMARK    9  A    between atoms: O_9  and  P_10
REMARK   10  A    between atoms: P_10  and  O_11
REMARK   11  A    between atoms: P_10  and  O_13
REMARK   12  A    between atoms: O_13  and  C_14
REMARK   13  A    between atoms: C_14  and  C_15
REMARK   14  A    between atoms: C_18  and  N_30
REMARK   15  A    between atoms: C_20  and  O_22
REMARK   16  A    between atoms: C_23  and  O_25
REMARK   17  A    between atoms: O_25  and  P_26
REMARK   18  A    between atoms: P_26  and  O_27
REMARK   19  A    between atoms: P_26  and  O_28
REMARK   20  A    between atoms: C_40  and  O_42
REMARK   21  A    between atoms: C_40  and  C_43
REMARK   22  A    between atoms: N_45  and  C_46
REMARK   23  A    between atoms: C_46  and  C_47
REMARK   24  A    between atoms: C_47  and  C_48
REMARK   25  A    between atoms: N_50  and  C_51
REMARK   26  A    between atoms: C_51  and  C_52
REMARK   27  A    between atoms: C_52  and  S_53
REMARK   28  A    between atoms: S_53  and  C_54
REMARK   29  A    between atoms: C_54  and  C_55
REMARK   30  A    between atoms: C_55  and  C_56
REMARK   31  A    between atoms: C_56  and  C_57
REMARK   32  A    between atoms: C_57  and  C_58
REMARK   33  A    between atoms: N_60  and  C_61
REMARK   34  A    between atoms: C_61  and  C_62
REMARK   35  A    between atoms: C_62  and  C_63
REMARK                            x       y       z     vdW  Elec       q    Type
REMARK                         _______ _______ _______ _____ _____    ______ ____
ROOT
ATOM      1  C   UNL     1       1.000  -3.559  28.907  0.00  0.00    +0.016 C 
ATOM      2  C   UNL     1       1.981  -2.936  27.860  0.00  0.00    +0.024 C 
ATOM      3  C   UNL     1       0.875  -2.238  26.963  0.00  0.00    +0.016 C 
ENDROOT
BRANCH   2   4
ATOM      4  C   UNL     1       3.116  -4.132  27.490  0.00  0.00    +0.208 C 
BRANCH   4   5
ATOM      5  C   UNL     1       4.484  -4.802  28.183  0.00  0.00    +0.242 C 
ATOM      6  N   UNL     1       5.367  -5.663  27.470  0.00  0.00    -0.313 N 
ATOM      7  H   UNL     1       5.273  -5.790  26.473  0.00  0.00    +0.149 HD
ATOM      8  O   UNL     1       4.683  -4.585  29.387  0.00  0.00    -0.273 OA
BRANCH   6   9
ATOM      9  C   UNL     1       6.787  -5.788  27.870  0.00  0.00    +0.113 C 
BRANCH   9  10
ATOM     10  C   UNL     1       7.973  -5.303  27.039  0.00  0.00    +0.114 C 
BRANCH  10  11
ATOM     11  C   UNL     1       7.589  -4.063  26.323  0.00  0.00    +0.215 C 
ATOM     12  N   UNL     1       8.476  -3.035  26.537  0.00  0.00    -0.314 N 
ATOM     13  H   UNL     1       9.179  -3.150  27.258  0.00  0.00    +0.149 HD
ATOM     14  O   UNL     1       6.602  -3.969  25.608  0.00  0.00    -0.276 OA
BRANCH  12  15
ATOM     15  C   UNL     1       7.981  -1.688  26.356  0.00  0.00    +0.115 C 
BRANCH  15  16
ATOM     16  C   UNL     1       9.127  -0.713  26.042  0.00  0.00    +0.088 C 
BRANCH  16  17
ATOM     17  S   UNL     1       9.155  -0.333  24.249  0.00  0.00    -0.159 S 
BRANCH  17  18
ATOM     18  C   UNL     1       9.714  -1.944  23.591  0.00  0.00    +0.069 C 
BRANCH  18  19
ATOM     19  C   UNL     1       8.619  -2.783  22.940  0.00  0.00    +0.011 C 
BRANCH  19  20
ATOM     20  C   UNL     1       7.581  -1.896  22.250  0.00  0.00    +0.010 C 
BRANCH  20  21
ATOM     21  C   UNL     1       6.196  -2.087  22.816  0.00  0.00    +0.096 C 
BRANCH  21  22
ATOM     22  C   UNL     1       5.623  -3.427  22.323  0.00  0.00    +0.213 C 
ATOM     23  N   UNL     1       5.031  -4.218  23.298  0.00  0.00    -0.315 N 
ATOM     24  H   UNL     1       5.633  -4.152  24.113  0.00  0.00    +0.149 HD
ATOM     25  O   UNL     1       5.682  -3.751  21.141  0.00  0.00    -0.276 OA
BRANCH  23  26
ATOM     26  C   UNL     1       4.417  -5.548  23.022  0.00  0.00    +0.109 C 
BRANCH  26  27
ATOM     27  C   UNL     1       2.871  -5.642  23.054  0.00  0.00    +0.056 C 
BRANCH  27  28
ATOM     28  C   UNL     1       1.909  -6.770  23.180  0.00  0.00    -0.021 A 
ATOM     29  C   UNL     1       1.310  -7.285  24.340  0.00  0.00    +0.003 A 
ATOM     30  C   UNL     1       0.851  -8.567  24.032  0.00  0.00    +0.047 A 
ATOM     31  C   UNL     1       0.697  -9.551  24.996  0.00  0.00    +0.026 A 
ATOM     32  C   UNL     1       0.840  -9.128  26.322  0.00  0.00    +0.002 A 
ATOM     33  C   UNL     1       1.057  -7.786  26.638  0.00  0.00    +0.001 A 
ATOM     34  N   UNL     1       0.777  -8.639  22.668  0.00  0.00    -0.360 N 
ATOM     35  H   UNL     1       0.561  -9.463  22.105  0.00  0.00    +0.165 HD
ATOM     36  C   UNL     1       1.297  -6.836  25.651  0.00  0.00    +0.010 A 
ATOM     37  C   UNL     1       1.300  -7.475  22.161  0.00  0.00    +0.087 A 
ENDBRANCH  27  28
ENDBRANCH  26  27
ENDBRANCH  23  26
ENDBRANCH  21  22
ENDBRANCH  20  21
ENDBRANCH  19  20
ENDBRANCH  18  19
ENDBRANCH  17  18
ENDBRANCH  16  17
ENDBRANCH  15  16
ENDBRANCH  12  15
ENDBRANCH  10  11
ENDBRANCH   9  10
ENDBRANCH   6   9
ENDBRANCH   4   5
BRANCH   4  38
ATOM     38  O   UNL     1       3.495  -4.043  26.132  0.00  0.00    -0.382 OA
ATOM     39  H   UNL     1       2.836  -4.419  25.534  0.00  0.00    +0.210 HD
ENDBRANCH   4  38
ENDBRANCH   2   4
BRANCH   2  40
ATOM     40  C   UNL     1       2.771  -1.763  28.470  0.00  0.00    +0.181 C 
BRANCH  40  41
ATOM     41  O   UNL     1       2.831  -0.684  27.549  0.00  0.00    -0.286 OA
BRANCH  41  42
ATOM     42  P   UNL     1       4.188  -0.359  26.756  0.00  0.00    +0.483 P 
ATOM     43  O   UNL     1       4.559  -1.413  25.769  0.00  0.00    -0.227 OA
BRANCH  42  44
ATOM     44  O   UNL     1       3.705   1.002  26.065  0.00  0.00    -0.302 OA
ATOM     45  H   UNL     1       3.963   1.718  26.687  0.00  0.00    +0.222 HD
ENDBRANCH  42  44
BRANCH  42  46
ATOM     46  O   UNL     1       5.254   0.026  27.871  0.00  0.00    -0.186 OA
BRANCH  46  47
ATOM     47  P   UNL     1       5.524   1.615  28.498  0.00  0.00    +0.483 P 
ATOM     48  O   UNL     1       6.300   1.031  29.678  0.00  0.00    -0.227 OA
BRANCH  47  49
ATOM     49  O   UNL     1       4.011   1.714  29.034  0.00  0.00    -0.302 OA
ATOM     50  H   UNL     1       3.946   2.412  29.714  0.00  0.00    +0.222 HD
ENDBRANCH  47  49
BRANCH  47  51
ATOM     51  O   UNL     1       5.794   3.204  29.124  0.00  0.00    -0.284 OA
BRANCH  51  52
ATOM     52  C   UNL     1       5.899   4.183  28.092  0.00  0.00    +0.206 C 
BRANCH  52  53
ATOM     53  C   UNL     1       6.117   3.517  26.725  0.00  0.00    +0.179 C 
ATOM     54  C   UNL     1       5.353   4.230  25.613  0.00  0.00    +0.194 C 
ATOM     55  C   UNL     1       6.423   4.959  24.814  0.00  0.00    +0.196 C 
ATOM     56  C   UNL     1       7.717   4.788  25.614  0.00  0.00    +0.253 C 
ATOM     57  O   UNL     1       7.522   3.579  26.378  0.00  0.00    -0.346 OA
BRANCH  56  58
ATOM     58  N   UNL     1       8.904   4.640  24.786  0.00  0.00    -0.286 N 
ATOM     59  C   UNL     1      10.013   5.450  24.829  0.00  0.00    +0.167 A 
ATOM     60  N   UNL     1      10.182   6.570  25.555  0.00  0.00    -0.216 NA
ATOM     61  C   UNL     1      11.400   7.108  25.324  0.00  0.00    +0.225 A 
ATOM     62  N   UNL     1      12.375   6.647  24.525  0.00  0.00    -0.219 NA
ATOM     63  C   UNL     1      12.167   5.488  23.840  0.00  0.00    +0.147 A 
ATOM     64  N   UNL     1      13.179   4.991  23.043  0.00  0.00    -0.341 N 
ATOM     65  H   UNL     1      12.883   4.358  22.340  0.00  0.00    +0.144 HD
ATOM     66  H   UNL     1      13.858   5.722  22.796  0.00  0.00    +0.144 HD
ATOM     67  C   UNL     1      10.918   4.859  23.967  0.00  0.00    +0.147 A 
ATOM     68  N   UNL     1      10.380   3.728  23.392  0.00  0.00    -0.231 NA
ATOM     69  C   UNL     1       9.178   3.615  23.910  0.00  0.00    +0.203 A 
ENDBRANCH  56  58
BRANCH  55  70
ATOM     70  O   UNL     1       6.034   6.317  24.620  0.00  0.00    -0.385 OA
ATOM     71  H   UNL     1       5.082   6.303  24.376  0.00  0.00    +0.210 HD
ENDBRANCH  55  70
BRANCH  54  72
ATOM     72  O   UNL     1       4.700   3.259  24.774  0.00  0.00    -0.278 OA
BRANCH  72  73
ATOM     73  P   UNL     1       5.497   3.057  23.252  0.00  0.00    +0.473 P 
ATOM     74  O   UNL     1       6.211   2.876  21.889  0.00  0.00    -0.228 OA
BRANCH  73  75
ATOM     75  O   UNL     1       5.567   1.479  23.687  0.00  0.00    -0.303 OA
ATOM     76  H   UNL     1       6.380   1.276  24.178  0.00  0.00    +0.222 HD
ENDBRANCH  73  75
BRANCH  73  77
ATOM     77  O   UNL     1       3.985   2.929  22.641  0.00  0.00    -0.303 OA
ATOM     78  H   UNL     1       3.906   3.633  21.969  0.00  0.00    +0.222 HD
ENDBRANCH  73  77
ENDBRANCH  72  73
ENDBRANCH  54  72
ENDBRANCH  52  53
ENDBRANCH  51  52
ENDBRANCH  47  51
ENDBRANCH  46  47
ENDBRANCH  42  46
ENDBRANCH  41  42
ENDBRANCH  40  41
ENDBRANCH   2  40
TORSDOF 33
ENDMDL
MODEL 4
REMARK VINA RESULT:      -5.4      2.636      7.967
REMARK  Name = 
REMARK  35 active torsions:
REMARK  status: ('A' for Active; 'I' for Inactive)
REMARK    1  A    between atoms: C_1  and  C_2
REMARK    2  A    between atoms: C_2  and  C_3
REMARK    3  A    between atoms: C_2  and  C_4
REMARK    4  A    between atoms: C_2  and  C_40
REMARK    5  A    between atoms: C_4  and  O_5
REMARK    6  A    between atoms: O_5  and  P_6
REMARK    7  A    between atoms: P_6  and  O_7
REMARK    8  A    between atoms: P_6  and  O_9
REMARK    9  A    between atoms: O_9  and  P_10
REMARK   10  A    between atoms: P_10  and  O_11
REMARK   11  A    between atoms: P_10  and  O_13
REMARK   12  A    between atoms: O_13  and  C_14
REMARK   13  A    between atoms: C_14  and  C_15
REMARK   14  A    between atoms: C_18  and  N_30
REMARK   15  A    between atoms: C_20  and  O_22
REMARK   16  A    between atoms: C_23  and  O_25
REMARK   17  A    between atoms: O_25  and  P_26
REMARK   18  A    between atoms: P_26  and  O_27
REMARK   19  A    between atoms: P_26  and  O_28
REMARK   20  A    between atoms: C_40  and  O_42
REMARK   21  A    between atoms: C_40  and  C_43
REMARK   22  A    between atoms: N_45  and  C_46
REMARK   23  A    between atoms: C_46  and  C_47
REMARK   24  A    between atoms: C_47  and  C_48
REMARK   25  A    between atoms: N_50  and  C_51
REMARK   26  A    between atoms: C_51  and  C_52
REMARK   27  A    between atoms: C_52  and  S_53
REMARK   28  A    between atoms: S_53  and  C_54
REMARK   29  A    between atoms: C_54  and  C_55
REMARK   30  A    between atoms: C_55  and  C_56
REMARK   31  A    between atoms: C_56  and  C_57
REMARK   32  A    between atoms: C_57  and  C_58
REMARK   33  A    between atoms: N_60  and  C_61
REMARK   34  A    between atoms: C_61  and  C_62
REMARK   35  A    between atoms: C_62  and  C_63
REMARK                            x       y       z     vdW  Elec       q    Type
REMARK                         _______ _______ _______ _____ _____    ______ ____
ROOT
ATOM      1  C   UNL     1       8.873  -5.410  25.674  0.00  0.00    +0.016 C 
ATOM      2  C   UNL     1       7.615  -4.509  25.902  0.00  0.00    +0.024 C 
ATOM      3  C   UNL     1       6.653  -5.275  24.900  0.00  0.00    +0.016 C 
ENDROOT
BRANCH   2   4
ATOM      4  C   UNL     1       8.161  -2.909  25.911  0.00  0.00    +0.208 C 
BRANCH   4   5
ATOM      5  C   UNL     1       7.509  -1.377  26.074  0.00  0.00    +0.242 C 
ATOM      6  N   UNL     1       6.762  -0.743  25.039  0.00  0.00    -0.313 N 
ATOM      7  H   UNL     1       6.481  -1.255  24.216  0.00  0.00    +0.149 HD
ATOM      8  O   UNL     1       7.755  -0.756  27.118  0.00  0.00    -0.273 OA
BRANCH   6   9
ATOM      9  C   UNL     1       5.762   0.300  25.360  0.00  0.00    +0.113 C 
BRANCH   9  10
ATOM     10  C   UNL     1       5.849   1.757  24.912  0.00  0.00    +0.114 C 
BRANCH  10  11
ATOM     11  C   UNL     1       4.498   2.228  24.526  0.00  0.00    +0.215 C 
ATOM     12  N   UNL     1       4.447   2.681  23.229  0.00  0.00    -0.314 N 
ATOM     13  H   UNL     1       5.321   2.809  22.732  0.00  0.00    +0.149 HD
ATOM     14  O   UNL     1       3.529   2.200  25.272  0.00  0.00    -0.276 OA
BRANCH  12  15
ATOM     15  C   UNL     1       3.395   3.616  22.897  0.00  0.00    +0.115 C 
BRANCH  15  16
ATOM     16  C   UNL     1       3.974   4.932  22.354  0.00  0.00    +0.088 C 
BRANCH  16  17
ATOM     17  S   UNL     1       4.276   6.102  23.733  0.00  0.00    -0.159 S 
BRANCH  17  18
ATOM     18  C   UNL     1       2.907   5.636  24.852  0.00  0.00    +0.069 C 
BRANCH  18  19
ATOM     19  C   UNL     1       3.196   5.846  26.335  0.00  0.00    +0.011 C 
BRANCH  19  20
ATOM     20  C   UNL     1       4.699   5.968  26.593  0.00  0.00    +0.010 C 
BRANCH  20  21
ATOM     21  C   UNL     1       5.281   4.714  27.196  0.00  0.00    +0.096 C 
BRANCH  21  22
ATOM     22  C   UNL     1       6.803   4.696  26.969  0.00  0.00    +0.213 C 
ATOM     23  N   UNL     1       7.311   5.764  26.243  0.00  0.00    -0.315 N 
ATOM     24  H   UNL     1       6.651   5.926  25.488  0.00  0.00    +0.149 HD
ATOM     25  O   UNL     1       7.504   3.795  27.419  0.00  0.00    -0.276 OA
BRANCH  23  26
ATOM     26  C   UNL     1       8.757   5.928  25.919  0.00  0.00    +0.109 C 
BRANCH  26  27
ATOM     27  C   UNL     1       9.305   5.161  24.691  0.00  0.00    +0.056 C 
BRANCH  27  28
ATOM     28  C   UNL     1       8.714   4.185  23.735  0.00  0.00    -0.021 A 
ATOM     29  C   UNL     1       8.971   2.811  23.615  0.00  0.00    +0.003 A 
ATOM     30  C   UNL     1       8.538   2.421  22.346  0.00  0.00    +0.047 A 
ATOM     31  C   UNL     1       9.078   1.331  21.681  0.00  0.00    +0.026 A 
ATOM     32  C   UNL     1       9.940   0.529  22.434  0.00  0.00    +0.002 A 
ATOM     33  C   UNL     1      10.180   0.785  23.785  0.00  0.00    +0.001 A 
ATOM     34  N   UNL     1       7.675   3.390  21.913  0.00  0.00    -0.360 N 
ATOM     35  H   UNL     1       7.242   3.462  20.990  0.00  0.00    +0.165 HD
ATOM     36  C   UNL     1       9.700   1.934  24.403  0.00  0.00    +0.010 A 
ATOM     37  C   UNL     1       7.685   4.402  22.839  0.00  0.00    +0.087 A 
ENDBRANCH  27  28
ENDBRANCH  26  27
ENDBRANCH  23  26
ENDBRANCH  21  22
ENDBRANCH  20  21
ENDBRANCH  19  20
ENDBRANCH  18  19
ENDBRANCH  17  18
ENDBRANCH  16  17
ENDBRANCH  15  16
ENDBRANCH  12  15
ENDBRANCH  10  11
ENDBRANCH   9  10
ENDBRANCH   6   9
ENDBRANCH   4   5
BRANCH   4  38
ATOM     38  O   UNL     1       9.113  -2.711  24.887  0.00  0.00    -0.382 OA
ATOM     39  H   UNL     1       9.955  -3.149  25.069  0.00  0.00    +0.210 HD
ENDBRANCH   4  38
ENDBRANCH   2   4
BRANCH   2  40
ATOM     40  C   UNL     1       6.995  -4.763  27.290  0.00  0.00    +0.181 C 
BRANCH  40  41
ATOM     41  O   UNL     1       6.658  -6.135  27.430  0.00  0.00    -0.286 OA
BRANCH  41  42
ATOM     42  P   UNL     1       6.213  -6.728  28.853  0.00  0.00    +0.483 P 
ATOM     43  O   UNL     1       7.197  -7.692  29.422  0.00  0.00    -0.227 OA
BRANCH  42  44
ATOM     44  O   UNL     1       6.164  -5.340  29.651  0.00  0.00    -0.302 OA
ATOM     45  H   UNL     1       5.244  -5.264  29.988  0.00  0.00    +0.222 HD
ENDBRANCH  42  44
BRANCH  42  46
ATOM     46  O   UNL     1       4.712  -7.220  28.662  0.00  0.00    -0.186 OA
BRANCH  46  47
ATOM     47  P   UNL     1       3.297  -6.279  28.985  0.00  0.00    +0.483 P 
ATOM     48  O   UNL     1       3.458  -6.528  30.484  0.00  0.00    -0.227 OA
BRANCH  47  49
ATOM     49  O   UNL     1       2.334  -7.470  28.492  0.00  0.00    -0.302 OA
ATOM     50  H   UNL     1       2.304  -8.172  29.170  0.00  0.00    +0.222 HD
ENDBRANCH  47  49
BRANCH  47  51
ATOM     51  O   UNL     1       1.882  -5.339  29.307  0.00  0.00    -0.284 OA
BRANCH  51  52
ATOM     52  C   UNL     1       2.080  -3.952  29.038  0.00  0.00    +0.206 C 
BRANCH  52  53
ATOM     53  C   UNL     1       1.403  -3.547  27.720  0.00  0.00    +0.179 C 
ATOM     54  C   UNL     1       2.160  -2.428  27.010  0.00  0.00    +0.194 C 
ATOM     55  C   UNL     1       2.826  -3.104  25.822  0.00  0.00    +0.196 C 
ATOM     56  C   UNL     1       2.581  -4.603  26.015  0.00  0.00    +0.253 C 
ATOM     57  O   UNL     1       1.384  -4.681  26.819  0.00  0.00    -0.346 OA
BRANCH  56  58
ATOM     58  N   UNL     1       2.364  -5.328  24.772  0.00  0.00    -0.286 N 
ATOM     59  C   UNL     1       2.142  -6.680  24.666  0.00  0.00    +0.167 A 
ATOM     60  N   UNL     1       2.175  -7.596  25.651  0.00  0.00    -0.216 NA
ATOM     61  C   UNL     1       1.923  -8.830  25.162  0.00  0.00    +0.225 A 
ATOM     62  N   UNL     1       1.642  -9.183  23.898  0.00  0.00    -0.219 NA
ATOM     63  C   UNL     1       1.584  -8.211  22.945  0.00  0.00    +0.147 A 
ATOM     64  N   UNL     1       1.263  -8.564  21.650  0.00  0.00    -0.341 N 
ATOM     65  H   UNL     1       1.544  -7.911  20.958  0.00  0.00    +0.144 HD
ATOM     66  H   UNL     1       1.425  -9.564  21.479  0.00  0.00    +0.144 HD
ATOM     67  C   UNL     1       1.873  -6.891  23.326  0.00  0.00    +0.147 A 
ATOM     68  N   UNL     1       1.945  -5.710  22.620  0.00  0.00    -0.231 NA
ATOM     69  C   UNL     1       2.229  -4.790  23.514  0.00  0.00    +0.203 A 
ENDBRANCH  56  58
BRANCH  55  70
ATOM     70  O   UNL     1       4.205  -2.741  25.774  0.00  0.00    -0.385 OA
ATOM     71  H   UNL     1       4.526  -2.744  26.703  0.00  0.00    +0.210 HD
ENDBRANCH  55  70
BRANCH  54  72
ATOM     72  O   UNL     1       1.229  -1.435  26.541  0.00  0.00    -0.278 OA
BRANCH  72  73
ATOM     73  P   UNL     1       1.347   0.050  27.421  0.00  0.00    +0.473 P 
ATOM     74  O   UNL     1       1.454   1.381  28.207  0.00  0.00    -0.228 OA
BRANCH  73  75
ATOM     75  O   UNL     1       2.925  -0.009  26.981  0.00  0.00    -0.303 OA
ATOM     76  H   UNL     1       3.160   0.720  26.384  0.00  0.00    +0.222 HD
ENDBRANCH  73  75
BRANCH  73  77
ATOM     77  O   UNL     1       0.876   0.750  26.019  0.00  0.00    -0.303 OA
ATOM     78  H   UNL     1       1.696   1.039  25.574  0.00  0.00    +0.222 HD
ENDBRANCH  73  77
ENDBRANCH  72  73
ENDBRANCH  54  72
ENDBRANCH  52  53
ENDBRANCH  51  52
ENDBRANCH  47  51
ENDBRANCH  46  47
ENDBRANCH  42  46
ENDBRANCH  41  42
ENDBRANCH  40  41
ENDBRANCH   2  40
TORSDOF 33
ENDMDL
MODEL 5
REMARK VINA RESULT:      -5.2      3.221      7.273
REMARK  Name = 
REMARK  35 active torsions:
REMARK  status: ('A' for Active; 'I' for Inactive)
REMARK    1  A    between atoms: C_1  and  C_2
REMARK    2  A    between atoms: C_2  and  C_3
REMARK    3  A    between atoms: C_2  and  C_4
REMARK    4  A    between atoms: C_2  and  C_40
REMARK    5  A    between atoms: C_4  and  O_5
REMARK    6  A    between atoms: O_5  and  P_6
REMARK    7  A    between atoms: P_6  and  O_7
REMARK    8  A    between atoms: P_6  and  O_9
REMARK    9  A    between atoms: O_9  and  P_10
REMARK   10  A    between atoms: P_10  and  O_11
REMARK   11  A    between atoms: P_10  and  O_13
REMARK   12  A    between atoms: O_13  and  C_14
REMARK   13  A    between atoms: C_14  and  C_15
REMARK   14  A    between atoms: C_18  and  N_30
REMARK   15  A    between atoms: C_20  and  O_22
REMARK   16  A    between atoms: C_23  and  O_25
REMARK   17  A    between atoms: O_25  and  P_26
REMARK   18  A    between atoms: P_26  and  O_27
REMARK   19  A    between atoms: P_26  and  O_28
REMARK   20  A    between atoms: C_40  and  O_42
REMARK   21  A    between atoms: C_40  and  C_43
REMARK   22  A    between atoms: N_45  and  C_46
REMARK   23  A    between atoms: C_46  and  C_47
REMARK   24  A    between atoms: C_47  and  C_48
REMARK   25  A    between atoms: N_50  and  C_51
REMARK   26  A    between atoms: C_51  and  C_52
REMARK   27  A    between atoms: C_52  and  S_53
REMARK   28  A    between atoms: S_53  and  C_54
REMARK   29  A    between atoms: C_54  and  C_55
REMARK   30  A    between atoms: C_55  and  C_56
REMARK   31  A    between atoms: C_56  and  C_57
REMARK   32  A    between atoms: C_57  and  C_58
REMARK   33  A    between atoms: N_60  and  C_61
REMARK   34  A    between atoms: C_61  and  C_62
REMARK   35  A    between atoms: C_62  and  C_63
REMARK                            x       y       z     vdW  Elec       q    Type
REMARK                         _______ _______ _______ _____ _____    ______ ____
ROOT
ATOM      1  C   UNL     1       7.197   0.925  27.762  0.00  0.00    +0.016 C 
ATOM      2  C   UNL     1       6.026   0.002  27.290  0.00  0.00    +0.024 C 
ATOM      3  C   UNL     1       6.801  -1.373  27.439  0.00  0.00    +0.016 C 
ENDROOT
BRANCH   2   4
ATOM      4  C   UNL     1       5.339   0.746  25.937  0.00  0.00    +0.208 C 
BRANCH   4   5
ATOM      5  C   UNL     1       4.324   2.037  25.611  0.00  0.00    +0.242 C 
ATOM      6  N   UNL     1       2.923   1.999  25.865  0.00  0.00    -0.313 N 
ATOM      7  H   UNL     1       2.511   1.236  26.381  0.00  0.00    +0.149 HD
ATOM      8  O   UNL     1       4.819   3.033  25.065  0.00  0.00    -0.273 OA
BRANCH   6   9
ATOM      9  C   UNL     1       2.164   3.247  26.105  0.00  0.00    +0.113 C 
BRANCH   9  10
ATOM     10  C   UNL     1       1.043   3.771  25.210  0.00  0.00    +0.114 C 
BRANCH  10  11
ATOM     11  C   UNL     1       1.431   3.592  23.791  0.00  0.00    +0.215 C 
ATOM     12  N   UNL     1       2.602   4.241  23.478  0.00  0.00    -0.314 N 
ATOM     13  H   UNL     1       2.986   4.890  24.156  0.00  0.00    +0.149 HD
ATOM     14  O   UNL     1       0.791   2.927  22.990  0.00  0.00    -0.276 OA
BRANCH  12  15
ATOM     15  C   UNL     1       2.813   4.589  22.091  0.00  0.00    +0.115 C 
BRANCH  15  16
ATOM     16  C   UNL     1       3.412   5.998  21.956  0.00  0.00    +0.088 C 
BRANCH  16  17
ATOM     17  S   UNL     1       2.701   7.108  23.229  0.00  0.00    -0.159 S 
BRANCH  17  18
ATOM     18  C   UNL     1       4.062   7.108  24.449  0.00  0.00    +0.069 C 
BRANCH  18  19
ATOM     19  C   UNL     1       3.620   6.947  25.900  0.00  0.00    +0.011 C 
BRANCH  19  20
ATOM     20  C   UNL     1       4.818   7.004  26.851  0.00  0.00    +0.010 C 
BRANCH  20  21
ATOM     21  C   UNL     1       5.457   5.652  27.050  0.00  0.00    +0.096 C 
BRANCH  21  22
ATOM     22  C   UNL     1       6.979   5.823  27.202  0.00  0.00    +0.213 C 
ATOM     23  N   UNL     1       7.585   6.639  26.257  0.00  0.00    -0.315 N 
ATOM     24  H   UNL     1       7.152   6.405  25.368  0.00  0.00    +0.149 HD
ATOM     25  O   UNL     1       7.594   5.279  28.113  0.00  0.00    -0.276 OA
BRANCH  23  26
ATOM     26  C   UNL     1       9.047   6.930  26.234  0.00  0.00    +0.109 C 
BRANCH  26  27
ATOM     27  C   UNL     1       9.789   6.759  24.886  0.00  0.00    +0.056 C 
BRANCH  27  28
ATOM     28  C   UNL     1      10.266   5.580  24.113  0.00  0.00    -0.021 A 
ATOM     29  C   UNL     1       9.678   4.311  24.000  0.00  0.00    +0.003 A 
ATOM     30  C   UNL     1      10.671   3.436  23.555  0.00  0.00    +0.047 A 
ATOM     31  C   UNL     1      10.635   2.077  23.822  0.00  0.00    +0.026 A 
ATOM     32  C   UNL     1       9.450   1.602  24.393  0.00  0.00    +0.002 A 
ATOM     33  C   UNL     1       8.359   2.445  24.612  0.00  0.00    +0.001 A 
ATOM     34  N   UNL     1      11.658   4.210  23.009  0.00  0.00    -0.360 N 
ATOM     35  H   UNL     1      12.568   3.898  22.667  0.00  0.00    +0.165 HD
ATOM     36  C   UNL     1       8.453   3.819  24.420  0.00  0.00    +0.010 A 
ATOM     37  C   UNL     1      11.330   5.524  23.235  0.00  0.00    +0.087 A 
ENDBRANCH  27  28
ENDBRANCH  26  27
ENDBRANCH  23  26
ENDBRANCH  21  22
ENDBRANCH  20  21
ENDBRANCH  19  20
ENDBRANCH  18  19
ENDBRANCH  17  18
ENDBRANCH  16  17
ENDBRANCH  15  16
ENDBRANCH  12  15
ENDBRANCH  10  11
ENDBRANCH   9  10
ENDBRANCH   6   9
ENDBRANCH   4   5
BRANCH   4  38
ATOM     38  O   UNL     1       4.866  -0.228  25.029  0.00  0.00    -0.382 OA
ATOM     39  H   UNL     1       3.953  -0.491  25.204  0.00  0.00    +0.210 HD
ENDBRANCH   4  38
ENDBRANCH   2   4
BRANCH   2  40
ATOM     40  C   UNL     1       4.914  -0.073  28.354  0.00  0.00    +0.181 C 
BRANCH  40  41
ATOM     41  O   UNL     1       3.640  -0.099  27.728  0.00  0.00    -0.286 OA
BRANCH  41  42
ATOM     42  P   UNL     1       2.678  -1.375  27.883  0.00  0.00    +0.483 P 
ATOM     43  O   UNL     1       1.294  -1.019  28.307  0.00  0.00    -0.227 OA
BRANCH  42  44
ATOM     44  O   UNL     1       2.756  -1.879  26.365  0.00  0.00    -0.302 OA
ATOM     45  H   UNL     1       2.955  -2.841  26.419  0.00  0.00    +0.222 HD
ENDBRANCH  42  44
BRANCH  42  46
ATOM     46  O   UNL     1       3.486  -2.415  28.773  0.00  0.00    -0.186 OA
BRANCH  46  47
ATOM     47  P   UNL     1       3.718  -4.089  28.402  0.00  0.00    +0.483 P 
ATOM     48  O   UNL     1       2.313  -4.163  27.805  0.00  0.00    -0.227 OA
BRANCH  47  49
ATOM     49  O   UNL     1       3.510  -4.509  29.942  0.00  0.00    -0.302 OA
ATOM     50  H   UNL     1       2.982  -5.329  29.992  0.00  0.00    +0.222 HD
ENDBRANCH  47  49
BRANCH  47  51
ATOM     51  O   UNL     1       3.949  -5.762  28.032  0.00  0.00    -0.284 OA
BRANCH  51  52
ATOM     52  C   UNL     1       5.328  -6.120  27.981  0.00  0.00    +0.206 C 
BRANCH  52  53
ATOM     53  C   UNL     1       5.768  -6.405  26.536  0.00  0.00    +0.179 C 
ATOM     54  C   UNL     1       4.769  -5.865  25.517  0.00  0.00    +0.194 C 
ATOM     55  C   UNL     1       5.456  -4.654  24.906  0.00  0.00    +0.196 C 
ATOM     56  C   UNL     1       6.726  -4.445  25.734  0.00  0.00    +0.253 C 
ATOM     57  O   UNL     1       7.032  -5.746  26.279  0.00  0.00    -0.346 OA
BRANCH  56  58
ATOM     58  N   UNL     1       7.865  -3.978  24.956  0.00  0.00    -0.286 N 
ATOM     59  C   UNL     1       7.851  -2.923  24.076  0.00  0.00    +0.167 A 
ATOM     60  N   UNL     1       6.790  -2.189  23.692  0.00  0.00    -0.216 NA
ATOM     61  C   UNL     1       7.161  -1.247  22.798  0.00  0.00    +0.225 A 
ATOM     62  N   UNL     1       8.390  -0.987  22.324  0.00  0.00    -0.219 NA
ATOM     63  C   UNL     1       9.436  -1.736  22.773  0.00  0.00    +0.147 A 
ATOM     64  N   UNL     1      10.707  -1.452  22.315  0.00  0.00    -0.341 N 
ATOM     65  H   UNL     1      11.358  -2.194  22.405  0.00  0.00    +0.144 HD
ATOM     66  H   UNL     1      10.681  -0.921  21.435  0.00  0.00    +0.144 HD
ATOM     67  C   UNL     1       9.166  -2.778  23.675  0.00  0.00    +0.147 A 
ATOM     68  N   UNL     1       9.968  -3.726  24.272  0.00  0.00    -0.231 NA
ATOM     69  C   UNL     1       9.163  -4.423  25.043  0.00  0.00    +0.203 A 
ENDBRANCH  56  58
BRANCH  55  70
ATOM     70  O   UNL     1       4.565  -3.541  24.915  0.00  0.00    -0.385 OA
ATOM     71  H   UNL     1       3.759  -3.824  24.429  0.00  0.00    +0.210 HD
ENDBRANCH  55  70
BRANCH  54  72
ATOM     72  O   UNL     1       4.534  -6.854  24.498  0.00  0.00    -0.278 OA
BRANCH  72  73
ATOM     73  P   UNL     1       2.852  -7.207  24.294  0.00  0.00    +0.473 P 
ATOM     74  O   UNL     1       1.347  -7.523  24.112  0.00  0.00    -0.228 OA
BRANCH  73  75
ATOM     75  O   UNL     1       3.112  -8.312  25.476  0.00  0.00    -0.303 OA
ATOM     76  H   UNL     1       2.386  -8.324  26.122  0.00  0.00    +0.222 HD
ENDBRANCH  73  75
BRANCH  73  77
ATOM     77  O   UNL     1       2.615  -5.980  25.350  0.00  0.00    -0.303 OA
ATOM     78  H   UNL     1       2.008  -6.325  26.031  0.00  0.00    +0.222 HD
ENDBRANCH  73  77
ENDBRANCH  72  73
ENDBRANCH  54  72
ENDBRANCH  52  53
ENDBRANCH  51  52
ENDBRANCH  47  51
ENDBRANCH  46  47
ENDBRANCH  42  46
ENDBRANCH  41  42
ENDBRANCH  40  41
ENDBRANCH   2  40
TORSDOF 33
ENDMDL
MODEL 6
REMARK VINA RESULT:      -5.1      2.803      6.740
REMARK  Name = 
REMARK  35 active torsions:
REMARK  status: ('A' for Active; 'I' for Inactive)
REMARK    1  A    between atoms: C_1  and  C_2
REMARK    2  A    between atoms: C_2  and  C_3
REMARK    3  A    between atoms: C_2  and  C_4
REMARK    4  A    between atoms: C_2  and  C_40
REMARK    5  A    between atoms: C_4  and  O_5
REMARK    6  A    between atoms: O_5  and  P_6
REMARK    7  A    between atoms: P_6  and  O_7
REMARK    8  A    between atoms: P_6  and  O_9
REMARK    9  A    between atoms: O_9  and  P_10
REMARK   10  A    between atoms: P_10  and  O_11
REMARK   11  A    between atoms: P_10  and  O_13
REMARK   12  A    between atoms: O_13  and  C_14
REMARK   13  A    between atoms: C_14  and  C_15
REMARK   14  A    between atoms: C_18  and  N_30
REMARK   15  A    between atoms: C_20  and  O_22
REMARK   16  A    between atoms: C_23  and  O_25
REMARK   17  A    between atoms: O_25  and  P_26
REMARK   18  A    between atoms: P_26  and  O_27
REMARK   19  A    between atoms: P_26  and  O_28
REMARK   20  A    between atoms: C_40  and  O_42
REMARK   21  A    between atoms: C_40  and  C_43
REMARK   22  A    between atoms: N_45  and  C_46
REMARK   23  A    between atoms: C_46  and  C_47
REMARK   24  A    between atoms: C_47  and  C_48
REMARK   25  A    between atoms: N_50  and  C_51
REMARK   26  A    between atoms: C_51  and  C_52
REMARK   27  A    between atoms: C_52  and  S_53
REMARK   28  A    between atoms: S_53  and  C_54
REMARK   29  A    between atoms: C_54  and  C_55
REMARK   30  A    between atoms: C_55  and  C_56
REMARK   31  A    between atoms: C_56  and  C_57
REMARK   32  A    between atoms: C_57  and  C_58
REMARK   33  A    between atoms: N_60  and  C_61
REMARK   34  A    between atoms: C_61  and  C_62
REMARK   35  A    between atoms: C_62  and  C_63
REMARK                            x       y       z     vdW  Elec       q    Type
REMARK                         _______ _______ _______ _____ _____    ______ ____
ROOT
ATOM      1  C   UNL     1       9.966  -5.253  25.657  0.00  0.00    +0.016 C 
ATOM      2  C   UNL     1       8.651  -4.516  25.243  0.00  0.00    +0.024 C 
ATOM      3  C   UNL     1       8.083  -5.662  24.306  0.00  0.00    +0.016 C 
ENDROOT
BRANCH   2   4
ATOM      4  C   UNL     1       9.078  -2.916  24.904  0.00  0.00    +0.208 C 
BRANCH   4   5
ATOM      5  C   UNL     1       8.828  -1.398  25.562  0.00  0.00    +0.242 C 
ATOM      6  N   UNL     1       7.834  -1.141  26.550  0.00  0.00    -0.313 N 
ATOM      7  H   UNL     1       7.333  -1.899  26.990  0.00  0.00    +0.149 HD
ATOM      8  O   UNL     1       9.499  -0.458  25.111  0.00  0.00    -0.273 OA
BRANCH   6   9
ATOM      9  C   UNL     1       7.980  -0.008  27.492  0.00  0.00    +0.113 C 
BRANCH   9  10
ATOM     10  C   UNL     1       7.116   1.250  27.483  0.00  0.00    +0.114 C 
BRANCH  10  11
ATOM     11  C   UNL     1       6.700   1.564  28.870  0.00  0.00    +0.215 C 
ATOM     12  N   UNL     1       5.346   1.776  28.980  0.00  0.00    -0.314 N 
ATOM     13  H   UNL     1       4.804   1.866  28.128  0.00  0.00    +0.149 HD
ATOM     14  O   UNL     1       7.472   1.612  29.817  0.00  0.00    -0.276 OA
BRANCH  12  15
ATOM     15  C   UNL     1       4.892   2.574  30.097  0.00  0.00    +0.115 C 
BRANCH  15  16
ATOM     16  C   UNL     1       4.128   3.818  29.617  0.00  0.00    +0.088 C 
BRANCH  16  17
ATOM     17  S   UNL     1       4.747   5.310  30.485  0.00  0.00    -0.159 S 
BRANCH  17  18
ATOM     18  C   UNL     1       6.548   5.010  30.389  0.00  0.00    +0.069 C 
BRANCH  18  19
ATOM     19  C   UNL     1       7.325   6.040  29.574  0.00  0.00    +0.011 C 
BRANCH  19  20
ATOM     20  C   UNL     1       6.776   6.144  28.149  0.00  0.00    +0.010 C 
BRANCH  20  21
ATOM     21  C   UNL     1       6.971   4.870  27.366  0.00  0.00    +0.096 C 
BRANCH  21  22
ATOM     22  C   UNL     1       7.439   5.212  25.941  0.00  0.00    +0.213 C 
ATOM     23  N   UNL     1       6.442   5.621  25.067  0.00  0.00    -0.315 N 
ATOM     24  H   UNL     1       5.648   5.013  25.246  0.00  0.00    +0.149 HD
ATOM     25  O   UNL     1       8.621   5.135  25.622  0.00  0.00    -0.276 OA
BRANCH  23  26
ATOM     26  C   UNL     1       6.692   5.997  23.646  0.00  0.00    +0.109 C 
BRANCH  26  27
ATOM     27  C   UNL     1       6.738   4.855  22.602  0.00  0.00    +0.056 C 
BRANCH  27  28
ATOM     28  C   UNL     1       6.848   3.374  22.697  0.00  0.00    -0.021 A 
ATOM     29  C   UNL     1       8.005   2.583  22.759  0.00  0.00    +0.003 A 
ATOM     30  C   UNL     1       7.635   1.285  22.402  0.00  0.00    +0.047 A 
ATOM     31  C   UNL     1       8.532   0.384  21.850  0.00  0.00    +0.026 A 
ATOM     32  C   UNL     1       9.872   0.784  21.851  0.00  0.00    +0.002 A 
ATOM     33  C   UNL     1      10.271   1.987  22.436  0.00  0.00    +0.001 A 
ATOM     34  N   UNL     1       6.278   1.208  22.556  0.00  0.00    -0.360 N 
ATOM     35  H   UNL     1       5.672   0.427  22.302  0.00  0.00    +0.165 HD
ATOM     36  C   UNL     1       9.344   2.912  22.901  0.00  0.00    +0.010 A 
ATOM     37  C   UNL     1       5.824   2.464  22.873  0.00  0.00    +0.087 A 
ENDBRANCH  27  28
ENDBRANCH  26  27
ENDBRANCH  23  26
ENDBRANCH  21  22
ENDBRANCH  20  21
ENDBRANCH  19  20
ENDBRANCH  18  19
ENDBRANCH  17  18
ENDBRANCH  16  17
ENDBRANCH  15  16
ENDBRANCH  12  15
ENDBRANCH  10  11
ENDBRANCH   9  10
ENDBRANCH   6   9
ENDBRANCH   4   5
BRANCH   4  38
ATOM     38  O   UNL     1       8.946  -2.656  23.522  0.00  0.00    -0.382 OA
ATOM     39  H   UNL     1       8.884  -3.463  22.994  0.00  0.00    +0.210 HD
ENDBRANCH   4  38
ENDBRANCH   2   4
BRANCH   2  40
ATOM     40  C   UNL     1       7.654  -4.458  26.417  0.00  0.00    +0.181 C 
BRANCH  40  41
ATOM     41  O   UNL     1       7.072  -5.736  26.626  0.00  0.00    -0.286 OA
BRANCH  41  42
ATOM     42  P   UNL     1       6.292  -6.068  27.989  0.00  0.00    +0.483 P 
ATOM     43  O   UNL     1       7.131  -6.792  28.985  0.00  0.00    -0.227 OA
BRANCH  42  44
ATOM     44  O   UNL     1       5.972  -4.559  28.418  0.00  0.00    -0.302 OA
ATOM     45  H   UNL     1       6.702  -4.019  28.039  0.00  0.00    +0.222 HD
ENDBRANCH  42  44
BRANCH  42  46
ATOM     46  O   UNL     1       4.919  -6.737  27.544  0.00  0.00    -0.186 OA
BRANCH  46  47
ATOM     47  P   UNL     1       3.369  -5.969  27.576  0.00  0.00    +0.483 P 
ATOM     48  O   UNL     1       3.530  -5.681  29.068  0.00  0.00    -0.227 OA
BRANCH  47  49
ATOM     49  O   UNL     1       2.612  -7.388  27.531  0.00  0.00    -0.302 OA
ATOM     50  H   UNL     1       3.236  -8.102  27.760  0.00  0.00    +0.222 HD
ENDBRANCH  47  49
BRANCH  47  51
ATOM     51  O   UNL     1       1.820  -5.201  27.608  0.00  0.00    -0.284 OA
BRANCH  51  52
ATOM     52  C   UNL     1       1.883  -3.876  28.132  0.00  0.00    +0.206 C 
BRANCH  52  53
ATOM     53  C   UNL     1       1.939  -2.841  26.998  0.00  0.00    +0.179 C 
ATOM     54  C   UNL     1       2.575  -1.530  27.452  0.00  0.00    +0.194 C 
ATOM     55  C   UNL     1       3.945  -1.515  26.792  0.00  0.00    +0.196 C 
ATOM     56  C   UNL     1       4.104  -2.896  26.152  0.00  0.00    +0.253 C 
ATOM     57  O   UNL     1       2.755  -3.353  25.917  0.00  0.00    -0.346 OA
BRANCH  56  58
ATOM     58  N   UNL     1       4.825  -2.879  24.888  0.00  0.00    -0.286 N 
ATOM     59  C   UNL     1       4.872  -3.911  23.982  0.00  0.00    +0.167 A 
ATOM     60  N   UNL     1       4.357  -5.147  24.120  0.00  0.00    -0.216 NA
ATOM     61  C   UNL     1       4.617  -5.896  23.026  0.00  0.00    +0.225 A 
ATOM     62  N   UNL     1       5.263  -5.536  21.906  0.00  0.00    -0.219 NA
ATOM     63  C   UNL     1       5.733  -4.262  21.802  0.00  0.00    +0.147 A 
ATOM     64  N   UNL     1       6.370  -3.877  20.639  0.00  0.00    -0.341 N 
ATOM     65  H   UNL     1       6.960  -3.085  20.729  0.00  0.00    +0.144 HD
ATOM     66  H   UNL     1       6.710  -4.689  20.108  0.00  0.00    +0.144 HD
ATOM     67  C   UNL     1       5.561  -3.401  22.897  0.00  0.00    +0.147 A 
ATOM     68  N   UNL     1       5.946  -2.099  23.131  0.00  0.00    -0.231 NA
ATOM     69  C   UNL     1       5.482  -1.809  24.326  0.00  0.00    +0.203 A 
ENDBRANCH  56  58
BRANCH  55  70
ATOM     70  O   UNL     1       4.942  -1.205  27.763  0.00  0.00    -0.385 OA
ATOM     71  H   UNL     1       5.458  -0.451  27.402  0.00  0.00    +0.210 HD
ENDBRANCH  55  70
BRANCH  54  72
ATOM     72  O   UNL     1       1.794  -0.420  26.971  0.00  0.00    -0.278 OA
BRANCH  72  73
ATOM     73  P   UNL     1       1.490   0.758  28.202  0.00  0.00    +0.473 P 
ATOM     74  O   UNL     1       1.220   1.812  29.303  0.00  0.00    -0.228 OA
BRANCH  73  75
ATOM     75  O   UNL     1       2.595  -0.097  29.058  0.00  0.00    -0.303 OA
ATOM     76  H   UNL     1       3.104   0.472  29.658  0.00  0.00    +0.222 HD
ENDBRANCH  73  75
BRANCH  73  77
ATOM     77  O   UNL     1       2.625   1.646  27.428  0.00  0.00    -0.303 OA
ATOM     78  H   UNL     1       3.140   2.093  28.127  0.00  0.00    +0.222 HD
ENDBRANCH  73  77
ENDBRANCH  72  73
ENDBRANCH  54  72
ENDBRANCH  52  53
ENDBRANCH  51  52
ENDBRANCH  47  51
ENDBRANCH  46  47
ENDBRANCH  42  46
ENDBRANCH  41  42
ENDBRANCH  40  41
ENDBRANCH   2  40
TORSDOF 33
ENDMDL
MODEL 7
REMARK VINA RESULT:      -4.8      2.725      6.914
REMARK  Name = 
REMARK  35 active torsions:
REMARK  status: ('A' for Active; 'I' for Inactive)
REMARK    1  A    between atoms: C_1  and  C_2
REMARK    2  A    between atoms: C_2  and  C_3
REMARK    3  A    between atoms: C_2  and  C_4
REMARK    4  A    between atoms: C_2  and  C_40
REMARK    5  A    between atoms: C_4  and  O_5
REMARK    6  A    between atoms: O_5  and  P_6
REMARK    7  A    between atoms: P_6  and  O_7
REMARK    8  A    between atoms: P_6  and  O_9
REMARK    9  A    between atoms: O_9  and  P_10
REMARK   10  A    between atoms: P_10  and  O_11
REMARK   11  A    between atoms: P_10  and  O_13
REMARK   12  A    between atoms: O_13  and  C_14
REMARK   13  A    between atoms: C_14  and  C_15
REMARK   14  A    between atoms: C_18  and  N_30
REMARK   15  A    between atoms: C_20  and  O_22
REMARK   16  A    between atoms: C_23  and  O_25
REMARK   17  A    between atoms: O_25  and  P_26
REMARK   18  A    between atoms: P_26  and  O_27
REMARK   19  A    between atoms: P_26  and  O_28
REMARK   20  A    between atoms: C_40  and  O_42
REMARK   21  A    between atoms: C_40  and  C_43
REMARK   22  A    between atoms: N_45  and  C_46
REMARK   23  A    between atoms: C_46  and  C_47
REMARK   24  A    between atoms: C_47  and  C_48
REMARK   25  A    between atoms: N_50  and  C_51
REMARK   26  A    between atoms: C_51  and  C_52
REMARK   27  A    between atoms: C_52  and  S_53
REMARK   28  A    between atoms: S_53  and  C_54
REMARK   29  A    between atoms: C_54  and  C_55
REMARK   30  A    between atoms: C_55  and  C_56
REMARK   31  A    between atoms: C_56  and  C_57
REMARK   32  A    between atoms: C_57  and  C_58
REMARK   33  A    between atoms: N_60  and  C_61
REMARK   34  A    between atoms: C_61  and  C_62
REMARK   35  A    between atoms: C_62  and  C_63
REMARK                            x       y       z     vdW  Elec       q    Type
REMARK                         _______ _______ _______ _____ _____    ______ ____
ROOT
ATOM      1  C   UNL     1       9.798  -5.207  25.958  0.00  0.00    +0.016 C 
ATOM      2  C   UNL     1       8.507  -4.441  25.521  0.00  0.00    +0.024 C 
ATOM      3  C   UNL     1       7.918  -5.583  24.592  0.00  0.00    +0.016 C 
ENDROOT
BRANCH   2   4
ATOM      4  C   UNL     1       8.981  -2.857  25.167  0.00  0.00    +0.208 C 
BRANCH   4   5
ATOM      5  C   UNL     1       8.706  -1.317  25.761  0.00  0.00    +0.242 C 
ATOM      6  N   UNL     1       7.561  -0.985  26.541  0.00  0.00    -0.313 N 
ATOM      7  H   UNL     1       6.940  -1.704  26.881  0.00  0.00    +0.149 HD
ATOM      8  O   UNL     1       9.507  -0.427  25.442  0.00  0.00    -0.273 OA
BRANCH   6   9
ATOM      9  C   UNL     1       7.597   0.151  27.490  0.00  0.00    +0.113 C 
BRANCH   9  10
ATOM     10  C   UNL     1       7.253   1.595  27.134  0.00  0.00    +0.114 C 
BRANCH  10  11
ATOM     11  C   UNL     1       6.074   2.023  27.924  0.00  0.00    +0.215 C 
ATOM     12  N   UNL     1       5.564   3.227  27.502  0.00  0.00    -0.314 N 
ATOM     13  H   UNL     1       6.107   3.772  26.841  0.00  0.00    +0.149 HD
ATOM     14  O   UNL     1       5.596   1.368  28.839  0.00  0.00    -0.276 OA
BRANCH  12  15
ATOM     15  C   UNL     1       4.796   3.991  28.459  0.00  0.00    +0.115 C 
BRANCH  15  16
ATOM     16  C   UNL     1       3.311   4.042  28.066  0.00  0.00    +0.088 C 
BRANCH  16  17
ATOM     17  S   UNL     1       2.906   5.683  27.355  0.00  0.00    -0.159 S 
BRANCH  17  18
ATOM     18  C   UNL     1       4.465   6.041  26.471  0.00  0.00    +0.069 C 
BRANCH  18  19
ATOM     19  C   UNL     1       4.517   5.530  25.034  0.00  0.00    +0.011 C 
BRANCH  19  20
ATOM     20  C   UNL     1       3.196   4.867  24.637  0.00  0.00    +0.010 C 
BRANCH  20  21
ATOM     21  C   UNL     1       3.340   3.380  24.431  0.00  0.00    +0.096 C 
BRANCH  21  22
ATOM     22  C   UNL     1       4.354   3.117  23.303  0.00  0.00    +0.213 C 
ATOM     23  N   UNL     1       5.381   2.237  23.618  0.00  0.00    -0.315 N 
ATOM     24  H   UNL     1       5.669   2.472  24.563  0.00  0.00    +0.149 HD
ATOM     25  O   UNL     1       4.238   3.647  22.204  0.00  0.00    -0.276 OA
BRANCH  23  26
ATOM     26  C   UNL     1       6.459   1.852  22.663  0.00  0.00    +0.109 C 
BRANCH  26  27
ATOM     27  C   UNL     1       7.890   1.685  23.231  0.00  0.00    +0.056 C 
BRANCH  27  28
ATOM     28  C   UNL     1       9.031   2.616  23.444  0.00  0.00    -0.021 A 
ATOM     29  C   UNL     1       9.054   3.824  24.158  0.00  0.00    +0.003 A 
ATOM     30  C   UNL     1      10.174   4.536  23.725  0.00  0.00    +0.047 A 
ATOM     31  C   UNL     1      10.243   5.919  23.787  0.00  0.00    +0.026 A 
ATOM     32  C   UNL     1       9.209   6.546  24.489  0.00  0.00    +0.002 A 
ATOM     33  C   UNL     1       8.215   5.808  25.135  0.00  0.00    +0.001 A 
ATOM     34  N   UNL     1      11.007   3.630  23.129  0.00  0.00    -0.360 N 
ATOM     35  H   UNL     1      11.876   3.827  22.627  0.00  0.00    +0.165 HD
ATOM     36  C   UNL     1       8.118   4.430  24.981  0.00  0.00    +0.010 A 
ATOM     37  C   UNL     1      10.352   2.425  23.088  0.00  0.00    +0.087 A 
ENDBRANCH  27  28
ENDBRANCH  26  27
ENDBRANCH  23  26
ENDBRANCH  21  22
ENDBRANCH  20  21
ENDBRANCH  19  20
ENDBRANCH  18  19
ENDBRANCH  17  18
ENDBRANCH  16  17
ENDBRANCH  15  16
ENDBRANCH  12  15
ENDBRANCH  10  11
ENDBRANCH   9  10
ENDBRANCH   6   9
ENDBRANCH   4   5
BRANCH   4  38
ATOM     38  O   UNL     1       8.952  -2.638  23.772  0.00  0.00    -0.382 OA
ATOM     39  H   UNL     1       9.834  -2.616  23.378  0.00  0.00    +0.210 HD
ENDBRANCH   4  38
ENDBRANCH   2   4
BRANCH   2  40
ATOM     40  C   UNL     1       7.501  -4.342  26.684  0.00  0.00    +0.181 C 
BRANCH  40  41
ATOM     41  O   UNL     1       6.740  -5.537  26.773  0.00  0.00    -0.286 OA
BRANCH  41  42
ATOM     42  P   UNL     1       6.129  -6.016  28.178  0.00  0.00    +0.483 P 
ATOM     43  O   UNL     1       7.115  -6.738  29.032  0.00  0.00    -0.227 OA
BRANCH  42  44
ATOM     44  O   UNL     1       5.753  -4.567  28.746  0.00  0.00    -0.302 OA
ATOM     45  H   UNL     1       5.337  -4.729  29.623  0.00  0.00    +0.222 HD
ENDBRANCH  42  44
BRANCH  42  46
ATOM     46  O   UNL     1       4.767  -6.757  27.823  0.00  0.00    -0.186 OA
BRANCH  46  47
ATOM     47  P   UNL     1       3.219  -5.999  27.678  0.00  0.00    +0.483 P 
ATOM     48  O   UNL     1       3.226  -5.673  29.171  0.00  0.00    -0.227 OA
BRANCH  47  49
ATOM     49  O   UNL     1       2.476  -7.424  27.593  0.00  0.00    -0.302 OA
ATOM     50  H   UNL     1       1.564  -7.341  27.932  0.00  0.00    +0.222 HD
ENDBRANCH  47  49
BRANCH  47  51
ATOM     51  O   UNL     1       1.671  -5.242  27.534  0.00  0.00    -0.284 OA
BRANCH  51  52
ATOM     52  C   UNL     1       1.667  -3.913  28.052  0.00  0.00    +0.206 C 
BRANCH  52  53
ATOM     53  C   UNL     1       1.771  -2.882  26.917  0.00  0.00    +0.179 C 
ATOM     54  C   UNL     1       2.410  -1.578  27.387  0.00  0.00    +0.194 C 
ATOM     55  C   UNL     1       3.799  -1.583  26.769  0.00  0.00    +0.196 C 
ATOM     56  C   UNL     1       3.961  -2.968  26.139  0.00  0.00    +0.253 C 
ATOM     57  O   UNL     1       2.614  -3.409  25.863  0.00  0.00    -0.346 OA
BRANCH  56  58
ATOM     58  N   UNL     1       4.721  -2.964  24.898  0.00  0.00    -0.286 N 
ATOM     59  C   UNL     1       4.782  -4.000  23.997  0.00  0.00    +0.167 A 
ATOM     60  N   UNL     1       4.248  -5.228  24.122  0.00  0.00    -0.216 NA
ATOM     61  C   UNL     1       4.531  -5.984  23.039  0.00  0.00    +0.225 A 
ATOM     62  N   UNL     1       5.217  -5.636  21.938  0.00  0.00    -0.219 NA
ATOM     63  C   UNL     1       5.706  -4.369  21.845  0.00  0.00    +0.147 A 
ATOM     64  N   UNL     1       6.383  -3.995  20.702  0.00  0.00    -0.341 N 
ATOM     65  H   UNL     1       6.980  -3.211  20.807  0.00  0.00    +0.144 HD
ATOM     66  H   UNL     1       6.729  -4.813  20.183  0.00  0.00    +0.144 HD
ATOM     67  C   UNL     1       5.511  -3.502  22.932  0.00  0.00    +0.147 A 
ATOM     68  N   UNL     1       5.905  -2.204  23.173  0.00  0.00    -0.231 NA
ATOM     69  C   UNL     1       5.408  -1.905  24.353  0.00  0.00    +0.203 A 
ENDBRANCH  56  58
BRANCH  55  70
ATOM     70  O   UNL     1       4.770  -1.282  27.770  0.00  0.00    -0.385 OA
ATOM     71  H   UNL     1       4.892  -2.102  28.296  0.00  0.00    +0.210 HD
ENDBRANCH  55  70
BRANCH  54  72
ATOM     72  O   UNL     1       1.658  -0.460  26.879  0.00  0.00    -0.278 OA
BRANCH  72  73
ATOM     73  P   UNL     1       1.027   0.541  28.141  0.00  0.00    +0.473 P 
ATOM     74  O   UNL     1       0.462   1.438  29.271  0.00  0.00    -0.228 OA
BRANCH  73  75
ATOM     75  O   UNL     1       2.605   0.786  28.508  0.00  0.00    -0.303 OA
ATOM     76  H   UNL     1       3.063  -0.049  28.704  0.00  0.00    +0.222 HD
ENDBRANCH  73  75
BRANCH  73  77
ATOM     77  O   UNL     1       1.003   1.714  27.001  0.00  0.00    -0.303 OA
ATOM     78  H   UNL     1       0.061   1.892  26.818  0.00  0.00    +0.222 HD
ENDBRANCH  73  77
ENDBRANCH  72  73
ENDBRANCH  54  72
ENDBRANCH  52  53
ENDBRANCH  51  52
ENDBRANCH  47  51
ENDBRANCH  46  47
ENDBRANCH  42  46
ENDBRANCH  41  42
ENDBRANCH  40  41
ENDBRANCH   2  40
TORSDOF 33
ENDMDL
MODEL 8
REMARK VINA RESULT:      -4.7      3.523      7.616
REMARK  Name = 
REMARK  35 active torsions:
REMARK  status: ('A' for Active; 'I' for Inactive)
REMARK    1  A    between atoms: C_1  and  C_2
REMARK    2  A    between atoms: C_2  and  C_3
REMARK    3  A    between atoms: C_2  and  C_4
REMARK    4  A    between atoms: C_2  and  C_40
REMARK    5  A    between atoms: C_4  and  O_5
REMARK    6  A    between atoms: O_5  and  P_6
REMARK    7  A    between atoms: P_6  and  O_7
REMARK    8  A    between atoms: P_6  and  O_9
REMARK    9  A    between atoms: O_9  and  P_10
REMARK   10  A    between atoms: P_10  and  O_11
REMARK   11  A    between atoms: P_10  and  O_13
REMARK   12  A    between atoms: O_13  and  C_14
REMARK   13  A    between atoms: C_14  and  C_15
REMARK   14  A    between atoms: C_18  and  N_30
REMARK   15  A    between atoms: C_20  and  O_22
REMARK   16  A    between atoms: C_23  and  O_25
REMARK   17  A    between atoms: O_25  and  P_26
REMARK   18  A    between atoms: P_26  and  O_27
REMARK   19  A    between atoms: P_26  and  O_28
REMARK   20  A    between atoms: C_40  and  O_42
REMARK   21  A    between atoms: C_40  and  C_43
REMARK   22  A    between atoms: N_45  and  C_46
REMARK   23  A    between atoms: C_46  and  C_47
REMARK   24  A    between atoms: C_47  and  C_48
REMARK   25  A    between atoms: N_50  and  C_51
REMARK   26  A    between atoms: C_51  and  C_52
REMARK   27  A    between atoms: C_52  and  S_53
REMARK   28  A    between atoms: S_53  and  C_54
REMARK   29  A    between atoms: C_54  and  C_55
REMARK   30  A    between atoms: C_55  and  C_56
REMARK   31  A    between atoms: C_56  and  C_57
REMARK   32  A    between atoms: C_57  and  C_58
REMARK   33  A    between atoms: N_60  and  C_61
REMARK   34  A    between atoms: C_61  and  C_62
REMARK   35  A    between atoms: C_62  and  C_63
REMARK                            x       y       z     vdW  Elec       q    Type
REMARK                         _______ _______ _______ _____ _____    ______ ____
ROOT
ATOM      1  C   UNL     1       6.704  -1.088  24.818  0.00  0.00    +0.016 C 
ATOM      2  C   UNL     1       6.487  -1.054  26.367  0.00  0.00    +0.024 C 
ATOM      3  C   UNL     1       7.784  -1.881  26.754  0.00  0.00    +0.016 C 
ENDROOT
BRANCH   2   4
ATOM      4  C   UNL     1       4.849  -1.372  26.633  0.00  0.00    +0.208 C 
BRANCH   4   5
ATOM      5  C   UNL     1       3.767  -2.620  26.363  0.00  0.00    +0.242 C 
ATOM      6  N   UNL     1       3.322  -2.986  25.060  0.00  0.00    -0.313 N 
ATOM      7  H   UNL     1       3.752  -2.592  24.236  0.00  0.00    +0.149 HD
ATOM      8  O   UNL     1       3.293  -3.193  27.354  0.00  0.00    -0.273 OA
BRANCH   6   9
ATOM      9  C   UNL     1       2.849  -4.361  24.782  0.00  0.00    +0.113 C 
BRANCH   9  10
ATOM     10  C   UNL     1       2.852  -5.022  23.406  0.00  0.00    +0.114 C 
BRANCH  10  11
ATOM     11  C   UNL     1       1.600  -5.798  23.237  0.00  0.00    +0.215 C 
ATOM     12  N   UNL     1       1.290  -6.548  24.346  0.00  0.00    -0.314 N 
ATOM     13  H   UNL     1       1.989  -6.637  25.075  0.00  0.00    +0.149 HD
ATOM     14  O   UNL     1       0.909  -5.761  22.229  0.00  0.00    -0.276 OA
BRANCH  12  15
ATOM     15  C   UNL     1       0.443  -7.702  24.147  0.00  0.00    +0.115 C 
BRANCH  15  16
ATOM     16  C   UNL     1       0.566  -8.691  25.317  0.00  0.00    +0.088 C 
BRANCH  16  17
ATOM     17  S   UNL     1       1.586  -7.959  26.653  0.00  0.00    -0.159 S 
BRANCH  17  18
ATOM     18  C   UNL     1       0.462  -8.189  28.075  0.00  0.00    +0.069 C 
BRANCH  18  19
ATOM     19  C   UNL     1       1.146  -8.631  29.366  0.00  0.00    +0.011 C 
BRANCH  19  20
ATOM     20  C   UNL     1       1.303  -7.458  30.336  0.00  0.00    +0.010 C 
BRANCH  20  21
ATOM     21  C   UNL     1       1.271  -6.124  29.633  0.00  0.00    +0.096 C 
BRANCH  21  22
ATOM     22  C   UNL     1       2.548  -5.335  29.975  0.00  0.00    +0.213 C 
ATOM     23  N   UNL     1       3.742  -5.970  29.666  0.00  0.00    -0.315 N 
ATOM     24  H   UNL     1       3.618  -6.943  29.932  0.00  0.00    +0.149 HD
ATOM     25  O   UNL     1       2.491  -4.217  30.475  0.00  0.00    -0.276 OA
BRANCH  23  26
ATOM     26  C   UNL     1       5.085  -5.372  29.919  0.00  0.00    +0.109 C 
BRANCH  26  27
ATOM     27  C   UNL     1       6.061  -5.276  28.721  0.00  0.00    +0.056 C 
BRANCH  27  28
ATOM     28  C   UNL     1       6.005  -5.732  27.306  0.00  0.00    -0.021 A 
ATOM     29  C   UNL     1       6.986  -5.619  26.309  0.00  0.00    +0.003 A 
ATOM     30  C   UNL     1       6.344  -5.778  25.079  0.00  0.00    +0.047 A 
ATOM     31  C   UNL     1       6.840  -5.228  23.908  0.00  0.00    +0.026 A 
ATOM     32  C   UNL     1       8.120  -4.672  23.993  0.00  0.00    +0.002 A 
ATOM     33  C   UNL     1       8.864  -4.735  25.173  0.00  0.00    +0.001 A 
ATOM     34  N   UNL     1       5.149  -6.391  25.339  0.00  0.00    -0.360 N 
ATOM     35  H   UNL     1       4.396  -6.578  24.675  0.00  0.00    +0.165 HD
ATOM     36  C   UNL     1       8.310  -5.210  26.357  0.00  0.00    +0.010 A 
ATOM     37  C   UNL     1       5.016  -6.483  26.701  0.00  0.00    +0.087 A 
ENDBRANCH  27  28
ENDBRANCH  26  27
ENDBRANCH  23  26
ENDBRANCH  21  22
ENDBRANCH  20  21
ENDBRANCH  19  20
ENDBRANCH  18  19
ENDBRANCH  17  18
ENDBRANCH  16  17
ENDBRANCH  15  16
ENDBRANCH  12  15
ENDBRANCH  10  11
ENDBRANCH   9  10
ENDBRANCH   6   9
ENDBRANCH   4   5
BRANCH   4  38
ATOM     38  O   UNL     1       4.071  -0.240  26.305  0.00  0.00    -0.382 OA
ATOM     39  H   UNL     1       3.221  -0.224  26.765  0.00  0.00    +0.210 HD
ENDBRANCH   4  38
ENDBRANCH   2   4
BRANCH   2  40
ATOM     40  C   UNL     1       6.753   0.354  26.933  0.00  0.00    +0.181 C 
BRANCH  40  41
ATOM     41  O   UNL     1       6.083   0.515  28.174  0.00  0.00    -0.286 OA
BRANCH  41  42
ATOM     42  P   UNL     1       6.367   1.796  29.099  0.00  0.00    +0.483 P 
ATOM     43  O   UNL     1       6.783   1.440  30.485  0.00  0.00    -0.227 OA
BRANCH  42  44
ATOM     44  O   UNL     1       7.558   2.420  28.229  0.00  0.00    -0.302 OA
ATOM     45  H   UNL     1       7.197   3.253  27.850  0.00  0.00    +0.222 HD
ENDBRANCH  42  44
BRANCH  42  46
ATOM     46  O   UNL     1       5.100   2.742  28.920  0.00  0.00    -0.186 OA
BRANCH  46  47
ATOM     47  P   UNL     1       4.935   3.986  27.730  0.00  0.00    +0.483 P 
ATOM     48  O   UNL     1       3.482   4.208  28.146  0.00  0.00    -0.227 OA
BRANCH  47  49
ATOM     49  O   UNL     1       4.842   2.905  26.542  0.00  0.00    -0.302 OA
ATOM     50  H   UNL     1       3.927   2.867  26.202  0.00  0.00    +0.222 HD
ENDBRANCH  47  49
BRANCH  47  51
ATOM     51  O   UNL     1       4.770   5.230  26.540  0.00  0.00    -0.284 OA
BRANCH  51  52
ATOM     52  C   UNL     1       5.954   5.397  25.763  0.00  0.00    +0.206 C 
BRANCH  52  53
ATOM     53  C   UNL     1       5.729   4.941  24.313  0.00  0.00    +0.179 C 
ATOM     54  C   UNL     1       6.356   5.902  23.308  0.00  0.00    +0.194 C 
ATOM     55  C   UNL     1       7.571   5.162  22.771  0.00  0.00    +0.196 C 
ATOM     56  C   UNL     1       7.693   3.901  23.629  0.00  0.00    +0.253 C 
ATOM     57  O   UNL     1       6.355   3.651  24.111  0.00  0.00    -0.346 OA
BRANCH  56  58
ATOM     58  N   UNL     1       8.158   2.733  22.896  0.00  0.00    -0.286 N 
ATOM     59  C   UNL     1       8.882   1.694  23.427  0.00  0.00    +0.167 A 
ATOM     60  N   UNL     1       9.379   1.593  24.674  0.00  0.00    -0.216 NA
ATOM     61  C   UNL     1      10.052   0.433  24.826  0.00  0.00    +0.225 A 
ATOM     62  N   UNL     1      10.230  -0.551  23.930  0.00  0.00    -0.219 NA
ATOM     63  C   UNL     1       9.675  -0.416  22.693  0.00  0.00    +0.147 A 
ATOM     64  N   UNL     1       9.826  -1.438  21.778  0.00  0.00    -0.341 N 
ATOM     65  H   UNL     1       9.700  -1.173  20.831  0.00  0.00    +0.144 HD
ATOM     66  H   UNL     1      10.619  -2.047  22.018  0.00  0.00    +0.144 HD
ATOM     67  C   UNL     1       8.986   0.772  22.402  0.00  0.00    +0.147 A 
ATOM     68  N   UNL     1       8.362   1.234  21.263  0.00  0.00    -0.231 NA
ATOM     69  C   UNL     1       7.864   2.405  21.593  0.00  0.00    +0.203 A 
ENDBRANCH  56  58
BRANCH  55  70
ATOM     70  O   UNL     1       8.714   6.015  22.824  0.00  0.00    -0.385 OA
ATOM     71  H   UNL     1       9.475   5.446  23.073  0.00  0.00    +0.210 HD
ENDBRANCH  55  70
BRANCH  54  72
ATOM     72  O   UNL     1       5.429   6.153  22.234  0.00  0.00    -0.278 OA
BRANCH  72  73
ATOM     73  P   UNL     1       3.837   5.577  22.587  0.00  0.00    +0.473 P 
ATOM     74  O   UNL     1       2.411   5.061  22.902  0.00  0.00    -0.228 OA
BRANCH  73  75
ATOM     75  O   UNL     1       3.445   6.287  21.163  0.00  0.00    -0.303 OA
ATOM     76  H   UNL     1       2.965   5.678  20.577  0.00  0.00    +0.222 HD
ENDBRANCH  73  75
BRANCH  73  77
ATOM     77  O   UNL     1       4.338   4.191  21.877  0.00  0.00    -0.303 OA
ATOM     78  H   UNL     1       3.928   3.465  22.385  0.00  0.00    +0.222 HD
ENDBRANCH  73  77
ENDBRANCH  72  73
ENDBRANCH  54  72
ENDBRANCH  52  53
ENDBRANCH  51  52
ENDBRANCH  47  51
ENDBRANCH  46  47
ENDBRANCH  42  46
ENDBRANCH  41  42
ENDBRANCH  40  41
ENDBRANCH   2  40
TORSDOF 33
ENDMDL
MODEL 9
REMARK VINA RESULT:      -4.6      2.740      6.333
REMARK  Name = 
REMARK  35 active torsions:
REMARK  status: ('A' for Active; 'I' for Inactive)
REMARK    1  A    between atoms: C_1  and  C_2
REMARK    2  A    between atoms: C_2  and  C_3
REMARK    3  A    between atoms: C_2  and  C_4
REMARK    4  A    between atoms: C_2  and  C_40
REMARK    5  A    between atoms: C_4  and  O_5
REMARK    6  A    between atoms: O_5  and  P_6
REMARK    7  A    between atoms: P_6  and  O_7
REMARK    8  A    between atoms: P_6  and  O_9
REMARK    9  A    between atoms: O_9  and  P_10
REMARK   10  A    between atoms: P_10  and  O_11
REMARK   11  A    between atoms: P_10  and  O_13
REMARK   12  A    between atoms: O_13  and  C_14
REMARK   13  A    between atoms: C_14  and  C_15
REMARK   14  A    between atoms: C_18  and  N_30
REMARK   15  A    between atoms: C_20  and  O_22
REMARK   16  A    between atoms: C_23  and  O_25
REMARK   17  A    between atoms: O_25  and  P_26
REMARK   18  A    between atoms: P_26  and  O_27
REMARK   19  A    between atoms: P_26  and  O_28
REMARK   20  A    between atoms: C_40  and  O_42
REMARK   21  A    between atoms: C_40  and  C_43
REMARK   22  A    between atoms: N_45  and  C_46
REMARK   23  A    between atoms: C_46  and  C_47
REMARK   24  A    between atoms: C_47  and  C_48
REMARK   25  A    between atoms: N_50  and  C_51
REMARK   26  A    between atoms: C_51  and  C_52
REMARK   27  A    between atoms: C_52  and  S_53
REMARK   28  A    between atoms: S_53  and  C_54
REMARK   29  A    between atoms: C_54  and  C_55
REMARK   30  A    between atoms: C_55  and  C_56
REMARK   31  A    between atoms: C_56  and  C_57
REMARK   32  A    between atoms: C_57  and  C_58
REMARK   33  A    between atoms: N_60  and  C_61
REMARK   34  A    between atoms: C_61  and  C_62
REMARK   35  A    between atoms: C_62  and  C_63
REMARK                            x       y       z     vdW  Elec       q    Type
REMARK                         _______ _______ _______ _____ _____    ______ ____
ROOT
ATOM      1  C   UNL     1      10.145  -5.248  25.748  0.00  0.00    +0.016 C 
ATOM      2  C   UNL     1       8.868  -4.412  25.411  0.00  0.00    +0.024 C 
ATOM      3  C   UNL     1       8.286  -5.396  24.311  0.00  0.00    +0.016 C 
ENDROOT
BRANCH   2   4
ATOM      4  C   UNL     1       9.359  -2.798  25.306  0.00  0.00    +0.208 C 
BRANCH   4   5
ATOM      5  C   UNL     1       8.931  -1.324  25.974  0.00  0.00    +0.242 C 
ATOM      6  N   UNL     1       7.810  -1.167  26.840  0.00  0.00    -0.313 N 
ATOM      7  H   UNL     1       7.312  -1.970  27.193  0.00  0.00    +0.149 HD
ATOM      8  O   UNL     1       9.587  -0.329  25.637  0.00  0.00    -0.273 OA
BRANCH   6   9
ATOM      9  C   UNL     1       7.766  -0.064  27.826  0.00  0.00    +0.113 C 
BRANCH   9  10
ATOM     10  C   UNL     1       7.262   1.347  27.533  0.00  0.00    +0.114 C 
BRANCH  10  11
ATOM     11  C   UNL     1       6.025   1.592  28.312  0.00  0.00    +0.215 C 
ATOM     12  N   UNL     1       5.758   2.931  28.473  0.00  0.00    -0.314 N 
ATOM     13  H   UNL     1       6.477   3.597  28.212  0.00  0.00    +0.149 HD
ATOM     14  O   UNL     1       5.309   0.702  28.748  0.00  0.00    -0.276 OA
BRANCH  12  15
ATOM     15  C   UNL     1       4.934   3.308  29.599  0.00  0.00    +0.115 C 
BRANCH  15  16
ATOM     16  C   UNL     1       3.542   3.770  29.139  0.00  0.00    +0.088 C 
BRANCH  16  17
ATOM     17  S   UNL     1       3.198   5.456  29.772  0.00  0.00    -0.159 S 
BRANCH  17  18
ATOM     18  C   UNL     1       4.758   6.292  29.316  0.00  0.00    +0.069 C 
BRANCH  18  19
ATOM     19  C   UNL     1       4.987   6.442  27.815  0.00  0.00    +0.011 C 
BRANCH  19  20
ATOM     20  C   UNL     1       3.669   6.692  27.078  0.00  0.00    +0.010 C 
BRANCH  20  21
ATOM     21  C   UNL     1       3.464   5.737  25.930  0.00  0.00    +0.096 C 
BRANCH  21  22
ATOM     22  C   UNL     1       4.395   6.125  24.768  0.00  0.00    +0.213 C 
ATOM     23  N   UNL     1       5.496   5.301  24.584  0.00  0.00    -0.315 N 
ATOM     24  H   UNL     1       5.847   5.094  25.515  0.00  0.00    +0.149 HD
ATOM     25  O   UNL     1       4.155   7.094  24.055  0.00  0.00    -0.276 OA
BRANCH  23  26
ATOM     26  C   UNL     1       6.513   5.508  23.514  0.00  0.00    +0.109 C 
BRANCH  26  27
ATOM     27  C   UNL     1       7.481   4.338  23.211  0.00  0.00    +0.056 C 
BRANCH  27  28
ATOM     28  C   UNL     1       8.938   4.124  23.422  0.00  0.00    -0.021 A 
ATOM     29  C   UNL     1       9.839   4.899  24.169  0.00  0.00    +0.003 A 
ATOM     30  C   UNL     1      11.123   4.576  23.728  0.00  0.00    +0.047 A 
ATOM     31  C   UNL     1      12.186   5.460  23.827  0.00  0.00    +0.026 A 
ATOM     32  C   UNL     1      11.942   6.619  24.571  0.00  0.00    +0.002 A 
ATOM     33  C   UNL     1      10.724   6.825  25.220  0.00  0.00    +0.001 A 
ATOM     34  N   UNL     1      11.025   3.371  23.087  0.00  0.00    -0.360 N 
ATOM     35  H   UNL     1      11.761   2.886  22.570  0.00  0.00    +0.165 HD
ATOM     36  C   UNL     1       9.646   5.967  25.031  0.00  0.00    +0.010 A 
ATOM     37  C   UNL     1       9.695   3.038  23.029  0.00  0.00    +0.087 A 
ENDBRANCH  27  28
ENDBRANCH  26  27
ENDBRANCH  23  26
ENDBRANCH  21  22
ENDBRANCH  20  21
ENDBRANCH  19  20
ENDBRANCH  18  19
ENDBRANCH  17  18
ENDBRANCH  16  17
ENDBRANCH  15  16
ENDBRANCH  12  15
ENDBRANCH  10  11
ENDBRANCH   9  10
ENDBRANCH   6   9
ENDBRANCH   4   5
BRANCH   4  38
ATOM     38  O   UNL     1       9.600  -2.446  23.960  0.00  0.00    -0.382 OA
ATOM     39  H   UNL     1       9.021  -1.737  23.650  0.00  0.00    +0.210 HD
ENDBRANCH   4  38
ENDBRANCH   2   4
BRANCH   2  40
ATOM     40  C   UNL     1       7.842  -4.478  26.559  0.00  0.00    +0.181 C 
BRANCH  40  41
ATOM     41  O   UNL     1       7.553  -5.832  26.876  0.00  0.00    -0.286 OA
BRANCH  41  42
ATOM     42  P   UNL     1       6.384  -6.198  27.914  0.00  0.00    +0.483 P 
ATOM     43  O   UNL     1       6.888  -6.820  29.171  0.00  0.00    -0.227 OA
BRANCH  42  44
ATOM     44  O   UNL     1       5.826  -4.713  28.131  0.00  0.00    -0.302 OA
ATOM     45  H   UNL     1       5.217  -4.549  27.376  0.00  0.00    +0.222 HD
ENDBRANCH  42  44
BRANCH  42  46
ATOM     46  O   UNL     1       5.298  -6.997  27.071  0.00  0.00    -0.186 OA
BRANCH  46  47
ATOM     47  P   UNL     1       3.854  -6.323  26.397  0.00  0.00    +0.483 P 
ATOM     48  O   UNL     1       3.226  -6.248  27.788  0.00  0.00    -0.227 OA
BRANCH  47  49
ATOM     49  O   UNL     1       3.389  -7.758  25.835  0.00  0.00    -0.302 OA
ATOM     50  H   UNL     1       2.625  -7.646  25.237  0.00  0.00    +0.222 HD
ENDBRANCH  47  49
BRANCH  47  51
ATOM     51  O   UNL     1       2.411  -5.650  25.723  0.00  0.00    -0.284 OA
BRANCH  51  52
ATOM     52  C   UNL     1       1.868  -4.611  26.535  0.00  0.00    +0.206 C 
BRANCH  52  53
ATOM     53  C   UNL     1       2.054  -3.240  25.867  0.00  0.00    +0.179 C 
ATOM     54  C   UNL     1       2.555  -2.188  26.852  0.00  0.00    +0.194 C 
ATOM     55  C   UNL     1       4.009  -1.959  26.468  0.00  0.00    +0.196 C 
ATOM     56  C   UNL     1       4.324  -3.023  25.413  0.00  0.00    +0.253 C 
ATOM     57  O   UNL     1       3.048  -3.345  24.819  0.00  0.00    -0.346 OA
BRANCH  56  58
ATOM     58  N   UNL     1       5.230  -2.566  24.370  0.00  0.00    -0.286 N 
ATOM     59  C   UNL     1       5.711  -1.286  24.236  0.00  0.00    +0.167 A 
ATOM     60  N   UNL     1       5.376  -0.204  24.962  0.00  0.00    -0.216 NA
ATOM     61  C   UNL     1       6.044   0.887  24.527  0.00  0.00    +0.225 A 
ATOM     62  N   UNL     1       6.950   0.969  23.540  0.00  0.00    -0.219 NA
ATOM     63  C   UNL     1       7.281  -0.164  22.859  0.00  0.00    +0.147 A 
ATOM     64  N   UNL     1       8.236  -0.092  21.865  0.00  0.00    -0.341 N 
ATOM     65  H   UNL     1       8.208  -0.831  21.205  0.00  0.00    +0.144 HD
ATOM     66  H   UNL     1       8.355   0.871  21.524  0.00  0.00    +0.144 HD
ATOM     67  C   UNL     1       6.618  -1.355  23.194  0.00  0.00    +0.147 A 
ATOM     68  N   UNL     1       6.683  -2.634  22.685  0.00  0.00    -0.231 NA
ATOM     69  C   UNL     1       5.850  -3.340  23.417  0.00  0.00    +0.203 A 
ENDBRANCH  56  58
BRANCH  55  70
ATOM     70  O   UNL     1       4.830  -2.032  27.631  0.00  0.00    -0.385 OA
ATOM     71  H   UNL     1       4.461  -2.751  28.189  0.00  0.00    +0.210 HD
ENDBRANCH  55  70
BRANCH  54  72
ATOM     72  O   UNL     1       1.811  -0.968  26.679  0.00  0.00    -0.278 OA
BRANCH  72  73
ATOM     73  P   UNL     1       1.137  -0.388  28.163  0.00  0.00    +0.473 P 
ATOM     74  O   UNL     1       0.534   0.131  29.492  0.00  0.00    -0.228 OA
BRANCH  73  75
ATOM     75  O   UNL     1       1.967  -1.632  28.833  0.00  0.00    -0.303 OA
ATOM     76  H   UNL     1       2.498  -2.107  28.172  0.00  0.00    +0.222 HD
ENDBRANCH  73  75
BRANCH  73  77
ATOM     77  O   UNL     1       2.425   0.620  28.187  0.00  0.00    -0.303 OA
ATOM     78  H   UNL     1       2.115   1.443  28.610  0.00  0.00    +0.222 HD
ENDBRANCH  73  77
ENDBRANCH  72  73
ENDBRANCH  54  72
ENDBRANCH  52  53
ENDBRANCH  51  52
ENDBRANCH  47  51
ENDBRANCH  46  47
ENDBRANCH  42  46
ENDBRANCH  41  42
ENDBRANCH  40  41
ENDBRANCH   2  40
TORSDOF 33
ENDMDL
