MODEL 1
REMARK VINA RESULT:      -7.8      0.000      0.000
REMARK  Name = 
REMARK  3 active torsions:
REMARK  status: ('A' for Active; 'I' for Inactive)
REMARK    1  A    between atoms: C_8  and  C_18
REMARK    2  A    between atoms: C_14  and  O_15
REMARK    3  A    between atoms: C_21  and  O_22
REMARK                            x       y       z     vdW  Elec       q    Type
REMARK                         _______ _______ _______ _____ _____    ______ ____
ROOT
ATOM      1  C   UNL     1       9.055  -3.829  24.456  0.00  0.00    +0.030 C 
ATOM      2  C   UNL     1       7.935  -4.137  23.492  0.00  0.00    +0.001 A 
ATOM      3  C   UNL     1       7.330  -5.406  23.494  0.00  0.00    +0.053 A 
ATOM      4  C   UNL     1       6.270  -5.674  22.633  0.00  0.00    +0.117 A 
ATOM      5  C   UNL     1       5.806  -4.707  21.752  0.00  0.00    +0.049 A 
ATOM      6  C   UNL     1       6.426  -3.459  21.713  0.00  0.00    +0.049 A 
ATOM      7  C   UNL     1       7.499  -3.182  22.563  0.00  0.00    +0.125 A 
ATOM      8  O   UNL     1       8.045  -1.928  22.447  0.00  0.00    -0.484 OA
ATOM      9  C   UNL     1       9.360  -1.800  23.006  0.00  0.00    +0.207 C 
ATOM     10  C   UNL     1       9.427  -2.345  24.438  0.00  0.00    +0.042 C 
ATOM     11  C   UNL     1       8.433  -1.707  25.420  0.00  0.00    +0.008 C 
ATOM     12  C   UNL     1       8.196  -2.758  26.494  0.00  0.00    +0.001 C 
ATOM     13  C   UNL     1       8.712  -4.081  25.932  0.00  0.00    +0.009 C 
ENDROOT
BRANCH   9  14
ATOM     14  C   UNL     1       9.820  -0.348  22.959  0.00  0.00    -0.007 A 
ATOM     15  C   UNL     1       9.484   0.496  21.889  0.00  0.00    +0.011 A 
ATOM     16  C   UNL     1       9.830   1.850  21.912  0.00  0.00    +0.046 A 
ATOM     17  C   UNL     1      10.516   2.367  23.003  0.00  0.00    +0.117 A 
ATOM     18  C   UNL     1      10.884   1.548  24.064  0.00  0.00    +0.046 A 
ATOM     19  C   UNL     1      10.535   0.194  24.041  0.00  0.00    +0.011 A 
BRANCH  17  20
ATOM     20  O   UNL     1      10.802   3.700  23.000  0.00  0.00    -0.507 OA
ATOM     21  H   UNL     1      11.748   3.813  22.815  0.00  0.00    +0.292 HD
ENDBRANCH  17  20
ENDBRANCH   9  14
BRANCH   4  22
ATOM     22  O   UNL     1       5.650  -6.888  22.630  0.00  0.00    -0.507 OA
ATOM     23  H   UNL     1       4.768  -6.788  22.234  0.00  0.00    +0.292 HD
ENDBRANCH   4  22
TORSDOF 3
ENDMDL
MODEL 2
REMARK VINA RESULT:      -7.6      1.597      1.849
REMARK  Name = 
REMARK  3 active torsions:
REMARK  status: ('A' for Active; 'I' for Inactive)
REMARK    1  A    between atoms: C_8  and  C_18
REMARK    2  A    between atoms: C_14  and  O_15
REMARK    3  A    between atoms: C_21  and  O_22
REMARK                            x       y       z     vdW  Elec       q    Type
REMARK                         _______ _______ _______ _____ _____    ______ ____
ROOT
ATOM      1  C   UNL     1       6.833  -3.361  25.404  0.00  0.00    +0.030 C 
ATOM      2  C   UNL     1       6.434  -4.318  24.305  0.00  0.00    +0.001 A 
ATOM      3  C   UNL     1       5.707  -5.481  24.611  0.00  0.00    +0.053 A 
ATOM      4  C   UNL     1       5.306  -6.340  23.592  0.00  0.00    +0.117 A 
ATOM      5  C   UNL     1       5.626  -6.074  22.269  0.00  0.00    +0.049 A 
ATOM      6  C   UNL     1       6.382  -4.944  21.959  0.00  0.00    +0.049 A 
ATOM      7  C   UNL     1       6.802  -4.082  22.973  0.00  0.00    +0.125 A 
ATOM      8  O   UNL     1       7.544  -3.000  22.569  0.00  0.00    -0.484 OA
ATOM      9  C   UNL     1       8.296  -2.371  23.617  0.00  0.00    +0.207 C 
ATOM     10  C   UNL     1       7.424  -2.067  24.841  0.00  0.00    +0.042 C 
ATOM     11  C   UNL     1       6.192  -1.195  24.557  0.00  0.00    +0.008 C 
ATOM     12  C   UNL     1       5.185  -1.554  25.641  0.00  0.00    +0.001 C 
ATOM     13  C   UNL     1       5.665  -2.861  26.267  0.00  0.00    +0.009 C 
ENDROOT
BRANCH   9  14
ATOM     14  C   UNL     1       8.968  -1.103  23.104  0.00  0.00    -0.007 A 
ATOM     15  C   UNL     1       8.812  -0.674  21.777  0.00  0.00    +0.011 A 
ATOM     16  C   UNL     1       9.353   0.543  21.353  0.00  0.00    +0.046 A 
ATOM     17  C   UNL     1      10.055   1.336  22.252  0.00  0.00    +0.117 A 
ATOM     18  C   UNL     1      10.246   0.922  23.564  0.00  0.00    +0.046 A 
ATOM     19  C   UNL     1       9.702  -0.294  23.989  0.00  0.00    +0.011 A 
BRANCH  17  20
ATOM     20  O   UNL     1      10.535   2.531  21.805  0.00  0.00    -0.507 OA
ATOM     21  H   UNL     1       9.786   3.078  21.521  0.00  0.00    +0.292 HD
ENDBRANCH  17  20
ENDBRANCH   9  14
BRANCH   4  22
ATOM     22  O   UNL     1       4.581  -7.464  23.859  0.00  0.00    -0.507 OA
ATOM     23  H   UNL     1       5.141  -8.088  24.350  0.00  0.00    +0.292 HD
ENDBRANCH   4  22
TORSDOF 3
ENDMDL
MODEL 3
REMARK VINA RESULT:      -7.4      2.058      3.499
REMARK  Name = 
REMARK  3 active torsions:
REMARK  status: ('A' for Active; 'I' for Inactive)
REMARK    1  A    between atoms: C_8  and  C_18
REMARK    2  A    between atoms: C_14  and  O_15
REMARK    3  A    between atoms: C_21  and  O_22
REMARK                            x       y       z     vdW  Elec       q    Type
REMARK                         _______ _______ _______ _____ _____    ______ ____
ROOT
ATOM      1  C   UNL     1       5.413  -3.671  23.691  0.00  0.00    +0.030 C 
ATOM      2  C   UNL     1       6.111  -4.245  24.901  0.00  0.00    +0.001 A 
ATOM      3  C   UNL     1       5.524  -5.303  25.618  0.00  0.00    +0.053 A 
ATOM      4  C   UNL     1       6.188  -5.858  26.708  0.00  0.00    +0.117 A 
ATOM      5  C   UNL     1       7.423  -5.372  27.114  0.00  0.00    +0.049 A 
ATOM      6  C   UNL     1       7.994  -4.296  26.434  0.00  0.00    +0.049 A 
ATOM      7  C   UNL     1       7.332  -3.722  25.348  0.00  0.00    +0.125 A 
ATOM      8  O   UNL     1       7.972  -2.667  24.748  0.00  0.00    -0.484 OA
ATOM      9  C   UNL     1       7.126  -1.847  23.929  0.00  0.00    +0.207 C 
ATOM     10  C   UNL     1       6.308  -2.684  22.937  0.00  0.00    +0.042 C 
ATOM     11  C   UNL     1       7.139  -3.581  22.008  0.00  0.00    +0.008 C 
ATOM     12  C   UNL     1       6.217  -4.730  21.624  0.00  0.00    +0.001 C 
ATOM     13  C   UNL     1       5.054  -4.704  22.613  0.00  0.00    +0.009 C 
ENDROOT
BRANCH   9  14
ATOM     14  C   UNL     1       7.950  -0.795  23.196  0.00  0.00    -0.007 A 
ATOM     15  C   UNL     1       7.352   0.333  22.613  0.00  0.00    +0.011 A 
ATOM     16  C   UNL     1       8.133   1.336  22.033  0.00  0.00    +0.046 A 
ATOM     17  C   UNL     1       9.517   1.215  22.030  0.00  0.00    +0.117 A 
ATOM     18  C   UNL     1      10.133   0.096  22.576  0.00  0.00    +0.046 A 
ATOM     19  C   UNL     1       9.351  -0.906  23.159  0.00  0.00    +0.011 A 
BRANCH  17  20
ATOM     20  O   UNL     1      10.242   2.233  21.485  0.00  0.00    -0.507 OA
ATOM     21  H   UNL     1      11.166   1.947  21.408  0.00  0.00    +0.292 HD
ENDBRANCH  17  20
ENDBRANCH   9  14
BRANCH   4  22
ATOM     22  O   UNL     1       5.653  -6.900  27.408  0.00  0.00    -0.507 OA
ATOM     23  H   UNL     1       4.697  -6.935  27.231  0.00  0.00    +0.292 HD
ENDBRANCH   4  22
TORSDOF 3
ENDMDL
MODEL 4
REMARK VINA RESULT:      -7.2      2.298      6.868
REMARK  Name = 
REMARK  3 active torsions:
REMARK  status: ('A' for Active; 'I' for Inactive)
REMARK    1  A    between atoms: C_8  and  C_18
REMARK    2  A    between atoms: C_14  and  O_15
REMARK    3  A    between atoms: C_21  and  O_22
REMARK                            x       y       z     vdW  Elec       q    Type
REMARK                         _______ _______ _______ _____ _____    ______ ____
ROOT
ATOM      1  C   UNL     1      10.195  -0.745  23.710  0.00  0.00    +0.030 C 
ATOM      2  C   UNL     1       9.597   0.577  24.131  0.00  0.00    +0.001 A 
ATOM      3  C   UNL     1      10.083   1.777  23.586  0.00  0.00    +0.053 A 
ATOM      4  C   UNL     1       9.503   2.991  23.944  0.00  0.00    +0.117 A 
ATOM      5  C   UNL     1       8.453   3.038  24.850  0.00  0.00    +0.049 A 
ATOM      6  C   UNL     1       7.990   1.856  25.427  0.00  0.00    +0.049 A 
ATOM      7  C   UNL     1       8.572   0.634  25.086  0.00  0.00    +0.125 A 
ATOM      8  O   UNL     1       8.051  -0.471  25.710  0.00  0.00    -0.484 OA
ATOM      9  C   UNL     1       8.898  -1.629  25.672  0.00  0.00    +0.207 C 
ATOM     10  C   UNL     1       9.391  -1.929  24.252  0.00  0.00    +0.042 C 
ATOM     11  C   UNL     1       8.280  -2.123  23.209  0.00  0.00    +0.008 C 
ATOM     12  C   UNL     1       8.909  -1.751  21.874  0.00  0.00    +0.001 C 
ATOM     13  C   UNL     1      10.194  -0.990  22.194  0.00  0.00    +0.009 C 
ENDROOT
BRANCH   9  14
ATOM     14  C   UNL     1       8.177  -2.836  26.259  0.00  0.00    -0.007 A 
ATOM     15  C   UNL     1       6.840  -2.762  26.681  0.00  0.00    +0.011 A 
ATOM     16  C   UNL     1       6.167  -3.903  27.123  0.00  0.00    +0.046 A 
ATOM     17  C   UNL     1       6.826  -5.125  27.148  0.00  0.00    +0.117 A 
ATOM     18  C   UNL     1       8.157  -5.223  26.761  0.00  0.00    +0.046 A 
ATOM     19  C   UNL     1       8.829  -4.081  26.316  0.00  0.00    +0.011 A 
BRANCH  17  20
ATOM     20  O   UNL     1       6.120  -6.220  27.553  0.00  0.00    -0.507 OA
ATOM     21  H   UNL     1       5.233  -6.178  27.162  0.00  0.00    +0.292 HD
ENDBRANCH  17  20
ENDBRANCH   9  14
BRANCH   4  22
ATOM     22  O   UNL     1       9.940   4.169  23.413  0.00  0.00    -0.507 OA
ATOM     23  H   UNL     1      10.894   4.097  23.241  0.00  0.00    +0.292 HD
ENDBRANCH   4  22
TORSDOF 3
ENDMDL
MODEL 5
REMARK VINA RESULT:      -7.2      1.399      6.556
REMARK  Name = 
REMARK  3 active torsions:
REMARK  status: ('A' for Active; 'I' for Inactive)
REMARK    1  A    between atoms: C_8  and  C_18
REMARK    2  A    between atoms: C_14  and  O_15
REMARK    3  A    between atoms: C_21  and  O_22
REMARK                            x       y       z     vdW  Elec       q    Type
REMARK                         _______ _______ _______ _____ _____    ______ ____
ROOT
ATOM      1  C   UNL     1       7.411   0.389  24.924  0.00  0.00    +0.030 C 
ATOM      2  C   UNL     1       8.368   0.982  23.918  0.00  0.00    +0.001 A 
ATOM      3  C   UNL     1       8.902   2.266  24.122  0.00  0.00    +0.053 A 
ATOM      4  C   UNL     1       9.816   2.793  23.214  0.00  0.00    +0.117 A 
ATOM      5  C   UNL     1      10.201   2.074  22.092  0.00  0.00    +0.049 A 
ATOM      6  C   UNL     1       9.646   0.816  21.859  0.00  0.00    +0.049 A 
ATOM      7  C   UNL     1       8.719   0.282  22.755  0.00  0.00    +0.125 A 
ATOM      8  O   UNL     1       8.227  -0.959  22.436  0.00  0.00    -0.484 OA
ATOM      9  C   UNL     1       7.010  -1.307  23.114  0.00  0.00    +0.207 C 
ATOM     10  C   UNL     1       7.116  -1.083  24.627  0.00  0.00    +0.042 C 
ATOM     11  C   UNL     1       8.269  -1.831  25.313  0.00  0.00    +0.008 C 
ATOM     12  C   UNL     1       8.600  -1.014  26.553  0.00  0.00    +0.001 C 
ATOM     13  C   UNL     1       7.943   0.352  26.364  0.00  0.00    +0.009 C 
ENDROOT
BRANCH   9  14
ATOM     14  C   UNL     1       6.623  -2.749  22.808  0.00  0.00    -0.007 A 
ATOM     15  C   UNL     1       7.534  -3.649  22.235  0.00  0.00    +0.011 A 
ATOM     16  C   UNL     1       7.193  -4.992  22.054  0.00  0.00    +0.046 A 
ATOM     17  C   UNL     1       5.938  -5.441  22.442  0.00  0.00    +0.117 A 
ATOM     18  C   UNL     1       5.007  -4.566  22.987  0.00  0.00    +0.046 A 
ATOM     19  C   UNL     1       5.350  -3.223  23.171  0.00  0.00    +0.011 A 
BRANCH  17  20
ATOM     20  O   UNL     1       5.659  -6.767  22.281  0.00  0.00    -0.507 OA
ATOM     21  H   UNL     1       6.460  -7.215  21.965  0.00  0.00    +0.292 HD
ENDBRANCH  17  20
ENDBRANCH   9  14
BRANCH   4  22
ATOM     22  O   UNL     1      10.367   4.027  23.401  0.00  0.00    -0.507 OA
ATOM     23  H   UNL     1       9.845   4.680  22.904  0.00  0.00    +0.292 HD
ENDBRANCH   4  22
TORSDOF 3
ENDMDL
MODEL 6
REMARK VINA RESULT:      -7.2      1.802      2.287
REMARK  Name = 
REMARK  3 active torsions:
REMARK  status: ('A' for Active; 'I' for Inactive)
REMARK    1  A    between atoms: C_8  and  C_18
REMARK    2  A    between atoms: C_14  and  O_15
REMARK    3  A    between atoms: C_21  and  O_22
REMARK                            x       y       z     vdW  Elec       q    Type
REMARK                         _______ _______ _______ _____ _____    ______ ____
ROOT
ATOM      1  C   UNL     1       7.853  -4.776  24.535  0.00  0.00    +0.030 C 
ATOM      2  C   UNL     1       6.401  -5.050  24.224  0.00  0.00    +0.001 A 
ATOM      3  C   UNL     1       5.804  -6.252  24.641  0.00  0.00    +0.053 A 
ATOM      4  C   UNL     1       4.455  -6.484  24.389  0.00  0.00    +0.117 A 
ATOM      5  C   UNL     1       3.685  -5.549  23.713  0.00  0.00    +0.049 A 
ATOM      6  C   UNL     1       4.278  -4.371  23.259  0.00  0.00    +0.049 A 
ATOM      7  C   UNL     1       5.633  -4.132  23.494  0.00  0.00    +0.125 A 
ATOM      8  O   UNL     1       6.124  -2.948  23.005  0.00  0.00    -0.484 OA
ATOM      9  C   UNL     1       7.554  -2.901  22.889  0.00  0.00    +0.207 C 
ATOM     10  C   UNL     1       8.246  -3.339  24.185  0.00  0.00    +0.042 C 
ATOM     11  C   UNL     1       7.848  -2.538  25.433  0.00  0.00    +0.008 C 
ATOM     12  C   UNL     1       8.081  -3.477  26.608  0.00  0.00    +0.001 C 
ATOM     13  C   UNL     1       8.216  -4.881  26.023  0.00  0.00    +0.009 C 
ENDROOT
BRANCH   9  14
ATOM     14  C   UNL     1       8.010  -1.507  22.477  0.00  0.00    -0.007 A 
ATOM     15  C   UNL     1       7.263  -0.363  22.799  0.00  0.00    +0.011 A 
ATOM     16  C   UNL     1       7.747   0.913  22.501  0.00  0.00    +0.046 A 
ATOM     17  C   UNL     1       8.980   1.054  21.878  0.00  0.00    +0.117 A 
ATOM     18  C   UNL     1       9.729  -0.062  21.524  0.00  0.00    +0.046 A 
ATOM     19  C   UNL     1       9.245  -1.339  21.826  0.00  0.00    +0.011 A 
BRANCH  17  20
ATOM     20  O   UNL     1       9.431   2.318  21.638  0.00  0.00    -0.507 OA
ATOM     21  H   UNL     1       9.050   2.913  22.304  0.00  0.00    +0.292 HD
ENDBRANCH  17  20
ENDBRANCH   9  14
BRANCH   4  22
ATOM     22  O   UNL     1       3.845  -7.632  24.803  0.00  0.00    -0.507 OA
ATOM     23  H   UNL     1       3.110  -7.399  25.394  0.00  0.00    +0.292 HD
ENDBRANCH   4  22
TORSDOF 3
ENDMDL
MODEL 7
REMARK VINA RESULT:      -7.0      2.504      7.096
REMARK  Name = 
REMARK  3 active torsions:
REMARK  status: ('A' for Active; 'I' for Inactive)
REMARK    1  A    between atoms: C_8  and  C_18
REMARK    2  A    between atoms: C_14  and  O_15
REMARK    3  A    between atoms: C_21  and  O_22
REMARK                            x       y       z     vdW  Elec       q    Type
REMARK                         _______ _______ _______ _____ _____    ______ ____
ROOT
ATOM      1  C   UNL     1      10.166   1.316  23.450  0.00  0.00    +0.030 C 
ATOM      2  C   UNL     1       9.309   2.262  24.257  0.00  0.00    +0.001 A 
ATOM      3  C   UNL     1       9.430   3.651  24.080  0.00  0.00    +0.053 A 
ATOM      4  C   UNL     1       8.610   4.519  24.796  0.00  0.00    +0.117 A 
ATOM      5  C   UNL     1       7.678   4.034  25.702  0.00  0.00    +0.049 A 
ATOM      6  C   UNL     1       7.578   2.659  25.915  0.00  0.00    +0.049 A 
ATOM      7  C   UNL     1       8.404   1.779  25.213  0.00  0.00    +0.125 A 
ATOM      8  O   UNL     1       8.233   0.447  25.495  0.00  0.00    -0.484 OA
ATOM      9  C   UNL     1       9.329  -0.389  25.094  0.00  0.00    +0.207 C 
ATOM     10  C   UNL     1       9.734  -0.140  23.637  0.00  0.00    +0.042 C 
ATOM     11  C   UNL     1       8.604  -0.320  22.612  0.00  0.00    +0.008 C 
ATOM     12  C   UNL     1       8.985   0.562  21.431  0.00  0.00    +0.001 C 
ATOM     13  C   UNL     1      10.071   1.512  21.929  0.00  0.00    +0.009 C 
ENDROOT
BRANCH   9  14
ATOM     14  C   UNL     1       8.988  -1.858  25.316  0.00  0.00    -0.007 A 
ATOM     15  C   UNL     1       9.631  -2.879  24.599  0.00  0.00    +0.011 A 
ATOM     16  C   UNL     1       9.376  -4.222  24.887  0.00  0.00    +0.046 A 
ATOM     17  C   UNL     1       8.476  -4.553  25.892  0.00  0.00    +0.117 A 
ATOM     18  C   UNL     1       7.806  -3.562  26.599  0.00  0.00    +0.046 A 
ATOM     19  C   UNL     1       8.064  -2.218  26.313  0.00  0.00    +0.011 A 
BRANCH  17  20
ATOM     20  O   UNL     1       8.285  -5.875  26.164  0.00  0.00    -0.507 OA
ATOM     21  H   UNL     1       7.390  -6.122  25.882  0.00  0.00    +0.292 HD
ENDBRANCH  17  20
ENDBRANCH   9  14
BRANCH   4  22
ATOM     22  O   UNL     1       8.691   5.870  24.626  0.00  0.00    -0.507 OA
ATOM     23  H   UNL     1       9.329   6.057  23.918  0.00  0.00    +0.292 HD
ENDBRANCH   4  22
TORSDOF 3
ENDMDL
MODEL 8
REMARK VINA RESULT:      -6.9      1.671      6.590
REMARK  Name = 
REMARK  3 active torsions:
REMARK  status: ('A' for Active; 'I' for Inactive)
REMARK    1  A    between atoms: C_8  and  C_18
REMARK    2  A    between atoms: C_14  and  O_15
REMARK    3  A    between atoms: C_21  and  O_22
REMARK                            x       y       z     vdW  Elec       q    Type
REMARK                         _______ _______ _______ _____ _____    ______ ____
ROOT
ATOM      1  C   UNL     1       7.300  -0.237  24.960  0.00  0.00    +0.030 C 
ATOM      2  C   UNL     1       8.150  -0.000  23.735  0.00  0.00    +0.001 A 
ATOM      3  C   UNL     1       8.805   1.230  23.557  0.00  0.00    +0.053 A 
ATOM      4  C   UNL     1       9.621   1.431  22.447  0.00  0.00    +0.117 A 
ATOM      5  C   UNL     1       9.789   0.434  21.496  0.00  0.00    +0.049 A 
ATOM      6  C   UNL     1       9.111  -0.776  21.643  0.00  0.00    +0.049 A 
ATOM      7  C   UNL     1       8.279  -0.984  22.745  0.00  0.00    +0.125 A 
ATOM      8  O   UNL     1       7.653  -2.204  22.798  0.00  0.00    -0.484 OA
ATOM      9  C   UNL     1       6.520  -2.252  23.678  0.00  0.00    +0.207 C 
ATOM     10  C   UNL     1       6.853  -1.697  25.068  0.00  0.00    +0.042 C 
ATOM     11  C   UNL     1       8.029  -2.387  25.775  0.00  0.00    +0.008 C 
ATOM     12  C   UNL     1       8.593  -1.345  26.732  0.00  0.00    +0.001 C 
ATOM     13  C   UNL     1       8.024   0.002  26.294  0.00  0.00    +0.009 C 
ENDROOT
BRANCH   9  14
ATOM     14  C   UNL     1       5.984  -3.675  23.780  0.00  0.00    -0.007 A 
ATOM     15  C   UNL     1       4.869  -3.986  24.574  0.00  0.00    +0.011 A 
ATOM     16  C   UNL     1       4.331  -5.275  24.576  0.00  0.00    +0.046 A 
ATOM     17  C   UNL     1       4.906  -6.262  23.786  0.00  0.00    +0.117 A 
ATOM     18  C   UNL     1       6.026  -5.988  23.010  0.00  0.00    +0.046 A 
ATOM     19  C   UNL     1       6.562  -4.697  23.006  0.00  0.00    +0.011 A 
BRANCH  17  20
ATOM     20  O   UNL     1       4.328  -7.497  23.791  0.00  0.00    -0.507 OA
ATOM     21  H   UNL     1       4.578  -7.959  22.975  0.00  0.00    +0.292 HD
ENDBRANCH  17  20
ENDBRANCH   9  14
BRANCH   4  22
ATOM     22  O   UNL     1      10.286   2.607  22.261  0.00  0.00    -0.507 OA
ATOM     23  H   UNL     1      10.280   3.104  23.097  0.00  0.00    +0.292 HD
ENDBRANCH   4  22
TORSDOF 3
ENDMDL
MODEL 9
REMARK VINA RESULT:      -6.9      2.627      4.263
REMARK  Name = 
REMARK  3 active torsions:
REMARK  status: ('A' for Active; 'I' for Inactive)
REMARK    1  A    between atoms: C_8  and  C_18
REMARK    2  A    between atoms: C_14  and  O_15
REMARK    3  A    between atoms: C_21  and  O_22
REMARK                            x       y       z     vdW  Elec       q    Type
REMARK                         _______ _______ _______ _____ _____    ______ ____
ROOT
ATOM      1  C   UNL     1       5.289  -4.824  22.944  0.00  0.00    +0.030 C 
ATOM      2  C   UNL     1       4.925  -5.581  24.199  0.00  0.00    +0.001 A 
ATOM      3  C   UNL     1       4.056  -6.684  24.131  0.00  0.00    +0.053 A 
ATOM      4  C   UNL     1       3.754  -7.405  25.283  0.00  0.00    +0.117 A 
ATOM      5  C   UNL     1       4.288  -7.042  26.511  0.00  0.00    +0.049 A 
ATOM      6  C   UNL     1       5.120  -5.926  26.595  0.00  0.00    +0.049 A 
ATOM      7  C   UNL     1       5.419  -5.186  25.450  0.00  0.00    +0.125 A 
ATOM      8  O   UNL     1       6.241  -4.103  25.636  0.00  0.00    -0.484 OA
ATOM      9  C   UNL     1       6.208  -3.143  24.569  0.00  0.00    +0.207 C 
ATOM     10  C   UNL     1       6.401  -3.804  23.200  0.00  0.00    +0.042 C 
ATOM     11  C   UNL     1       7.690  -4.626  23.054  0.00  0.00    +0.008 C 
ATOM     12  C   UNL     1       7.389  -5.666  21.984  0.00  0.00    +0.001 C 
ATOM     13  C   UNL     1       5.871  -5.696  21.821  0.00  0.00    +0.009 C 
ENDROOT
BRANCH   9  14
ATOM     14  C   UNL     1       7.253  -2.057  24.797  0.00  0.00    -0.007 A 
ATOM     15  C   UNL     1       7.944  -1.945  26.013  0.00  0.00    +0.011 A 
ATOM     16  C   UNL     1       8.969  -1.007  26.168  0.00  0.00    +0.046 A 
ATOM     17  C   UNL     1       9.306  -0.175  25.108  0.00  0.00    +0.117 A 
ATOM     18  C   UNL     1       8.620  -0.247  23.902  0.00  0.00    +0.046 A 
ATOM     19  C   UNL     1       7.598  -1.188  23.747  0.00  0.00    +0.011 A 
BRANCH  17  20
ATOM     20  O   UNL     1      10.336   0.700  25.291  0.00  0.00    -0.507 OA
ATOM     21  H   UNL     1      11.167   0.200  25.311  0.00  0.00    +0.292 HD
ENDBRANCH  17  20
ENDBRANCH   9  14
BRANCH   4  22
ATOM     22  O   UNL     1       2.932  -8.492  25.242  0.00  0.00    -0.507 OA
ATOM     23  H   UNL     1       2.010  -8.187  25.282  0.00  0.00    +0.292 HD
ENDBRANCH   4  22
TORSDOF 3
ENDMDL
