MODEL 1
REMARK VINA RESULT:      -7.1      0.000      0.000
REMARK  Name = 
REMARK  6 active torsions:
REMARK  status: ('A' for Active; 'I' for Inactive)
REMARK    1  A    between atoms: O_1  and  C_2
REMARK    2  A    between atoms: C_4  and  C_17
REMARK    3  A    between atoms: C_9  and  O_10
REMARK    4  A    between atoms: C_12  and  O_13
REMARK    5  A    between atoms: C_20  and  O_21
REMARK    6  A    between atoms: C_22  and  O_23
REMARK                            x       y       z     vdW  Elec       q    Type
REMARK                         _______ _______ _______ _____ _____    ______ ____
ROOT
ATOM      1  C   UNL     1       5.815  -3.168  22.641  0.00  0.00    +0.230 C 
ATOM      2  C   UNL     1       5.327  -4.532  23.094  0.00  0.00    +0.202 C 
ATOM      3  O   UNL     1       4.580  -5.202  22.385  0.00  0.00    -0.289 OA
ATOM      4  C   UNL     1       5.776  -4.959  24.444  0.00  0.00    +0.103 A 
ATOM      5  C   UNL     1       6.812  -4.235  25.045  0.00  0.00    +0.139 A 
ATOM      6  C   UNL     1       7.232  -4.546  26.342  0.00  0.00    +0.092 A 
ATOM      7  C   UNL     1       6.625  -5.591  27.026  0.00  0.00    +0.124 A 
ATOM      8  C   UNL     1       5.604  -6.330  26.443  0.00  0.00    +0.091 A 
ATOM      9  O   UNL     1       7.461  -3.180  24.466  0.00  0.00    -0.480 OA
ATOM     10  C   UNL     1       5.176  -6.011  25.151  0.00  0.00    +0.134 A 
ATOM     11  C   UNL     1       7.285  -3.045  23.044  0.00  0.00    +0.240 C 
ENDROOT
BRANCH  11  12
ATOM     12  C   UNL     1       7.851  -1.689  22.634  0.00  0.00    -0.001 A 
ATOM     13  C   UNL     1       7.194  -0.489  22.957  0.00  0.00    +0.056 A 
ATOM     14  C   UNL     1       7.723   0.723  22.535  0.00  0.00    +0.159 A 
ATOM     15  C   UNL     1       8.894   0.771  21.786  0.00  0.00    +0.158 A 
ATOM     16  C   UNL     1       9.555  -0.400  21.442  0.00  0.00    +0.049 A 
ATOM     17  C   UNL     1       9.031  -1.627  21.866  0.00  0.00    +0.011 A 
BRANCH  14  18
ATOM     18  O   UNL     1       7.075   1.881  22.861  0.00  0.00    -0.503 OA
ATOM     19  H   UNL     1       6.279   1.584  23.346  0.00  0.00    +0.292 HD
ENDBRANCH  14  18
BRANCH  15  20
ATOM     20  O   UNL     1       9.356   2.002  21.405  0.00  0.00    -0.503 OA
ATOM     21  H   UNL     1       9.094   2.145  20.479  0.00  0.00    +0.292 HD
ENDBRANCH  15  20
ENDBRANCH  11  12
BRANCH   1  22
ATOM     22  O   UNL     1       5.644  -3.052  21.224  0.00  0.00    -0.380 OA
ATOM     23  H   UNL     1       5.437  -2.109  21.059  0.00  0.00    +0.211 HD
ENDBRANCH   1  22
BRANCH   7  24
ATOM     24  O   UNL     1       7.002  -5.927  28.294  0.00  0.00    -0.507 OA
ATOM     25  H   UNL     1       7.098  -6.893  28.353  0.00  0.00    +0.292 HD
ENDBRANCH   7  24
BRANCH  10  26
ATOM     26  O   UNL     1       4.144  -6.725  24.610  0.00  0.00    -0.506 OA
ATOM     27  H   UNL     1       3.937  -6.393  23.722  0.00  0.00    +0.292 HD
ENDBRANCH  10  26
TORSDOF 6
ENDMDL
MODEL 2
REMARK VINA RESULT:      -7.0      2.775      7.338
REMARK  Name = 
REMARK  6 active torsions:
REMARK  status: ('A' for Active; 'I' for Inactive)
REMARK    1  A    between atoms: O_1  and  C_2
REMARK    2  A    between atoms: C_4  and  C_17
REMARK    3  A    between atoms: C_9  and  O_10
REMARK    4  A    between atoms: C_12  and  O_13
REMARK    5  A    between atoms: C_20  and  O_21
REMARK    6  A    between atoms: C_22  and  O_23
REMARK                            x       y       z     vdW  Elec       q    Type
REMARK                         _______ _______ _______ _____ _____    ______ ____
ROOT
ATOM      1  C   UNL     1       9.498  -1.564  23.363  0.00  0.00    +0.230 C 
ATOM      2  C   UNL     1       9.523  -0.304  22.517  0.00  0.00    +0.202 C 
ATOM      3  O   UNL     1       9.826  -0.348  21.327  0.00  0.00    -0.289 OA
ATOM      4  C   UNL     1       9.205   0.958  23.235  0.00  0.00    +0.103 A 
ATOM      5  C   UNL     1       8.640   0.856  24.511  0.00  0.00    +0.139 A 
ATOM      6  C   UNL     1       8.381   2.007  25.263  0.00  0.00    +0.092 A 
ATOM      7  C   UNL     1       8.674   3.255  24.729  0.00  0.00    +0.124 A 
ATOM      8  C   UNL     1       9.225   3.377  23.459  0.00  0.00    +0.091 A 
ATOM      9  O   UNL     1       8.331  -0.321  25.134  0.00  0.00    -0.480 OA
ATOM     10  C   UNL     1       9.493   2.227  22.713  0.00  0.00    +0.134 A 
ATOM     11  C   UNL     1       8.280  -1.481  24.283  0.00  0.00    +0.240 C 
ENDROOT
BRANCH  11  12
ATOM     12  C   UNL     1       8.189  -2.711  25.181  0.00  0.00    -0.001 A 
ATOM     13  C   UNL     1       9.112  -3.765  25.079  0.00  0.00    +0.056 A 
ATOM     14  C   UNL     1       8.974  -4.884  25.889  0.00  0.00    +0.159 A 
ATOM     15  C   UNL     1       7.928  -4.984  26.800  0.00  0.00    +0.158 A 
ATOM     16  C   UNL     1       6.995  -3.962  26.911  0.00  0.00    +0.049 A 
ATOM     17  C   UNL     1       7.127  -2.828  26.100  0.00  0.00    +0.011 A 
BRANCH  14  18
ATOM     18  O   UNL     1       9.882  -5.899  25.781  0.00  0.00    -0.503 OA
ATOM     19  H   UNL     1       9.500  -6.622  26.318  0.00  0.00    +0.292 HD
ENDBRANCH  14  18
BRANCH  15  20
ATOM     20  O   UNL     1       7.856  -6.115  27.566  0.00  0.00    -0.503 OA
ATOM     21  H   UNL     1       7.555  -6.843  26.995  0.00  0.00    +0.292 HD
ENDBRANCH  15  20
ENDBRANCH  11  12
BRANCH   1  22
ATOM     22  O   UNL     1       9.436  -2.707  22.504  0.00  0.00    -0.380 OA
ATOM     23  H   UNL     1       8.779  -3.309  22.911  0.00  0.00    +0.211 HD
ENDBRANCH   1  22
BRANCH   7  24
ATOM     24  O   UNL     1       8.441   4.402  25.429  0.00  0.00    -0.507 OA
ATOM     25  H   UNL     1       8.337   5.141  24.805  0.00  0.00    +0.292 HD
ENDBRANCH   7  24
BRANCH  10  26
ATOM     26  O   UNL     1      10.071   2.367  21.482  0.00  0.00    -0.506 OA
ATOM     27  H   UNL     1       9.817   1.628  20.907  0.00  0.00    +0.292 HD
ENDBRANCH  10  26
TORSDOF 6
ENDMDL
MODEL 3
REMARK VINA RESULT:      -6.9      1.477      3.332
REMARK  Name = 
REMARK  6 active torsions:
REMARK  status: ('A' for Active; 'I' for Inactive)
REMARK    1  A    between atoms: O_1  and  C_2
REMARK    2  A    between atoms: C_4  and  C_17
REMARK    3  A    between atoms: C_9  and  O_10
REMARK    4  A    between atoms: C_12  and  O_13
REMARK    5  A    between atoms: C_20  and  O_21
REMARK    6  A    between atoms: C_22  and  O_23
REMARK                            x       y       z     vdW  Elec       q    Type
REMARK                         _______ _______ _______ _____ _____    ______ ____
ROOT
ATOM      1  C   UNL     1       7.663  -3.502  25.559  0.00  0.00    +0.230 C 
ATOM      2  C   UNL     1       6.889  -4.482  26.422  0.00  0.00    +0.202 C 
ATOM      3  O   UNL     1       7.127  -4.591  27.623  0.00  0.00    -0.289 OA
ATOM      4  C   UNL     1       5.882  -5.309  25.709  0.00  0.00    +0.103 A 
ATOM      5  C   UNL     1       5.528  -4.928  24.410  0.00  0.00    +0.139 A 
ATOM      6  C   UNL     1       4.636  -5.704  23.663  0.00  0.00    +0.092 A 
ATOM      7  C   UNL     1       4.090  -6.851  24.225  0.00  0.00    +0.124 A 
ATOM      8  C   UNL     1       4.419  -7.240  25.517  0.00  0.00    +0.091 A 
ATOM      9  O   UNL     1       6.021  -3.831  23.760  0.00  0.00    -0.480 OA
ATOM     10  C   UNL     1       5.318  -6.470  26.259  0.00  0.00    +0.134 A 
ATOM     11  C   UNL     1       6.671  -2.854  24.592  0.00  0.00    +0.240 C 
ENDROOT
BRANCH  11  12
ATOM     12  C   UNL     1       7.375  -1.858  23.675  0.00  0.00    -0.001 A 
ATOM     13  C   UNL     1       8.523  -2.214  22.946  0.00  0.00    +0.056 A 
ATOM     14  C   UNL     1       9.156  -1.269  22.150  0.00  0.00    +0.159 A 
ATOM     15  C   UNL     1       8.676   0.034  22.067  0.00  0.00    +0.158 A 
ATOM     16  C   UNL     1       7.553   0.415  22.788  0.00  0.00    +0.049 A 
ATOM     17  C   UNL     1       6.906  -0.532  23.591  0.00  0.00    +0.011 A 
BRANCH  14  18
ATOM     18  O   UNL     1      10.267  -1.632  21.444  0.00  0.00    -0.503 OA
ATOM     19  H   UNL     1      10.052  -1.399  20.519  0.00  0.00    +0.292 HD
ENDBRANCH  14  18
BRANCH  15  20
ATOM     20  O   UNL     1       9.351   0.911  21.263  0.00  0.00    -0.503 OA
ATOM     21  H   UNL     1       9.950   0.395  20.696  0.00  0.00    +0.292 HD
ENDBRANCH  15  20
ENDBRANCH  11  12
BRANCH   1  22
ATOM     22  O   UNL     1       8.294  -2.531  26.400  0.00  0.00    -0.380 OA
ATOM     23  H   UNL     1       7.924  -1.665  26.130  0.00  0.00    +0.211 HD
ENDBRANCH   1  22
BRANCH   7  24
ATOM     24  O   UNL     1       3.218  -7.639  23.531  0.00  0.00    -0.507 OA
ATOM     25  H   UNL     1       2.336  -7.228  23.545  0.00  0.00    +0.292 HD
ENDBRANCH   7  24
BRANCH  10  26
ATOM     26  O   UNL     1       5.659  -6.891  27.514  0.00  0.00    -0.506 OA
ATOM     27  H   UNL     1       5.079  -6.479  28.174  0.00  0.00    +0.292 HD
ENDBRANCH  10  26
TORSDOF 6
ENDMDL
MODEL 4
REMARK VINA RESULT:      -6.7      1.384      3.040
REMARK  Name = 
REMARK  6 active torsions:
REMARK  status: ('A' for Active; 'I' for Inactive)
REMARK    1  A    between atoms: O_1  and  C_2
REMARK    2  A    between atoms: C_4  and  C_17
REMARK    3  A    between atoms: C_9  and  O_10
REMARK    4  A    between atoms: C_12  and  O_13
REMARK    5  A    between atoms: C_20  and  O_21
REMARK    6  A    between atoms: C_22  and  O_23
REMARK                            x       y       z     vdW  Elec       q    Type
REMARK                         _______ _______ _______ _____ _____    ______ ____
ROOT
ATOM      1  C   UNL     1       8.255  -2.750  25.149  0.00  0.00    +0.230 C 
ATOM      2  C   UNL     1       7.425  -3.816  25.840  0.00  0.00    +0.202 C 
ATOM      3  O   UNL     1       7.630  -4.113  27.015  0.00  0.00    -0.289 OA
ATOM      4  C   UNL     1       6.405  -4.485  24.993  0.00  0.00    +0.103 A 
ATOM      5  C   UNL     1       6.096  -3.899  23.760  0.00  0.00    +0.139 A 
ATOM      6  C   UNL     1       5.194  -4.518  22.889  0.00  0.00    +0.092 A 
ATOM      7  C   UNL     1       4.592  -5.713  23.262  0.00  0.00    +0.124 A 
ATOM      8  C   UNL     1       4.875  -6.304  24.487  0.00  0.00    +0.091 A 
ATOM      9  O   UNL     1       6.646  -2.738  23.292  0.00  0.00    -0.480 OA
ATOM     10  C   UNL     1       5.785  -5.691  25.352  0.00  0.00    +0.134 A 
ATOM     11  C   UNL     1       7.313  -1.925  24.274  0.00  0.00    +0.240 C 
ENDROOT
BRANCH  11  12
ATOM     12  C   UNL     1       8.075  -0.833  23.530  0.00  0.00    -0.001 A 
ATOM     13  C   UNL     1       7.888   0.528  23.826  0.00  0.00    +0.056 A 
ATOM     14  C   UNL     1       8.574   1.494  23.102  0.00  0.00    +0.159 A 
ATOM     15  C   UNL     1       9.443   1.136  22.076  0.00  0.00    +0.158 A 
ATOM     16  C   UNL     1       9.636  -0.200  21.755  0.00  0.00    +0.049 A 
ATOM     17  C   UNL     1       8.951  -1.181  22.481  0.00  0.00    +0.011 A 
BRANCH  14  18
ATOM     18  O   UNL     1       8.384   2.812  23.405  0.00  0.00    -0.503 OA
ATOM     19  H   UNL     1       9.147   3.266  22.996  0.00  0.00    +0.292 HD
ENDBRANCH  14  18
BRANCH  15  20
ATOM     20  O   UNL     1      10.084   2.142  21.406  0.00  0.00    -0.503 OA
ATOM     21  H   UNL     1       9.535   2.390  20.643  0.00  0.00    +0.292 HD
ENDBRANCH  15  20
ENDBRANCH  11  12
BRANCH   1  22
ATOM     22  O   UNL     1       8.903  -1.942  26.138  0.00  0.00    -0.380 OA
ATOM     23  H   UNL     1       9.106  -2.545  26.882  0.00  0.00    +0.211 HD
ENDBRANCH   1  22
BRANCH   7  24
ATOM     24  O   UNL     1       3.708  -6.352  22.442  0.00  0.00    -0.507 OA
ATOM     25  H   UNL     1       4.202  -6.862  21.777  0.00  0.00    +0.292 HD
ENDBRANCH   7  24
BRANCH  10  26
ATOM     26  O   UNL     1       6.080  -6.309  26.535  0.00  0.00    -0.506 OA
ATOM     27  H   UNL     1       5.266  -6.475  27.038  0.00  0.00    +0.292 HD
ENDBRANCH  10  26
TORSDOF 6
ENDMDL
MODEL 5
REMARK VINA RESULT:      -6.7      2.405      3.945
REMARK  Name = 
REMARK  6 active torsions:
REMARK  status: ('A' for Active; 'I' for Inactive)
REMARK    1  A    between atoms: O_1  and  C_2
REMARK    2  A    between atoms: C_4  and  C_17
REMARK    3  A    between atoms: C_9  and  O_10
REMARK    4  A    between atoms: C_12  and  O_13
REMARK    5  A    between atoms: C_20  and  O_21
REMARK    6  A    between atoms: C_22  and  O_23
REMARK                            x       y       z     vdW  Elec       q    Type
REMARK                         _______ _______ _______ _____ _____    ______ ____
ROOT
ATOM      1  C   UNL     1       9.293  -1.300  23.371  0.00  0.00    +0.230 C 
ATOM      2  C   UNL     1       9.150  -2.768  23.730  0.00  0.00    +0.202 C 
ATOM      3  O   UNL     1      10.110  -3.411  24.151  0.00  0.00    -0.289 OA
ATOM      4  C   UNL     1       7.809  -3.360  23.494  0.00  0.00    +0.103 A 
ATOM      5  C   UNL     1       6.744  -2.484  23.253  0.00  0.00    +0.139 A 
ATOM      6  C   UNL     1       5.471  -2.983  22.957  0.00  0.00    +0.092 A 
ATOM      7  C   UNL     1       5.265  -4.355  22.920  0.00  0.00    +0.124 A 
ATOM      8  C   UNL     1       6.305  -5.242  23.169  0.00  0.00    +0.091 A 
ATOM      9  O   UNL     1       6.845  -1.120  23.247  0.00  0.00    -0.480 OA
ATOM     10  C   UNL     1       7.579  -4.743  23.453  0.00  0.00    +0.134 A 
ATOM     11  C   UNL     1       8.033  -0.582  23.854  0.00  0.00    +0.240 C 
ENDROOT
BRANCH  11  12
ATOM     12  C   UNL     1       8.091   0.905  23.518  0.00  0.00    -0.001 A 
ATOM     13  C   UNL     1       8.387   1.870  24.497  0.00  0.00    +0.056 A 
ATOM     14  C   UNL     1       8.395   3.216  24.160  0.00  0.00    +0.159 A 
ATOM     15  C   UNL     1       8.105   3.631  22.864  0.00  0.00    +0.158 A 
ATOM     16  C   UNL     1       7.797   2.700  21.882  0.00  0.00    +0.049 A 
ATOM     17  C   UNL     1       7.790   1.340  22.212  0.00  0.00    +0.011 A 
BRANCH  14  18
ATOM     18  O   UNL     1       8.687   4.141  25.122  0.00  0.00    -0.503 OA
ATOM     19  H   UNL     1       9.620   4.380  24.951  0.00  0.00    +0.292 HD
ENDBRANCH  14  18
BRANCH  15  20
ATOM     20  O   UNL     1       8.132   4.975  22.605  0.00  0.00    -0.503 OA
ATOM     21  H   UNL     1       8.555   5.103  21.739  0.00  0.00    +0.292 HD
ENDBRANCH  15  20
ENDBRANCH  11  12
BRANCH   1  22
ATOM     22  O   UNL     1      10.472  -0.776  23.990  0.00  0.00    -0.380 OA
ATOM     23  H   UNL     1      10.730   0.002  23.454  0.00  0.00    +0.211 HD
ENDBRANCH   1  22
BRANCH   7  24
ATOM     24  O   UNL     1       4.040  -4.884  22.634  0.00  0.00    -0.507 OA
ATOM     25  H   UNL     1       3.767  -4.594  21.746  0.00  0.00    +0.292 HD
ENDBRANCH   7  24
BRANCH  10  26
ATOM     26  O   UNL     1       8.598  -5.631  23.656  0.00  0.00    -0.506 OA
ATOM     27  H   UNL     1       9.279  -5.522  22.973  0.00  0.00    +0.292 HD
ENDBRANCH  10  26
TORSDOF 6
ENDMDL
MODEL 6
REMARK VINA RESULT:      -6.7      2.524      7.181
REMARK  Name = 
REMARK  6 active torsions:
REMARK  status: ('A' for Active; 'I' for Inactive)
REMARK    1  A    between atoms: O_1  and  C_2
REMARK    2  A    between atoms: C_4  and  C_17
REMARK    3  A    between atoms: C_9  and  O_10
REMARK    4  A    between atoms: C_12  and  O_13
REMARK    5  A    between atoms: C_20  and  O_21
REMARK    6  A    between atoms: C_22  and  O_23
REMARK                            x       y       z     vdW  Elec       q    Type
REMARK                         _______ _______ _______ _____ _____    ______ ____
ROOT
ATOM      1  C   UNL     1       9.440  -1.448  23.691  0.00  0.00    +0.230 C 
ATOM      2  C   UNL     1       9.405  -0.349  22.645  0.00  0.00    +0.202 C 
ATOM      3  O   UNL     1      10.291  -0.254  21.798  0.00  0.00    -0.289 OA
ATOM      4  C   UNL     1       8.270   0.603  22.752  0.00  0.00    +0.103 A 
ATOM      5  C   UNL     1       7.203   0.253  23.588  0.00  0.00    +0.139 A 
ATOM      6  C   UNL     1       6.138   1.138  23.783  0.00  0.00    +0.092 A 
ATOM      7  C   UNL     1       6.136   2.362  23.128  0.00  0.00    +0.124 A 
ATOM      8  C   UNL     1       7.179   2.724  22.284  0.00  0.00    +0.091 A 
ATOM      9  O   UNL     1       7.117  -0.917  24.291  0.00  0.00    -0.480 OA
ATOM     10  C   UNL     1       8.249   1.844  22.099  0.00  0.00    +0.134 A 
ATOM     11  C   UNL     1       8.012  -1.962  23.871  0.00  0.00    +0.240 C 
ENDROOT
BRANCH  11  12
ATOM     12  C   UNL     1       7.959  -3.067  24.922  0.00  0.00    -0.001 A 
ATOM     13  C   UNL     1       8.733  -4.234  24.802  0.00  0.00    +0.056 A 
ATOM     14  C   UNL     1       8.630  -5.232  25.761  0.00  0.00    +0.159 A 
ATOM     15  C   UNL     1       7.761  -5.102  26.840  0.00  0.00    +0.158 A 
ATOM     16  C   UNL     1       6.975  -3.966  26.974  0.00  0.00    +0.049 A 
ATOM     17  C   UNL     1       7.075  -2.952  26.014  0.00  0.00    +0.011 A 
BRANCH  14  18
ATOM     18  O   UNL     1       9.392  -6.358  25.633  0.00  0.00    -0.503 OA
ATOM     19  H   UNL     1       9.961  -6.357  26.429  0.00  0.00    +0.292 HD
ENDBRANCH  14  18
BRANCH  15  20
ATOM     20  O   UNL     1       7.712  -6.127  27.745  0.00  0.00    -0.503 OA
ATOM     21  H   UNL     1       7.389  -5.765  28.588  0.00  0.00    +0.292 HD
ENDBRANCH  15  20
ENDBRANCH  11  12
BRANCH   1  22
ATOM     22  O   UNL     1      10.325  -2.486  23.255  0.00  0.00    -0.380 OA
ATOM     23  H   UNL     1      10.064  -3.285  23.756  0.00  0.00    +0.211 HD
ENDBRANCH   1  22
BRANCH   7  24
ATOM     24  O   UNL     1       5.118   3.256  23.291  0.00  0.00    -0.507 OA
ATOM     25  H   UNL     1       5.489   4.119  23.546  0.00  0.00    +0.292 HD
ENDBRANCH   7  24
BRANCH  10  26
ATOM     26  O   UNL     1       9.284   2.234  21.296  0.00  0.00    -0.506 OA
ATOM     27  H   UNL     1       9.238   3.189  21.131  0.00  0.00    +0.292 HD
ENDBRANCH  10  26
TORSDOF 6
ENDMDL
MODEL 7
REMARK VINA RESULT:      -6.7      2.580      3.199
REMARK  Name = 
REMARK  6 active torsions:
REMARK  status: ('A' for Active; 'I' for Inactive)
REMARK    1  A    between atoms: O_1  and  C_2
REMARK    2  A    between atoms: C_4  and  C_17
REMARK    3  A    between atoms: C_9  and  O_10
REMARK    4  A    between atoms: C_12  and  O_13
REMARK    5  A    between atoms: C_20  and  O_21
REMARK    6  A    between atoms: C_22  and  O_23
REMARK                            x       y       z     vdW  Elec       q    Type
REMARK                         _______ _______ _______ _____ _____    ______ ____
ROOT
ATOM      1  C   UNL     1       8.974  -3.017  24.426  0.00  0.00    +0.230 C 
ATOM      2  C   UNL     1       8.529  -4.110  25.379  0.00  0.00    +0.202 C 
ATOM      3  O   UNL     1       9.107  -5.195  25.410  0.00  0.00    -0.289 OA
ATOM      4  C   UNL     1       7.343  -3.791  26.214  0.00  0.00    +0.103 A 
ATOM      5  C   UNL     1       6.928  -2.455  26.272  0.00  0.00    +0.139 A 
ATOM      6  C   UNL     1       5.779  -2.102  26.987  0.00  0.00    +0.092 A 
ATOM      7  C   UNL     1       5.058  -3.084  27.654  0.00  0.00    +0.124 A 
ATOM      8  C   UNL     1       5.460  -4.413  27.619  0.00  0.00    +0.091 A 
ATOM      9  O   UNL     1       7.554  -1.418  25.637  0.00  0.00    -0.480 OA
ATOM     10  C   UNL     1       6.602  -4.767  26.896  0.00  0.00    +0.134 A 
ATOM     11  C   UNL     1       8.890  -1.687  25.175  0.00  0.00    +0.240 C 
ENDROOT
BRANCH  11  12
ATOM     12  C   UNL     1       9.311  -0.527  24.278  0.00  0.00    -0.001 A 
ATOM     13  C   UNL     1       8.861  -0.423  22.950  0.00  0.00    +0.056 A 
ATOM     14  C   UNL     1       9.296   0.628  22.154  0.00  0.00    +0.159 A 
ATOM     15  C   UNL     1      10.182   1.581  22.648  0.00  0.00    +0.158 A 
ATOM     16  C   UNL     1      10.651   1.493  23.950  0.00  0.00    +0.049 A 
ATOM     17  C   UNL     1      10.216   0.439  24.762  0.00  0.00    +0.011 A 
BRANCH  14  18
ATOM     18  O   UNL     1       8.847   0.717  20.868  0.00  0.00    -0.503 OA
ATOM     19  H   UNL     1       7.872   0.719  20.952  0.00  0.00    +0.292 HD
ENDBRANCH  14  18
BRANCH  15  20
ATOM     20  O   UNL     1      10.566   2.588  21.805  0.00  0.00    -0.503 OA
ATOM     21  H   UNL     1      11.359   2.290  21.326  0.00  0.00    +0.292 HD
ENDBRANCH  15  20
ENDBRANCH  11  12
BRANCH   1  22
ATOM     22  O   UNL     1      10.308  -3.291  23.983  0.00  0.00    -0.380 OA
ATOM     23  H   UNL     1      10.872  -3.218  24.780  0.00  0.00    +0.211 HD
ENDBRANCH   1  22
BRANCH   7  24
ATOM     24  O   UNL     1       3.931  -2.784  28.360  0.00  0.00    -0.507 OA
ATOM     25  H   UNL     1       3.762  -3.491  29.007  0.00  0.00    +0.292 HD
ENDBRANCH   7  24
BRANCH  10  26
ATOM     26  O   UNL     1       6.959  -6.086  26.842  0.00  0.00    -0.506 OA
ATOM     27  H   UNL     1       7.908  -6.183  27.016  0.00  0.00    +0.292 HD
ENDBRANCH  10  26
TORSDOF 6
ENDMDL
MODEL 8
REMARK VINA RESULT:      -6.6      1.939      2.029
REMARK  Name = 
REMARK  6 active torsions:
REMARK  status: ('A' for Active; 'I' for Inactive)
REMARK    1  A    between atoms: O_1  and  C_2
REMARK    2  A    between atoms: C_4  and  C_17
REMARK    3  A    between atoms: C_9  and  O_10
REMARK    4  A    between atoms: C_12  and  O_13
REMARK    5  A    between atoms: C_20  and  O_21
REMARK    6  A    between atoms: C_22  and  O_23
REMARK                            x       y       z     vdW  Elec       q    Type
REMARK                         _______ _______ _______ _____ _____    ______ ____
ROOT
ATOM      1  C   UNL     1       6.487  -3.404  23.099  0.00  0.00    +0.230 C 
ATOM      2  C   UNL     1       5.699  -4.697  22.991  0.00  0.00    +0.202 C 
ATOM      3  O   UNL     1       5.210  -5.050  21.920  0.00  0.00    -0.289 OA
ATOM      4  C   UNL     1       5.531  -5.455  24.257  0.00  0.00    +0.103 A 
ATOM      5  C   UNL     1       6.332  -5.090  25.346  0.00  0.00    +0.139 A 
ATOM      6  C   UNL     1       6.173  -5.721  26.584  0.00  0.00    +0.092 A 
ATOM      7  C   UNL     1       5.224  -6.726  26.723  0.00  0.00    +0.124 A 
ATOM      8  C   UNL     1       4.428  -7.111  25.652  0.00  0.00    +0.091 A 
ATOM      9  O   UNL     1       7.279  -4.104  25.319  0.00  0.00    -0.480 OA
ATOM     10  C   UNL     1       4.580  -6.473  24.418  0.00  0.00    +0.134 A 
ATOM     11  C   UNL     1       7.687  -3.669  24.009  0.00  0.00    +0.240 C 
ENDROOT
BRANCH  11  12
ATOM     12  C   UNL     1       8.529  -2.408  24.181  0.00  0.00    -0.001 A 
ATOM     13  C   UNL     1       8.229  -1.452  25.167  0.00  0.00    +0.056 A 
ATOM     14  C   UNL     1       8.998  -0.301  25.269  0.00  0.00    +0.159 A 
ATOM     15  C   UNL     1      10.062  -0.071  24.401  0.00  0.00    +0.158 A 
ATOM     16  C   UNL     1      10.370  -0.993  23.411  0.00  0.00    +0.049 A 
ATOM     17  C   UNL     1       9.603  -2.159  23.303  0.00  0.00    +0.011 A 
BRANCH  14  18
ATOM     18  O   UNL     1       8.697   0.617  26.234  0.00  0.00    -0.503 OA
ATOM     19  H   UNL     1       7.726   0.550  26.336  0.00  0.00    +0.292 HD
ENDBRANCH  14  18
BRANCH  15  20
ATOM     20  O   UNL     1      10.775   1.085  24.561  0.00  0.00    -0.503 OA
ATOM     21  H   UNL     1      10.953   1.451  23.678  0.00  0.00    +0.292 HD
ENDBRANCH  15  20
ENDBRANCH  11  12
BRANCH   1  22
ATOM     22  O   UNL     1       6.896  -2.990  21.791  0.00  0.00    -0.380 OA
ATOM     23  H   UNL     1       6.940  -2.012  21.825  0.00  0.00    +0.211 HD
ENDBRANCH   1  22
BRANCH   7  24
ATOM     24  O   UNL     1       5.034  -7.366  27.913  0.00  0.00    -0.507 OA
ATOM     25  H   UNL     1       4.449  -6.828  28.475  0.00  0.00    +0.292 HD
ENDBRANCH   7  24
BRANCH  10  26
ATOM     26  O   UNL     1       3.760  -6.840  23.388  0.00  0.00    -0.506 OA
ATOM     27  H   UNL     1       3.691  -7.807  23.343  0.00  0.00    +0.292 HD
ENDBRANCH  10  26
TORSDOF 6
ENDMDL
MODEL 9
REMARK VINA RESULT:      -6.6      2.815      3.232
REMARK  Name = 
REMARK  6 active torsions:
REMARK  status: ('A' for Active; 'I' for Inactive)
REMARK    1  A    between atoms: O_1  and  C_2
REMARK    2  A    between atoms: C_4  and  C_17
REMARK    3  A    between atoms: C_9  and  O_10
REMARK    4  A    between atoms: C_12  and  O_13
REMARK    5  A    between atoms: C_20  and  O_21
REMARK    6  A    between atoms: C_22  and  O_23
REMARK                            x       y       z     vdW  Elec       q    Type
REMARK                         _______ _______ _______ _____ _____    ______ ____
ROOT
ATOM      1  C   UNL     1       9.123  -2.376  23.932  0.00  0.00    +0.230 C 
ATOM      2  C   UNL     1       9.237  -3.625  24.788  0.00  0.00    +0.202 C 
ATOM      3  O   UNL     1      10.155  -4.425  24.617  0.00  0.00    -0.289 OA
ATOM      4  C   UNL     1       8.156  -3.820  25.787  0.00  0.00    +0.103 A 
ATOM      5  C   UNL     1       7.315  -2.734  26.056  0.00  0.00    +0.139 A 
ATOM      6  C   UNL     1       6.237  -2.876  26.937  0.00  0.00    +0.092 A 
ATOM      7  C   UNL     1       6.015  -4.099  27.556  0.00  0.00    +0.124 A 
ATOM      8  C   UNL     1       6.846  -5.186  27.311  0.00  0.00    +0.091 A 
ATOM      9  O   UNL     1       7.435  -1.497  25.487  0.00  0.00    -0.480 OA
ATOM     10  C   UNL     1       7.915  -5.047  26.423  0.00  0.00    +0.134 A 
ATOM     11  C   UNL     1       8.694  -1.227  24.844  0.00  0.00    +0.240 C 
ENDROOT
BRANCH  11  12
ATOM     12  C   UNL     1       8.543   0.069  24.055  0.00  0.00    -0.001 A 
ATOM     13  C   UNL     1       9.370   1.179  24.298  0.00  0.00    +0.056 A 
ATOM     14  C   UNL     1       9.177   2.353  23.583  0.00  0.00    +0.159 A 
ATOM     15  C   UNL     1       8.168   2.454  22.629  0.00  0.00    +0.158 A 
ATOM     16  C   UNL     1       7.330   1.377  22.380  0.00  0.00    +0.049 A 
ATOM     17  C   UNL     1       7.518   0.187  23.094  0.00  0.00    +0.011 A 
BRANCH  14  18
ATOM     18  O   UNL     1       9.991   3.422  23.828  0.00  0.00    -0.503 OA
ATOM     19  H   UNL     1      10.846   3.021  24.083  0.00  0.00    +0.292 HD
ENDBRANCH  14  18
BRANCH  15  20
ATOM     20  O   UNL     1       8.038   3.642  21.964  0.00  0.00    -0.503 OA
ATOM     21  H   UNL     1       8.929   3.948  21.722  0.00  0.00    +0.292 HD
ENDBRANCH  15  20
ENDBRANCH  11  12
BRANCH   1  22
ATOM     22  O   UNL     1      10.385  -2.115  23.308  0.00  0.00    -0.380 OA
ATOM     23  H   UNL     1      10.184  -1.556  22.529  0.00  0.00    +0.211 HD
ENDBRANCH   1  22
BRANCH   7  24
ATOM     24  O   UNL     1       4.975  -4.282  28.420  0.00  0.00    -0.507 OA
ATOM     25  H   UNL     1       5.222  -4.954  29.079  0.00  0.00    +0.292 HD
ENDBRANCH   7  24
BRANCH  10  26
ATOM     26  O   UNL     1       8.697  -6.138  26.166  0.00  0.00    -0.506 OA
ATOM     27  H   UNL     1       8.485  -6.503  25.292  0.00  0.00    +0.292 HD
ENDBRANCH  10  26
TORSDOF 6
ENDMDL
