MODEL 1
REMARK VINA RESULT:      -7.7      0.000      0.000
REMARK  Name = 
REMARK  16 active torsions:
REMARK  status: ('A' for Active; 'I' for Inactive)
REMARK    1  A    between atoms: C_1  and  C_2
REMARK    2  A    between atoms: N_4  and  C_5
REMARK    3  A    between atoms: C_5  and  C_7
REMARK    4  A    between atoms: C_5  and  C_22
REMARK    5  A    between atoms: C_7  and  C_8
REMARK    6  A    between atoms: C_11  and  P_18
REMARK    7  A    between atoms: C_12  and  P_14
REMARK    8  A    between atoms: P_14  and  O_15
REMARK    9  A    between atoms: P_14  and  O_16
REMARK   10  A    between atoms: P_18  and  O_19
REMARK   11  A    between atoms: P_18  and  O_20
REMARK   12  A    between atoms: N_24  and  C_25
REMARK   13  A    between atoms: C_33  and  O_34
REMARK   14  A    between atoms: O_34  and  C_35
REMARK   15  A    between atoms: C_35  and  C_36
REMARK   16  A    between atoms: C_42  and  C_45
REMARK                            x       y       z     vdW  Elec       q    Type
REMARK                         _______ _______ _______ _____ _____    ______ ____
ROOT
ATOM      1  C   UNL     1       8.490  -1.731  23.108  0.00  0.00    +0.234 C 
ATOM      2  N   UNL     1       8.260  -0.612  23.890  0.00  0.00    -0.307 N 
ATOM      3  H   UNL     1       7.359  -0.159  23.818  0.00  0.00    +0.149 HD
ATOM      4  O   UNL     1       9.619  -2.169  22.922  0.00  0.00    -0.274 OA
ENDROOT
BRANCH   2   5
ATOM      5  C   UNL     1       9.296   0.139  24.600  0.00  0.00    +0.103 C 
ATOM      6  C   UNL     1       8.909   1.603  24.756  0.00  0.00    -0.023 A 
ATOM      7  C   UNL     1       7.820   2.040  25.511  0.00  0.00    -0.039 A 
ATOM      8  C   UNL     1       7.568   3.424  25.592  0.00  0.00    +0.050 A 
ATOM      9  C   UNL     1       8.371   4.408  24.959  0.00  0.00    +0.133 A 
ATOM     10  C   UNL     1       9.502   3.982  24.240  0.00  0.00    +0.078 A 
ATOM     11  C   UNL     1       6.938   1.081  26.273  0.00  0.00    +0.035 C 
ATOM     12  C   UNL     1       7.697   0.362  27.389  0.00  0.00    +0.005 C 
ATOM     13  C   UNL     1       8.569  -0.801  26.920  0.00  0.00    +0.002 C 
ATOM     14  C   UNL     1       9.723   2.578  24.154  0.00  0.00    +0.022 A 
ATOM     15  C   UNL     1       9.706  -0.455  25.959  0.00  0.00    +0.027 C 
BRANCH  10  16
ATOM     16  C   UNL     1      10.577   4.735  23.494  0.00  0.00    +0.245 C 
ATOM     17  O   UNL     1      11.704   4.262  23.360  0.00  0.00    -0.270 OA
ATOM     18  N   UNL     1      10.390   5.983  22.985  0.00  0.00    -0.325 N 
ATOM     19  H   UNL     1      11.234   6.384  22.587  0.00  0.00    +0.145 HD
ATOM     20  H   UNL     1       9.762   6.635  23.421  0.00  0.00    +0.145 HD
ENDBRANCH  10  16
BRANCH   9  21
ATOM     21  O   UNL     1       7.847   5.652  25.219  0.00  0.00    -0.491 OA
BRANCH  21  22
ATOM     22  C   UNL     1       6.455   5.857  25.072  0.00  0.00    +0.232 C 
BRANCH  22  23
ATOM     23  C   UNL     1       6.050   6.452  23.712  0.00  0.00    +0.027 C 
ATOM     24  C   UNL     1       4.577   6.867  23.620  0.00  0.00    +0.007 C 
ATOM     25  C   UNL     1       3.632   5.670  23.670  0.00  0.00    +0.000 C 
ATOM     26  C   UNL     1       3.979   4.625  22.610  0.00  0.00    +0.000 C 
ATOM     27  C   UNL     1       5.448   4.212  22.644  0.00  0.00    +0.000 C 
ATOM     28  C   UNL     1       6.381   5.425  22.610  0.00  0.00    +0.007 C 
ENDBRANCH  22  23
ENDBRANCH  21  22
ENDBRANCH   9  21
ENDBRANCH   2   5
BRANCH   1  29
ATOM     29  C   UNL     1       7.226  -2.401  22.523  0.00  0.00    +0.163 C 
BRANCH  29  32
ATOM     30  C   UNL     1       7.031  -6.020  21.360  0.00  0.00    +0.109 C 
ATOM     31  C   UNL     1       6.660  -4.565  21.441  0.00  0.00    +0.211 C 
ATOM     32  N   UNL     1       7.488  -3.811  22.235  0.00  0.00    -0.304 N 
ATOM     33  H   UNL     1       8.362  -4.197  22.573  0.00  0.00    +0.149 HD
ATOM     34  O   UNL     1       5.693  -4.110  20.842  0.00  0.00    -0.276 OA
ENDBRANCH  29  32
BRANCH  29  35
ATOM     35  C   UNL     1       6.004  -2.197  23.458  0.00  0.00    +0.067 C 
BRANCH  35  36
ATOM     36  C   UNL     1       5.798  -3.172  24.597  0.00  0.00    -0.044 A 
ATOM     37  C   UNL     1       4.965  -4.286  24.529  0.00  0.00    +0.020 A 
ATOM     38  C   UNL     1       4.898  -5.220  25.580  0.00  0.00    +0.078 A 
ATOM     39  C   UNL     1       5.501  -5.041  26.718  0.00  0.00    +0.078 A 
ATOM     40  C   UNL     1       6.348  -3.909  26.825  0.00  0.00    +0.017 A 
ATOM     41  C   UNL     1       6.524  -3.008  25.772  0.00  0.00    +0.004 A 
BRANCH  38  42
ATOM     42  P   UNL     1       4.084  -6.819  25.219  0.00  0.00    +0.359 P 
ATOM     43  O   UNL     1       3.395  -8.172  24.915  0.00  0.00    -0.253 OA
BRANCH  42  44
ATOM     44  O   UNL     1       4.919  -6.978  23.813  0.00  0.00    -0.321 OA
ATOM     45  H   UNL     1       5.275  -6.077  23.634  0.00  0.00    +0.220 HD
ENDBRANCH  42  44
BRANCH  42  46
ATOM     46  O   UNL     1       2.811  -5.947  24.658  0.00  0.00    -0.321 OA
ATOM     47  H   UNL     1       1.962  -6.355  24.914  0.00  0.00    +0.220 HD
ENDBRANCH  42  46
ENDBRANCH  38  42
BRANCH  39  48
ATOM     48  P   UNL     1       5.523  -6.383  27.963  0.00  0.00    +0.359 P 
ATOM     49  O   UNL     1       5.542  -7.517  29.016  0.00  0.00    -0.253 OA
BRANCH  48  50
ATOM     50  O   UNL     1       5.077  -5.227  29.063  0.00  0.00    -0.321 OA
ATOM     51  H   UNL     1       5.710  -4.488  29.060  0.00  0.00    +0.220 HD
ENDBRANCH  48  50
BRANCH  48  52
ATOM     52  O   UNL     1       7.144  -6.138  28.168  0.00  0.00    -0.321 OA
ATOM     53  H   UNL     1       7.350  -5.383  27.584  0.00  0.00    +0.220 HD
ENDBRANCH  48  52
ENDBRANCH  39  48
ENDBRANCH  35  36
ENDBRANCH  29  35
ENDBRANCH   1  29
TORSDOF 15
ENDMDL
MODEL 2
REMARK VINA RESULT:      -7.2      3.782      8.931
REMARK  Name = 
REMARK  16 active torsions:
REMARK  status: ('A' for Active; 'I' for Inactive)
REMARK    1  A    between atoms: C_1  and  C_2
REMARK    2  A    between atoms: N_4  and  C_5
REMARK    3  A    between atoms: C_5  and  C_7
REMARK    4  A    between atoms: C_5  and  C_22
REMARK    5  A    between atoms: C_7  and  C_8
REMARK    6  A    between atoms: C_11  and  P_18
REMARK    7  A    between atoms: C_12  and  P_14
REMARK    8  A    between atoms: P_14  and  O_15
REMARK    9  A    between atoms: P_14  and  O_16
REMARK   10  A    between atoms: P_18  and  O_19
REMARK   11  A    between atoms: P_18  and  O_20
REMARK   12  A    between atoms: N_24  and  C_25
REMARK   13  A    between atoms: C_33  and  O_34
REMARK   14  A    between atoms: O_34  and  C_35
REMARK   15  A    between atoms: C_35  and  C_36
REMARK   16  A    between atoms: C_42  and  C_45
REMARK                            x       y       z     vdW  Elec       q    Type
REMARK                         _______ _______ _______ _____ _____    ______ ____
ROOT
ATOM      1  C   UNL     1       9.402  -3.061  24.380  0.00  0.00    +0.234 C 
ATOM      2  N   UNL     1       8.063  -3.410  24.375  0.00  0.00    -0.307 N 
ATOM      3  H   UNL     1       7.382  -2.686  24.557  0.00  0.00    +0.149 HD
ATOM      4  O   UNL     1      10.290  -3.903  24.446  0.00  0.00    -0.274 OA
ENDROOT
BRANCH   2   5
ATOM      5  C   UNL     1       7.556  -4.783  24.409  0.00  0.00    +0.103 C 
ATOM      6  C   UNL     1       6.227  -4.864  25.148  0.00  0.00    -0.023 A 
ATOM      7  C   UNL     1       5.056  -4.250  24.703  0.00  0.00    -0.039 A 
ATOM      8  C   UNL     1       3.881  -4.407  25.467  0.00  0.00    +0.050 A 
ATOM      9  C   UNL     1       3.816  -5.172  26.660  0.00  0.00    +0.133 A 
ATOM     10  C   UNL     1       4.978  -5.838  27.088  0.00  0.00    +0.078 A 
ATOM     11  C   UNL     1       5.002  -3.466  23.414  0.00  0.00    +0.035 C 
ATOM     12  C   UNL     1       5.258  -4.347  22.192  0.00  0.00    +0.005 C 
ATOM     13  C   UNL     1       6.728  -4.675  21.939  0.00  0.00    +0.002 C 
ATOM     14  C   UNL     1       6.157  -5.646  26.313  0.00  0.00    +0.022 A 
ATOM     15  C   UNL     1       7.447  -5.464  23.033  0.00  0.00    +0.027 C 
BRANCH  10  16
ATOM     16  C   UNL     1       5.256  -6.749  28.259  0.00  0.00    +0.245 C 
ATOM     17  O   UNL     1       6.404  -6.933  28.660  0.00  0.00    -0.270 OA
ATOM     18  N   UNL     1       4.283  -7.457  28.895  0.00  0.00    -0.325 N 
ATOM     19  H   UNL     1       4.645  -8.086  29.605  0.00  0.00    +0.145 HD
ATOM     20  H   UNL     1       3.468  -7.778  28.404  0.00  0.00    +0.145 HD
ENDBRANCH  10  16
BRANCH   9  21
ATOM     21  O   UNL     1       2.539  -5.107  27.166  0.00  0.00    -0.491 OA
BRANCH  21  22
ATOM     22  C   UNL     1       1.793  -3.917  27.002  0.00  0.00    +0.232 C 
BRANCH  22  23
ATOM     23  C   UNL     1       1.703  -3.054  28.274  0.00  0.00    +0.027 C 
ATOM     24  C   UNL     1       0.731  -1.874  28.165  0.00  0.00    +0.007 C 
ATOM     25  C   UNL     1       1.206  -0.819  27.170  0.00  0.00    +0.000 C 
ATOM     26  C   UNL     1       2.624  -0.341  27.480  0.00  0.00    +0.000 C 
ATOM     27  C   UNL     1       3.617  -1.490  27.632  0.00  0.00    +0.000 C 
ATOM     28  C   UNL     1       3.117  -2.546  28.621  0.00  0.00    +0.007 C 
ENDBRANCH  22  23
ENDBRANCH  21  22
ENDBRANCH   9  21
ENDBRANCH   2   5
BRANCH   1  29
ATOM     29  C   UNL     1       9.693  -1.548  24.258  0.00  0.00    +0.163 C 
BRANCH  29  32
ATOM     30  C   UNL     1       9.005   0.514  21.133  0.00  0.00    +0.109 C 
ATOM     31  C   UNL     1       9.723   0.081  22.383  0.00  0.00    +0.211 C 
ATOM     32  N   UNL     1       9.200  -1.039  22.978  0.00  0.00    -0.304 N 
ATOM     33  H   UNL     1       8.509  -1.601  22.493  0.00  0.00    +0.149 HD
ATOM     34  O   UNL     1      10.690   0.695  22.818  0.00  0.00    -0.276 OA
ENDBRANCH  29  32
BRANCH  29  35
ATOM     35  C   UNL     1       9.120  -0.771  25.473  0.00  0.00    +0.067 C 
BRANCH  35  36
ATOM     36  C   UNL     1       8.034   0.254  25.226  0.00  0.00    -0.044 A 
ATOM     37  C   UNL     1       8.275   1.602  24.978  0.00  0.00    +0.020 A 
ATOM     38  C   UNL     1       7.233   2.487  24.645  0.00  0.00    +0.078 A 
ATOM     39  C   UNL     1       5.980   2.139  24.671  0.00  0.00    +0.078 A 
ATOM     40  C   UNL     1       5.699   0.774  24.931  0.00  0.00    +0.017 A 
ATOM     41  C   UNL     1       6.708  -0.163  25.169  0.00  0.00    +0.004 A 
BRANCH  38  42
ATOM     42  P   UNL     1       7.714   4.119  23.967  0.00  0.00    +0.359 P 
ATOM     43  O   UNL     1       8.119   5.499  23.395  0.00  0.00    -0.253 OA
BRANCH  42  44
ATOM     44  O   UNL     1       8.929   3.446  23.090  0.00  0.00    -0.321 OA
ATOM     45  H   UNL     1       9.496   4.208  22.829  0.00  0.00    +0.220 HD
ENDBRANCH  42  44
BRANCH  42  46
ATOM     46  O   UNL     1       8.526   4.367  25.373  0.00  0.00    -0.321 OA
ATOM     47  H   UNL     1       8.359   5.262  25.725  0.00  0.00    +0.220 HD
ENDBRANCH  42  46
ENDBRANCH  38  42
BRANCH  39  48
ATOM     48  P   UNL     1       4.699   3.285  24.042  0.00  0.00    +0.359 P 
ATOM     49  O   UNL     1       3.614   4.253  23.511  0.00  0.00    -0.253 OA
BRANCH  48  50
ATOM     50  O   UNL     1       3.594   2.263  24.736  0.00  0.00    -0.321 OA
ATOM     51  H   UNL     1       3.542   1.427  24.240  0.00  0.00    +0.220 HD
ENDBRANCH  48  50
BRANCH  48  52
ATOM     52  O   UNL     1       4.723   2.487  22.596  0.00  0.00    -0.321 OA
ATOM     53  H   UNL     1       5.663   2.255  22.463  0.00  0.00    +0.220 HD
ENDBRANCH  48  52
ENDBRANCH  39  48
ENDBRANCH  35  36
ENDBRANCH  29  35
ENDBRANCH   1  29
TORSDOF 15
ENDMDL
MODEL 3
REMARK VINA RESULT:      -7.2      4.219      9.415
REMARK  Name = 
REMARK  16 active torsions:
REMARK  status: ('A' for Active; 'I' for Inactive)
REMARK    1  A    between atoms: C_1  and  C_2
REMARK    2  A    between atoms: N_4  and  C_5
REMARK    3  A    between atoms: C_5  and  C_7
REMARK    4  A    between atoms: C_5  and  C_22
REMARK    5  A    between atoms: C_7  and  C_8
REMARK    6  A    between atoms: C_11  and  P_18
REMARK    7  A    between atoms: C_12  and  P_14
REMARK    8  A    between atoms: P_14  and  O_15
REMARK    9  A    between atoms: P_14  and  O_16
REMARK   10  A    between atoms: P_18  and  O_19
REMARK   11  A    between atoms: P_18  and  O_20
REMARK   12  A    between atoms: N_24  and  C_25
REMARK   13  A    between atoms: C_33  and  O_34
REMARK   14  A    between atoms: O_34  and  C_35
REMARK   15  A    between atoms: C_35  and  C_36
REMARK   16  A    between atoms: C_42  and  C_45
REMARK                            x       y       z     vdW  Elec       q    Type
REMARK                         _______ _______ _______ _____ _____    ______ ____
ROOT
ATOM      1  C   UNL     1       7.568   0.973  26.407  0.00  0.00    +0.234 C 
ATOM      2  N   UNL     1       8.505   1.072  25.393  0.00  0.00    -0.307 N 
ATOM      3  H   UNL     1       8.340   1.744  24.657  0.00  0.00    +0.149 HD
ATOM      4  O   UNL     1       7.541   0.016  27.172  0.00  0.00    -0.274 OA
ENDROOT
BRANCH   2   5
ATOM      5  C   UNL     1       9.569   0.098  25.140  0.00  0.00    +0.103 C 
ATOM      6  C   UNL     1       9.031  -1.136  24.429  0.00  0.00    -0.023 A 
ATOM      7  C   UNL     1       8.494  -1.115  23.141  0.00  0.00    -0.039 A 
ATOM      8  C   UNL     1       8.039  -2.326  22.581  0.00  0.00    +0.050 A 
ATOM      9  C   UNL     1       8.110  -3.576  23.249  0.00  0.00    +0.133 A 
ATOM     10  C   UNL     1       8.698  -3.617  24.525  0.00  0.00    +0.078 A 
ATOM     11  C   UNL     1       8.429   0.151  22.321  0.00  0.00    +0.035 C 
ATOM     12  C   UNL     1       9.818   0.690  21.981  0.00  0.00    +0.005 C 
ATOM     13  C   UNL     1      10.501   1.452  23.116  0.00  0.00    +0.002 C 
ATOM     14  C   UNL     1       9.130  -2.378  25.079  0.00  0.00    +0.022 A 
ATOM     15  C   UNL     1      10.791   0.660  24.390  0.00  0.00    +0.027 C 
BRANCH  10  16
ATOM     16  C   UNL     1       8.971  -4.750  25.485  0.00  0.00    +0.245 C 
ATOM     17  O   UNL     1       8.095  -5.160  26.245  0.00  0.00    -0.270 OA
ATOM     18  N   UNL     1      10.191  -5.338  25.610  0.00  0.00    -0.325 N 
ATOM     19  H   UNL     1      10.230  -6.025  26.356  0.00  0.00    +0.145 HD
ATOM     20  H   UNL     1      11.037  -4.820  25.450  0.00  0.00    +0.145 HD
ENDBRANCH  10  16
BRANCH   9  21
ATOM     21  O   UNL     1       7.569  -4.548  22.441  0.00  0.00    -0.491 OA
BRANCH  21  22
ATOM     22  C   UNL     1       6.898  -5.642  23.035  0.00  0.00    +0.232 C 
BRANCH  22  23
ATOM     23  C   UNL     1       5.365  -5.579  22.912  0.00  0.00    +0.027 C 
ATOM     24  C   UNL     1       4.761  -4.218  23.276  0.00  0.00    +0.007 C 
ATOM     25  C   UNL     1       4.915  -3.891  24.758  0.00  0.00    +0.000 C 
ATOM     26  C   UNL     1       4.354  -5.000  25.648  0.00  0.00    +0.000 C 
ATOM     27  C   UNL     1       4.904  -6.379  25.293  0.00  0.00    +0.000 C 
ATOM     28  C   UNL     1       4.757  -6.683  23.800  0.00  0.00    +0.007 C 
ENDBRANCH  22  23
ENDBRANCH  21  22
ENDBRANCH   9  21
ENDBRANCH   2   5
BRANCH   1  29
ATOM     29  C   UNL     1       6.593   2.165  26.526  0.00  0.00    +0.163 C 
BRANCH  29  32
ATOM     30  C   UNL     1       5.352   3.411  29.901  0.00  0.00    +0.109 C 
ATOM     31  C   UNL     1       5.260   2.890  28.493  0.00  0.00    +0.211 C 
ATOM     32  N   UNL     1       6.470   2.582  27.922  0.00  0.00    -0.304 N 
ATOM     33  H   UNL     1       7.309   2.551  28.489  0.00  0.00    +0.149 HD
ATOM     34  O   UNL     1       4.185   2.760  27.921  0.00  0.00    -0.276 OA
ENDBRANCH  29  32
BRANCH  29  35
ATOM     35  C   UNL     1       7.016   3.328  25.588  0.00  0.00    +0.067 C 
BRANCH  35  36
ATOM     36  C   UNL     1       5.995   3.876  24.615  0.00  0.00    -0.044 A 
ATOM     37  C   UNL     1       4.676   3.435  24.537  0.00  0.00    +0.020 A 
ATOM     38  C   UNL     1       3.741   4.058  23.690  0.00  0.00    +0.078 A 
ATOM     39  C   UNL     1       4.072   4.987  22.842  0.00  0.00    +0.078 A 
ATOM     40  C   UNL     1       5.411   5.451  22.886  0.00  0.00    +0.017 A 
ATOM     41  C   UNL     1       6.350   4.931  23.781  0.00  0.00    +0.004 A 
BRANCH  38  42
ATOM     42  P   UNL     1       1.977   3.654  23.961  0.00  0.00    +0.359 P 
ATOM     43  O   UNL     1       0.484   3.314  24.190  0.00  0.00    -0.253 OA
BRANCH  42  44
ATOM     44  O   UNL     1       2.354   2.626  25.185  0.00  0.00    -0.321 OA
ATOM     45  H   UNL     1       3.315   2.445  25.068  0.00  0.00    +0.220 HD
ENDBRANCH  42  44
BRANCH  42  46
ATOM     46  O   UNL     1       2.112   2.608  22.703  0.00  0.00    -0.321 OA
ATOM     47  H   UNL     1       2.240   1.692  23.016  0.00  0.00    +0.220 HD
ENDBRANCH  42  46
ENDBRANCH  38  42
BRANCH  39  48
ATOM     48  P   UNL     1       2.773   5.880  21.911  0.00  0.00    +0.359 P 
ATOM     49  O   UNL     1       1.674   6.635  21.123  0.00  0.00    -0.253 OA
BRANCH  48  50
ATOM     50  O   UNL     1       2.922   4.690  20.767  0.00  0.00    -0.321 OA
ATOM     51  H   UNL     1       3.770   4.772  20.297  0.00  0.00    +0.220 HD
ENDBRANCH  48  50
BRANCH  48  52
ATOM     52  O   UNL     1       3.939   6.844  21.248  0.00  0.00    -0.321 OA
ATOM     53  H   UNL     1       3.871   6.681  20.288  0.00  0.00    +0.220 HD
ENDBRANCH  48  52
ENDBRANCH  39  48
ENDBRANCH  35  36
ENDBRANCH  29  35
ENDBRANCH   1  29
TORSDOF 15
ENDMDL
MODEL 4
REMARK VINA RESULT:      -7.1      1.072      2.385
REMARK  Name = 
REMARK  16 active torsions:
REMARK  status: ('A' for Active; 'I' for Inactive)
REMARK    1  A    between atoms: C_1  and  C_2
REMARK    2  A    between atoms: N_4  and  C_5
REMARK    3  A    between atoms: C_5  and  C_7
REMARK    4  A    between atoms: C_5  and  C_22
REMARK    5  A    between atoms: C_7  and  C_8
REMARK    6  A    between atoms: C_11  and  P_18
REMARK    7  A    between atoms: C_12  and  P_14
REMARK    8  A    between atoms: P_14  and  O_15
REMARK    9  A    between atoms: P_14  and  O_16
REMARK   10  A    between atoms: P_18  and  O_19
REMARK   11  A    between atoms: P_18  and  O_20
REMARK   12  A    between atoms: N_24  and  C_25
REMARK   13  A    between atoms: C_33  and  O_34
REMARK   14  A    between atoms: O_34  and  C_35
REMARK   15  A    between atoms: C_35  and  C_36
REMARK   16  A    between atoms: C_42  and  C_45
REMARK                            x       y       z     vdW  Elec       q    Type
REMARK                         _______ _______ _______ _____ _____    ______ ____
ROOT
ATOM      1  C   UNL     1       8.289  -1.955  23.279  0.00  0.00    +0.234 C 
ATOM      2  N   UNL     1       8.153  -0.726  23.901  0.00  0.00    -0.307 N 
ATOM      3  H   UNL     1       7.315  -0.191  23.720  0.00  0.00    +0.149 HD
ATOM      4  O   UNL     1       9.369  -2.533  23.217  0.00  0.00    -0.274 OA
ENDROOT
BRANCH   2   5
ATOM      5  C   UNL     1       9.236  -0.004  24.572  0.00  0.00    +0.103 C 
ATOM      6  C   UNL     1       8.866   1.454  24.806  0.00  0.00    -0.023 A 
ATOM      7  C   UNL     1       7.828   1.865  25.644  0.00  0.00    -0.039 A 
ATOM      8  C   UNL     1       7.588   3.246  25.793  0.00  0.00    +0.050 A 
ATOM      9  C   UNL     1       8.354   4.251  25.148  0.00  0.00    +0.133 A 
ATOM     10  C   UNL     1       9.436   3.849  24.344  0.00  0.00    +0.078 A 
ATOM     11  C   UNL     1       6.991   0.879  26.424  0.00  0.00    +0.035 C 
ATOM     12  C   UNL     1       7.814   0.118  27.462  0.00  0.00    +0.005 C 
ATOM     13  C   UNL     1       8.650  -1.029  26.896  0.00  0.00    +0.002 C 
ATOM     14  C   UNL     1       9.645   2.449  24.192  0.00  0.00    +0.022 A 
ATOM     15  C   UNL     1       9.727  -0.650  25.880  0.00  0.00    +0.027 C 
BRANCH  10  16
ATOM     16  C   UNL     1      10.466   4.628  23.561  0.00  0.00    +0.245 C 
ATOM     17  O   UNL     1      11.585   4.163  23.350  0.00  0.00    -0.270 OA
ATOM     18  N   UNL     1      10.248   5.889  23.100  0.00  0.00    -0.325 N 
ATOM     19  H   UNL     1      11.068   6.304  22.668  0.00  0.00    +0.145 HD
ATOM     20  H   UNL     1       9.645   6.525  23.590  0.00  0.00    +0.145 HD
ENDBRANCH  10  16
BRANCH   9  21
ATOM     21  O   UNL     1       7.853   5.485  25.487  0.00  0.00    -0.491 OA
BRANCH  21  22
ATOM     22  C   UNL     1       6.730   5.987  24.789  0.00  0.00    +0.232 C 
BRANCH  22  23
ATOM     23  C   UNL     1       6.372   5.188  23.522  0.00  0.00    +0.027 C 
ATOM     24  C   UNL     1       6.978   5.751  22.232  0.00  0.00    +0.007 C 
ATOM     25  C   UNL     1       6.391   7.108  21.857  0.00  0.00    +0.000 C 
ATOM     26  C   UNL     1       4.865   7.067  21.778  0.00  0.00    +0.000 C 
ATOM     27  C   UNL     1       4.223   6.478  23.031  0.00  0.00    +0.000 C 
ATOM     28  C   UNL     1       4.836   5.125  23.402  0.00  0.00    +0.007 C 
ENDBRANCH  22  23
ENDBRANCH  21  22
ENDBRANCH   9  21
ENDBRANCH   2   5
BRANCH   1  29
ATOM     29  C   UNL     1       6.985  -2.556  22.708  0.00  0.00    +0.163 C 
BRANCH  29  32
ATOM     30  C   UNL     1       6.651  -6.160  21.531  0.00  0.00    +0.109 C 
ATOM     31  C   UNL     1       6.440  -4.671  21.524  0.00  0.00    +0.211 C 
ATOM     32  N   UNL     1       7.144  -3.993  22.488  0.00  0.00    -0.304 N 
ATOM     33  H   UNL     1       7.868  -4.464  23.018  0.00  0.00    +0.149 HD
ATOM     34  O   UNL     1       5.693  -4.128  20.718  0.00  0.00    -0.276 OA
ENDBRANCH  29  32
BRANCH  29  35
ATOM     35  C   UNL     1       5.772  -2.219  23.616  0.00  0.00    +0.067 C 
BRANCH  35  36
ATOM     36  C   UNL     1       5.140  -3.336  24.417  0.00  0.00    -0.044 A 
ATOM     37  C   UNL     1       5.699  -3.884  25.568  0.00  0.00    +0.020 A 
ATOM     38  C   UNL     1       5.013  -4.844  26.335  0.00  0.00    +0.078 A 
ATOM     39  C   UNL     1       3.885  -5.370  25.956  0.00  0.00    +0.078 A 
ATOM     40  C   UNL     1       3.293  -4.842  24.781  0.00  0.00    +0.017 A 
ATOM     41  C   UNL     1       3.890  -3.818  24.042  0.00  0.00    +0.004 A 
BRANCH  38  42
ATOM     42  P   UNL     1       5.667  -5.193  28.009  0.00  0.00    +0.359 P 
ATOM     43  O   UNL     1       6.221  -5.489  29.424  0.00  0.00    -0.253 OA
BRANCH  42  44
ATOM     44  O   UNL     1       4.972  -3.832  28.612  0.00  0.00    -0.321 OA
ATOM     45  H   UNL     1       4.124  -4.142  29.006  0.00  0.00    +0.220 HD
ENDBRANCH  42  44
BRANCH  42  46
ATOM     46  O   UNL     1       7.086  -4.545  27.495  0.00  0.00    -0.321 OA
ATOM     47  H   UNL     1       6.993  -4.144  26.610  0.00  0.00    +0.220 HD
ENDBRANCH  42  46
ENDBRANCH  38  42
BRANCH  39  48
ATOM     48  P   UNL     1       2.961  -6.468  27.092  0.00  0.00    +0.359 P 
ATOM     49  O   UNL     1       2.179  -7.397  28.052  0.00  0.00    -0.253 OA
BRANCH  48  50
ATOM     50  O   UNL     1       3.394  -7.706  26.080  0.00  0.00    -0.321 OA
ATOM     51  H   UNL     1       4.297  -7.573  25.743  0.00  0.00    +0.220 HD
ENDBRANCH  48  50
BRANCH  48  52
ATOM     52  O   UNL     1       1.571  -6.111  26.273  0.00  0.00    -0.321 OA
ATOM     53  H   UNL     1       1.696  -6.520  25.395  0.00  0.00    +0.220 HD
ENDBRANCH  48  52
ENDBRANCH  39  48
ENDBRANCH  35  36
ENDBRANCH  29  35
ENDBRANCH   1  29
TORSDOF 15
ENDMDL
MODEL 5
REMARK VINA RESULT:      -7.1      3.690      9.631
REMARK  Name = 
REMARK  16 active torsions:
REMARK  status: ('A' for Active; 'I' for Inactive)
REMARK    1  A    between atoms: C_1  and  C_2
REMARK    2  A    between atoms: N_4  and  C_5
REMARK    3  A    between atoms: C_5  and  C_7
REMARK    4  A    between atoms: C_5  and  C_22
REMARK    5  A    between atoms: C_7  and  C_8
REMARK    6  A    between atoms: C_11  and  P_18
REMARK    7  A    between atoms: C_12  and  P_14
REMARK    8  A    between atoms: P_14  and  O_15
REMARK    9  A    between atoms: P_14  and  O_16
REMARK   10  A    between atoms: P_18  and  O_19
REMARK   11  A    between atoms: P_18  and  O_20
REMARK   12  A    between atoms: N_24  and  C_25
REMARK   13  A    between atoms: C_33  and  O_34
REMARK   14  A    between atoms: O_34  and  C_35
REMARK   15  A    between atoms: C_35  and  C_36
REMARK   16  A    between atoms: C_42  and  C_45
REMARK                            x       y       z     vdW  Elec       q    Type
REMARK                         _______ _______ _______ _____ _____    ______ ____
ROOT
ATOM      1  C   UNL     1       9.396  -2.660  24.459  0.00  0.00    +0.234 C 
ATOM      2  N   UNL     1       8.149  -3.141  24.818  0.00  0.00    -0.307 N 
ATOM      3  H   UNL     1       7.528  -2.525  25.324  0.00  0.00    +0.149 HD
ATOM      4  O   UNL     1      10.299  -3.406  24.100  0.00  0.00    -0.274 OA
ENDROOT
BRANCH   2   5
ATOM      5  C   UNL     1       7.753  -4.551  24.780  0.00  0.00    +0.103 C 
ATOM      6  C   UNL     1       6.375  -4.755  25.393  0.00  0.00    -0.023 A 
ATOM      7  C   UNL     1       5.202  -4.224  24.856  0.00  0.00    -0.039 A 
ATOM      8  C   UNL     1       3.981  -4.493  25.506  0.00  0.00    +0.050 A 
ATOM      9  C   UNL     1       3.871  -5.291  26.674  0.00  0.00    +0.133 A 
ATOM     10  C   UNL     1       5.040  -5.875  27.193  0.00  0.00    +0.078 A 
ATOM     11  C   UNL     1       5.200  -3.413  23.582  0.00  0.00    +0.035 C 
ATOM     12  C   UNL     1       5.634  -4.239  22.372  0.00  0.00    +0.005 C 
ATOM     13  C   UNL     1       7.143  -4.444  22.248  0.00  0.00    +0.002 C 
ATOM     14  C   UNL     1       6.264  -5.571  26.532  0.00  0.00    +0.022 A 
ATOM     15  C   UNL     1       7.823  -5.202  23.387  0.00  0.00    +0.027 C 
BRANCH  10  16
ATOM     16  C   UNL     1       5.285  -6.792  28.367  0.00  0.00    +0.245 C 
ATOM     17  O   UNL     1       6.427  -7.021  28.764  0.00  0.00    -0.270 OA
ATOM     18  N   UNL     1       4.286  -7.455  29.011  0.00  0.00    -0.325 N 
ATOM     19  H   UNL     1       4.625  -8.095  29.722  0.00  0.00    +0.145 HD
ATOM     20  H   UNL     1       3.456  -7.743  28.525  0.00  0.00    +0.145 HD
ENDBRANCH  10  16
BRANCH   9  21
ATOM     21  O   UNL     1       2.553  -5.341  27.063  0.00  0.00    -0.491 OA
BRANCH  21  22
ATOM     22  C   UNL     1       1.548  -4.979  26.135  0.00  0.00    +0.232 C 
BRANCH  22  23
ATOM     23  C   UNL     1       0.655  -6.152  25.691  0.00  0.00    +0.027 C 
ATOM     24  C   UNL     1       1.199  -7.534  26.068  0.00  0.00    +0.007 C 
ATOM     25  C   UNL     1       2.477  -7.882  25.311  0.00  0.00    +0.000 C 
ATOM     26  C   UNL     1       2.297  -7.753  23.799  0.00  0.00    +0.000 C 
ATOM     27  C   UNL     1       1.722  -6.401  23.385  0.00  0.00    +0.000 C 
ATOM     28  C   UNL     1       0.450  -6.061  24.166  0.00  0.00    +0.007 C 
ENDBRANCH  22  23
ENDBRANCH  21  22
ENDBRANCH   9  21
ENDBRANCH   2   5
BRANCH   1  29
ATOM     29  C   UNL     1       9.551  -1.123  24.506  0.00  0.00    +0.163 C 
BRANCH  29  32
ATOM     30  C   UNL     1       9.066   1.115  21.466  0.00  0.00    +0.109 C 
ATOM     31  C   UNL     1       9.719   0.591  22.716  0.00  0.00    +0.211 C 
ATOM     32  N   UNL     1       9.127  -0.532  23.238  0.00  0.00    -0.304 N 
ATOM     33  H   UNL     1       8.429  -1.037  22.703  0.00  0.00    +0.149 HD
ATOM     34  O   UNL     1      10.696   1.138  23.213  0.00  0.00    -0.276 OA
ENDBRANCH  29  32
BRANCH  29  35
ATOM     35  C   UNL     1       8.801  -0.524  25.727  0.00  0.00    +0.067 C 
BRANCH  35  36
ATOM     36  C   UNL     1       7.677   0.456  25.473  0.00  0.00    -0.044 A 
ATOM     37  C   UNL     1       7.846   1.837  25.410  0.00  0.00    +0.020 A 
ATOM     38  C   UNL     1       6.785   2.692  25.059  0.00  0.00    +0.078 A 
ATOM     39  C   UNL     1       5.565   2.269  24.899  0.00  0.00    +0.078 A 
ATOM     40  C   UNL     1       5.357   0.869  24.968  0.00  0.00    +0.017 A 
ATOM     41  C   UNL     1       6.399  -0.028  25.214  0.00  0.00    +0.004 A 
BRANCH  38  42
ATOM     42  P   UNL     1       7.217   4.419  24.632  0.00  0.00    +0.359 P 
ATOM     43  O   UNL     1       7.581   5.880  24.272  0.00  0.00    -0.253 OA
BRANCH  42  44
ATOM     44  O   UNL     1       8.050   3.929  23.304  0.00  0.00    -0.321 OA
ATOM     45  H   UNL     1       8.862   4.487  23.302  0.00  0.00    +0.220 HD
ENDBRANCH  42  44
BRANCH  42  46
ATOM     46  O   UNL     1       8.421   4.302  25.742  0.00  0.00    -0.321 OA
ATOM     47  H   UNL     1       8.211   3.635  26.424  0.00  0.00    +0.220 HD
ENDBRANCH  42  46
ENDBRANCH  38  42
BRANCH  39  48
ATOM     48  P   UNL     1       4.280   3.405  24.260  0.00  0.00    +0.359 P 
ATOM     49  O   UNL     1       3.193   4.365  23.719  0.00  0.00    -0.253 OA
BRANCH  48  50
ATOM     50  O   UNL     1       3.177   2.348  24.900  0.00  0.00    -0.321 OA
ATOM     51  H   UNL     1       3.472   2.030  25.771  0.00  0.00    +0.220 HD
ENDBRANCH  48  50
BRANCH  48  52
ATOM     52  O   UNL     1       4.360   2.639  22.798  0.00  0.00    -0.321 OA
ATOM     53  H   UNL     1       3.672   3.074  22.259  0.00  0.00    +0.220 HD
ENDBRANCH  48  52
ENDBRANCH  39  48
ENDBRANCH  35  36
ENDBRANCH  29  35
ENDBRANCH   1  29
TORSDOF 15
ENDMDL
MODEL 6
REMARK VINA RESULT:      -7.1      2.524      4.058
REMARK  Name = 
REMARK  16 active torsions:
REMARK  status: ('A' for Active; 'I' for Inactive)
REMARK    1  A    between atoms: C_1  and  C_2
REMARK    2  A    between atoms: N_4  and  C_5
REMARK    3  A    between atoms: C_5  and  C_7
REMARK    4  A    between atoms: C_5  and  C_22
REMARK    5  A    between atoms: C_7  and  C_8
REMARK    6  A    between atoms: C_11  and  P_18
REMARK    7  A    between atoms: C_12  and  P_14
REMARK    8  A    between atoms: P_14  and  O_15
REMARK    9  A    between atoms: P_14  and  O_16
REMARK   10  A    between atoms: P_18  and  O_19
REMARK   11  A    between atoms: P_18  and  O_20
REMARK   12  A    between atoms: N_24  and  C_25
REMARK   13  A    between atoms: C_33  and  O_34
REMARK   14  A    between atoms: O_34  and  C_35
REMARK   15  A    between atoms: C_35  and  C_36
REMARK   16  A    between atoms: C_42  and  C_45
REMARK                            x       y       z     vdW  Elec       q    Type
REMARK                         _______ _______ _______ _____ _____    ______ ____
ROOT
ATOM      1  C   UNL     1       7.099  -2.672  22.806  0.00  0.00    +0.234 C 
ATOM      2  N   UNL     1       8.069  -1.692  22.936  0.00  0.00    -0.307 N 
ATOM      3  H   UNL     1       8.777  -1.815  23.646  0.00  0.00    +0.149 HD
ATOM      4  O   UNL     1       6.064  -2.479  22.180  0.00  0.00    -0.274 OA
ENDROOT
BRANCH   2   5
ATOM      5  C   UNL     1       7.998  -0.361  22.331  0.00  0.00    +0.103 C 
ATOM      6  C   UNL     1       7.562   0.686  23.347  0.00  0.00    -0.023 A 
ATOM      7  C   UNL     1       8.314   1.037  24.468  0.00  0.00    -0.039 A 
ATOM      8  C   UNL     1       7.813   2.032  25.332  0.00  0.00    +0.050 A 
ATOM      9  C   UNL     1       6.586   2.713  25.118  0.00  0.00    +0.133 A 
ATOM     10  C   UNL     1       5.847   2.405  23.962  0.00  0.00    +0.078 A 
ATOM     11  C   UNL     1       9.661   0.417  24.756  0.00  0.00    +0.035 C 
ATOM     12  C   UNL     1      10.696   0.766  23.687  0.00  0.00    +0.005 C 
ATOM     13  C   UNL     1      10.586  -0.051  22.401  0.00  0.00    +0.002 C 
ATOM     14  C   UNL     1       6.363   1.382  23.117  0.00  0.00    +0.022 A 
ATOM     15  C   UNL     1       9.283   0.090  21.614  0.00  0.00    +0.027 C 
BRANCH  10  16
ATOM     16  C   UNL     1       4.552   2.948  23.408  0.00  0.00    +0.245 C 
ATOM     17  O   UNL     1       3.479   2.713  23.960  0.00  0.00    -0.270 OA
ATOM     18  N   UNL     1       4.483   3.667  22.255  0.00  0.00    -0.325 N 
ATOM     19  H   UNL     1       3.532   3.886  21.976  0.00  0.00    +0.145 HD
ATOM     20  H   UNL     1       5.132   3.511  21.504  0.00  0.00    +0.145 HD
ENDBRANCH  10  16
BRANCH   9  21
ATOM     21  O   UNL     1       6.381   3.602  26.146  0.00  0.00    -0.491 OA
BRANCH  21  22
ATOM     22  C   UNL     1       7.423   4.487  26.510  0.00  0.00    +0.232 C 
BRANCH  22  23
ATOM     23  C   UNL     1       7.133   5.964  26.185  0.00  0.00    +0.027 C 
ATOM     24  C   UNL     1       6.869   6.241  24.701  0.00  0.00    +0.007 C 
ATOM     25  C   UNL     1       8.110   6.026  23.839  0.00  0.00    +0.000 C 
ATOM     26  C   UNL     1       9.304   6.832  24.348  0.00  0.00    +0.000 C 
ATOM     27  C   UNL     1       9.578   6.612  25.833  0.00  0.00    +0.000 C 
ATOM     28  C   UNL     1       8.319   6.815  26.680  0.00  0.00    +0.007 C 
ENDBRANCH  22  23
ENDBRANCH  21  22
ENDBRANCH   9  21
ENDBRANCH   2   5
BRANCH   1  29
ATOM     29  C   UNL     1       7.434  -4.026  23.470  0.00  0.00    +0.163 C 
BRANCH  29  32
ATOM     30  C   UNL     1       9.607  -4.355  26.579  0.00  0.00    +0.109 C 
ATOM     31  C   UNL     1       9.082  -4.687  25.208  0.00  0.00    +0.211 C 
ATOM     32  N   UNL     1       8.138  -3.810  24.734  0.00  0.00    -0.304 N 
ATOM     33  H   UNL     1       7.970  -2.933  25.212  0.00  0.00    +0.149 HD
ATOM     34  O   UNL     1       9.476  -5.666  24.586  0.00  0.00    -0.276 OA
ENDBRANCH  29  32
BRANCH  29  35
ATOM     35  C   UNL     1       6.160  -4.897  23.635  0.00  0.00    +0.067 C 
BRANCH  35  36
ATOM     36  C   UNL     1       5.405  -4.827  24.945  0.00  0.00    -0.044 A 
ATOM     37  C   UNL     1       5.725  -5.582  26.070  0.00  0.00    +0.020 A 
ATOM     38  C   UNL     1       5.057  -5.394  27.295  0.00  0.00    +0.078 A 
ATOM     39  C   UNL     1       4.028  -4.609  27.422  0.00  0.00    +0.078 A 
ATOM     40  C   UNL     1       3.669  -3.834  26.290  0.00  0.00    +0.017 A 
ATOM     41  C   UNL     1       4.366  -3.913  25.082  0.00  0.00    +0.004 A 
BRANCH  38  42
ATOM     42  P   UNL     1       5.817  -6.151  28.779  0.00  0.00    +0.359 P 
ATOM     43  O   UNL     1       6.459  -6.790  30.034  0.00  0.00    -0.253 OA
BRANCH  42  44
ATOM     44  O   UNL     1       7.302  -6.146  28.075  0.00  0.00    -0.321 OA
ATOM     45  H   UNL     1       7.857  -5.596  28.675  0.00  0.00    +0.220 HD
ENDBRANCH  42  44
BRANCH  42  46
ATOM     46  O   UNL     1       5.275  -7.595  28.215  0.00  0.00    -0.321 OA
ATOM     47  H   UNL     1       5.200  -7.589  27.242  0.00  0.00    +0.220 HD
ENDBRANCH  42  46
ENDBRANCH  38  42
BRANCH  39  48
ATOM     48  P   UNL     1       3.334  -4.271  29.081  0.00  0.00    +0.359 P 
ATOM     49  O   UNL     1       2.746  -3.986  30.485  0.00  0.00    -0.253 OA
BRANCH  48  50
ATOM     50  O   UNL     1       2.030  -5.175  28.604  0.00  0.00    -0.321 OA
ATOM     51  H   UNL     1       2.131  -5.460  27.679  0.00  0.00    +0.220 HD
ENDBRANCH  48  50
BRANCH  48  52
ATOM     52  O   UNL     1       2.720  -2.847  28.513  0.00  0.00    -0.321 OA
ATOM     53  H   UNL     1       2.395  -3.063  27.618  0.00  0.00    +0.220 HD
ENDBRANCH  48  52
ENDBRANCH  39  48
ENDBRANCH  35  36
ENDBRANCH  29  35
ENDBRANCH   1  29
TORSDOF 15
ENDMDL
MODEL 7
REMARK VINA RESULT:      -6.9      2.118      3.246
REMARK  Name = 
REMARK  16 active torsions:
REMARK  status: ('A' for Active; 'I' for Inactive)
REMARK    1  A    between atoms: C_1  and  C_2
REMARK    2  A    between atoms: N_4  and  C_5
REMARK    3  A    between atoms: C_5  and  C_7
REMARK    4  A    between atoms: C_5  and  C_22
REMARK    5  A    between atoms: C_7  and  C_8
REMARK    6  A    between atoms: C_11  and  P_18
REMARK    7  A    between atoms: C_12  and  P_14
REMARK    8  A    between atoms: P_14  and  O_15
REMARK    9  A    between atoms: P_14  and  O_16
REMARK   10  A    between atoms: P_18  and  O_19
REMARK   11  A    between atoms: P_18  and  O_20
REMARK   12  A    between atoms: N_24  and  C_25
REMARK   13  A    between atoms: C_33  and  O_34
REMARK   14  A    between atoms: O_34  and  C_35
REMARK   15  A    between atoms: C_35  and  C_36
REMARK   16  A    between atoms: C_42  and  C_45
REMARK                            x       y       z     vdW  Elec       q    Type
REMARK                         _______ _______ _______ _____ _____    ______ ____
ROOT
ATOM      1  C   UNL     1       8.115  -1.971  22.383  0.00  0.00    +0.234 C 
ATOM      2  N   UNL     1       7.820  -0.738  22.938  0.00  0.00    -0.307 N 
ATOM      3  H   UNL     1       7.009  -0.667  23.536  0.00  0.00    +0.149 HD
ATOM      4  O   UNL     1       8.894  -2.089  21.444  0.00  0.00    -0.274 OA
ENDROOT
BRANCH   2   5
ATOM      5  C   UNL     1       8.410   0.534  22.513  0.00  0.00    +0.103 C 
ATOM      6  C   UNL     1       8.001   1.670  23.440  0.00  0.00    -0.023 A 
ATOM      7  C   UNL     1       8.366   1.742  24.785  0.00  0.00    -0.039 A 
ATOM      8  C   UNL     1       7.938   2.852  25.541  0.00  0.00    +0.050 A 
ATOM      9  C   UNL     1       7.165   3.916  25.007  0.00  0.00    +0.133 A 
ATOM     10  C   UNL     1       6.837   3.879  23.640  0.00  0.00    +0.078 A 
ATOM     11  C   UNL     1       9.237   0.694  25.435  0.00  0.00    +0.035 C 
ATOM     12  C   UNL     1      10.642   0.659  24.835  0.00  0.00    +0.005 C 
ATOM     13  C   UNL     1      10.746  -0.074  23.498  0.00  0.00    +0.002 C 
ATOM     14  C   UNL     1       7.262   2.738  22.902  0.00  0.00    +0.022 A 
ATOM     15  C   UNL     1       9.939   0.507  22.338  0.00  0.00    +0.027 C 
BRANCH  10  16
ATOM     16  C   UNL     1       6.083   4.837  22.749  0.00  0.00    +0.245 C 
ATOM     17  O   UNL     1       4.854   4.838  22.719  0.00  0.00    -0.270 OA
ATOM     18  N   UNL     1       6.701   5.698  21.896  0.00  0.00    -0.325 N 
ATOM     19  H   UNL     1       6.053   6.212  21.307  0.00  0.00    +0.145 HD
ATOM     20  H   UNL     1       7.585   5.471  21.475  0.00  0.00    +0.145 HD
ENDBRANCH  10  16
BRANCH   9  21
ATOM     21  O   UNL     1       6.902   4.824  26.004  0.00  0.00    -0.491 OA
BRANCH  21  22
ATOM     22  C   UNL     1       6.878   4.384  27.348  0.00  0.00    +0.232 C 
BRANCH  22  23
ATOM     23  C   UNL     1       5.491   4.467  28.011  0.00  0.00    +0.027 C 
ATOM     24  C   UNL     1       5.450   3.946  29.451  0.00  0.00    +0.007 C 
ATOM     25  C   UNL     1       5.684   2.440  29.531  0.00  0.00    +0.000 C 
ATOM     26  C   UNL     1       4.720   1.664  28.635  0.00  0.00    +0.000 C 
ATOM     27  C   UNL     1       4.704   2.178  27.198  0.00  0.00    +0.000 C 
ATOM     28  C   UNL     1       4.484   3.692  27.137  0.00  0.00    +0.007 C 
ENDBRANCH  22  23
ENDBRANCH  21  22
ENDBRANCH   9  21
ENDBRANCH   2   5
BRANCH   1  29
ATOM     29  C   UNL     1       7.425  -3.180  23.053  0.00  0.00    +0.163 C 
BRANCH  29  32
ATOM     30  C   UNL     1       6.060  -5.988  20.877  0.00  0.00    +0.109 C 
ATOM     31  C   UNL     1       6.021  -4.807  21.808  0.00  0.00    +0.211 C 
ATOM     32  N   UNL     1       7.250  -4.263  22.086  0.00  0.00    -0.304 N 
ATOM     33  H   UNL     1       8.065  -4.543  21.553  0.00  0.00    +0.149 HD
ATOM     34  O   UNL     1       4.968  -4.384  22.270  0.00  0.00    -0.276 OA
ENDBRANCH  29  32
BRANCH  29  35
ATOM     35  C   UNL     1       8.197  -3.630  24.323  0.00  0.00    +0.067 C 
BRANCH  35  36
ATOM     36  C   UNL     1       7.406  -4.180  25.489  0.00  0.00    -0.044 A 
ATOM     37  C   UNL     1       6.028  -4.040  25.632  0.00  0.00    +0.020 A 
ATOM     38  C   UNL     1       5.330  -4.669  26.680  0.00  0.00    +0.078 A 
ATOM     39  C   UNL     1       5.931  -5.305  27.643  0.00  0.00    +0.078 A 
ATOM     40  C   UNL     1       7.336  -5.455  27.534  0.00  0.00    +0.017 A 
ATOM     41  C   UNL     1       8.060  -4.934  26.458  0.00  0.00    +0.004 A 
BRANCH  38  42
ATOM     42  P   UNL     1       3.506  -4.736  26.540  0.00  0.00    +0.359 P 
ATOM     43  O   UNL     1       1.964  -4.793  26.423  0.00  0.00    -0.253 OA
BRANCH  42  44
ATOM     44  O   UNL     1       3.597  -5.056  24.932  0.00  0.00    -0.321 OA
ATOM     45  H   UNL     1       3.866  -6.003  24.883  0.00  0.00    +0.220 HD
ENDBRANCH  42  44
BRANCH  42  46
ATOM     46  O   UNL     1       3.537  -3.096  26.472  0.00  0.00    -0.321 OA
ATOM     47  H   UNL     1       3.326  -2.701  27.340  0.00  0.00    +0.220 HD
ENDBRANCH  42  46
ENDBRANCH  38  42
BRANCH  39  48
ATOM     48  P   UNL     1       4.951  -6.254  28.863  0.00  0.00    +0.359 P 
ATOM     49  O   UNL     1       4.124  -7.058  29.895  0.00  0.00    -0.253 OA
BRANCH  48  50
ATOM     50  O   UNL     1       6.126  -5.854  29.961  0.00  0.00    -0.321 OA
ATOM     51  H   UNL     1       6.643  -5.091  29.647  0.00  0.00    +0.220 HD
ENDBRANCH  48  50
BRANCH  48  52
ATOM     52  O   UNL     1       5.707  -7.636  28.363  0.00  0.00    -0.321 OA
ATOM     53  H   UNL     1       6.282  -7.346  27.630  0.00  0.00    +0.220 HD
ENDBRANCH  48  52
ENDBRANCH  39  48
ENDBRANCH  35  36
ENDBRANCH  29  35
ENDBRANCH   1  29
TORSDOF 15
ENDMDL
MODEL 8
REMARK VINA RESULT:      -6.9      2.802      7.789
REMARK  Name = 
REMARK  16 active torsions:
REMARK  status: ('A' for Active; 'I' for Inactive)
REMARK    1  A    between atoms: C_1  and  C_2
REMARK    2  A    between atoms: N_4  and  C_5
REMARK    3  A    between atoms: C_5  and  C_7
REMARK    4  A    between atoms: C_5  and  C_22
REMARK    5  A    between atoms: C_7  and  C_8
REMARK    6  A    between atoms: C_11  and  P_18
REMARK    7  A    between atoms: C_12  and  P_14
REMARK    8  A    between atoms: P_14  and  O_15
REMARK    9  A    between atoms: P_14  and  O_16
REMARK   10  A    between atoms: P_18  and  O_19
REMARK   11  A    between atoms: P_18  and  O_20
REMARK   12  A    between atoms: N_24  and  C_25
REMARK   13  A    between atoms: C_33  and  O_34
REMARK   14  A    between atoms: O_34  and  C_35
REMARK   15  A    between atoms: C_35  and  C_36
REMARK   16  A    between atoms: C_42  and  C_45
REMARK                            x       y       z     vdW  Elec       q    Type
REMARK                         _______ _______ _______ _____ _____    ______ ____
ROOT
ATOM      1  C   UNL     1       7.929   0.866  22.480  0.00  0.00    +0.234 C 
ATOM      2  N   UNL     1       7.550   0.233  23.652  0.00  0.00    -0.307 N 
ATOM      3  H   UNL     1       8.118  -0.534  23.983  0.00  0.00    +0.149 HD
ATOM      4  O   UNL     1       7.165   1.602  21.866  0.00  0.00    -0.274 OA
ENDROOT
BRANCH   2   5
ATOM      5  C   UNL     1       6.247   0.388  24.302  0.00  0.00    +0.103 C 
ATOM      6  C   UNL     1       5.970  -0.759  25.264  0.00  0.00    -0.023 A 
ATOM      7  C   UNL     1       6.720  -1.002  26.416  0.00  0.00    -0.039 A 
ATOM      8  C   UNL     1       6.359  -2.089  27.238  0.00  0.00    +0.050 A 
ATOM      9  C   UNL     1       5.261  -2.947  26.970  0.00  0.00    +0.133 A 
ATOM     10  C   UNL     1       4.467  -2.678  25.841  0.00  0.00    +0.078 A 
ATOM     11  C   UNL     1       7.870  -0.113  26.825  0.00  0.00    +0.035 C 
ATOM     12  C   UNL     1       7.410   1.304  27.165  0.00  0.00    +0.005 C 
ATOM     13  C   UNL     1       7.143   2.195  25.953  0.00  0.00    +0.002 C 
ATOM     14  C   UNL     1       4.864  -1.590  25.014  0.00  0.00    +0.022 A 
ATOM     15  C   UNL     1       6.035   1.740  25.005  0.00  0.00    +0.027 C 
BRANCH  10  16
ATOM     16  C   UNL     1       3.229  -3.341  25.287  0.00  0.00    +0.245 C 
ATOM     17  O   UNL     1       3.306  -4.173  24.385  0.00  0.00    -0.270 OA
ATOM     18  N   UNL     1       1.972  -3.025  25.700  0.00  0.00    -0.325 N 
ATOM     19  H   UNL     1       1.246  -3.498  25.170  0.00  0.00    +0.145 HD
ATOM     20  H   UNL     1       1.746  -2.099  26.018  0.00  0.00    +0.145 HD
ENDBRANCH  10  16
BRANCH   9  21
ATOM     21  O   UNL     1       5.194  -3.910  27.949  0.00  0.00    -0.491 OA
BRANCH  21  22
ATOM     22  C   UNL     1       3.928  -4.305  28.439  0.00  0.00    +0.232 C 
BRANCH  22  23
ATOM     23  C   UNL     1       3.834  -5.799  28.799  0.00  0.00    +0.027 C 
ATOM     24  C   UNL     1       4.865  -6.683  28.089  0.00  0.00    +0.007 C 
ATOM     25  C   UNL     1       4.624  -6.764  26.585  0.00  0.00    +0.000 C 
ATOM     26  C   UNL     1       3.198  -7.208  26.259  0.00  0.00    +0.000 C 
ATOM     27  C   UNL     1       2.140  -6.375  26.977  0.00  0.00    +0.000 C 
ATOM     28  C   UNL     1       2.407  -6.290  28.482  0.00  0.00    +0.007 C 
ENDBRANCH  22  23
ENDBRANCH  21  22
ENDBRANCH   9  21
ENDBRANCH   2   5
BRANCH   1  29
ATOM     29  C   UNL     1       9.384   0.608  22.030  0.00  0.00    +0.163 C 
BRANCH  29  32
ATOM     30  C   UNL     1      11.227   3.612  23.468  0.00  0.00    +0.109 C 
ATOM     31  C   UNL     1      10.480   2.306  23.474  0.00  0.00    +0.211 C 
ATOM     32  N   UNL     1      10.196   1.809  22.227  0.00  0.00    -0.304 N 
ATOM     33  H   UNL     1      10.623   2.218  21.404  0.00  0.00    +0.149 HD
ATOM     34  O   UNL     1      10.160   1.750  24.518  0.00  0.00    -0.276 OA
ENDBRANCH  29  32
BRANCH  29  35
ATOM     35  C   UNL     1       9.976  -0.639  22.740  0.00  0.00    +0.067 C 
BRANCH  35  36
ATOM     36  C   UNL     1       9.146  -1.903  22.784  0.00  0.00    -0.044 A 
ATOM     37  C   UNL     1       9.222  -2.852  23.800  0.00  0.00    +0.020 A 
ATOM     38  C   UNL     1       8.347  -3.953  23.846  0.00  0.00    +0.078 A 
ATOM     39  C   UNL     1       7.508  -4.224  22.890  0.00  0.00    +0.078 A 
ATOM     40  C   UNL     1       7.413  -3.283  21.834  0.00  0.00    +0.017 A 
ATOM     41  C   UNL     1       8.191  -2.124  21.796  0.00  0.00    +0.004 A 
BRANCH  38  42
ATOM     42  P   UNL     1       8.284  -4.899  25.413  0.00  0.00    +0.359 P 
ATOM     43  O   UNL     1       8.230  -5.699  26.736  0.00  0.00    -0.253 OA
BRANCH  42  44
ATOM     44  O   UNL     1       9.046  -3.691  26.224  0.00  0.00    -0.321 OA
ATOM     45  H   UNL     1       8.335  -3.261  26.752  0.00  0.00    +0.220 HD
ENDBRANCH  42  44
BRANCH  42  46
ATOM     46  O   UNL     1       9.604  -5.713  24.874  0.00  0.00    -0.321 OA
ATOM     47  H   UNL     1      10.428  -5.244  25.107  0.00  0.00    +0.220 HD
ENDBRANCH  42  46
ENDBRANCH  38  42
BRANCH  39  48
ATOM     48  P   UNL     1       6.274  -5.558  23.107  0.00  0.00    +0.359 P 
ATOM     49  O   UNL     1       5.230  -6.687  23.290  0.00  0.00    -0.253 OA
BRANCH  48  50
ATOM     50  O   UNL     1       6.990  -6.288  21.803  0.00  0.00    -0.321 OA
ATOM     51  H   UNL     1       6.409  -6.244  21.024  0.00  0.00    +0.220 HD
ENDBRANCH  48  50
BRANCH  48  52
ATOM     52  O   UNL     1       5.203  -4.689  22.197  0.00  0.00    -0.321 OA
ATOM     53  H   UNL     1       4.338  -5.101  22.382  0.00  0.00    +0.220 HD
ENDBRANCH  48  52
ENDBRANCH  39  48
ENDBRANCH  35  36
ENDBRANCH  29  35
ENDBRANCH   1  29
TORSDOF 15
ENDMDL
MODEL 9
REMARK VINA RESULT:      -6.8      2.636      4.143
REMARK  Name = 
REMARK  16 active torsions:
REMARK  status: ('A' for Active; 'I' for Inactive)
REMARK    1  A    between atoms: C_1  and  C_2
REMARK    2  A    between atoms: N_4  and  C_5
REMARK    3  A    between atoms: C_5  and  C_7
REMARK    4  A    between atoms: C_5  and  C_22
REMARK    5  A    between atoms: C_7  and  C_8
REMARK    6  A    between atoms: C_11  and  P_18
REMARK    7  A    between atoms: C_12  and  P_14
REMARK    8  A    between atoms: P_14  and  O_15
REMARK    9  A    between atoms: P_14  and  O_16
REMARK   10  A    between atoms: P_18  and  O_19
REMARK   11  A    between atoms: P_18  and  O_20
REMARK   12  A    between atoms: N_24  and  C_25
REMARK   13  A    between atoms: C_33  and  O_34
REMARK   14  A    between atoms: O_34  and  C_35
REMARK   15  A    between atoms: C_35  and  C_36
REMARK   16  A    between atoms: C_42  and  C_45
REMARK                            x       y       z     vdW  Elec       q    Type
REMARK                         _______ _______ _______ _____ _____    ______ ____
ROOT
ATOM      1  C   UNL     1       6.909  -3.333  22.463  0.00  0.00    +0.234 C 
ATOM      2  N   UNL     1       7.769  -2.337  22.892  0.00  0.00    -0.307 N 
ATOM      3  H   UNL     1       8.204  -2.441  23.798  0.00  0.00    +0.149 HD
ATOM      4  O   UNL     1       6.138  -3.163  21.526  0.00  0.00    -0.274 OA
ENDROOT
BRANCH   2   5
ATOM      5  C   UNL     1       7.888  -1.013  22.277  0.00  0.00    +0.103 C 
ATOM      6  C   UNL     1       7.581   0.091  23.279  0.00  0.00    -0.023 A 
ATOM      7  C   UNL     1       8.357   0.348  24.411  0.00  0.00    -0.039 A 
ATOM      8  C   UNL     1       7.981   1.408  25.260  0.00  0.00    +0.050 A 
ATOM      9  C   UNL     1       6.861   2.246  25.022  0.00  0.00    +0.133 A 
ATOM     10  C   UNL     1       6.104   2.031  23.856  0.00  0.00    +0.078 A 
ATOM     11  C   UNL     1       9.603  -0.445  24.723  0.00  0.00    +0.035 C 
ATOM     12  C   UNL     1      10.692  -0.248  23.669  0.00  0.00    +0.005 C 
ATOM     13  C   UNL     1      10.492  -1.054  22.387  0.00  0.00    +0.002 C 
ATOM     14  C   UNL     1       6.490   0.940  23.026  0.00  0.00    +0.022 A 
ATOM     15  C   UNL     1       9.233  -0.746  21.578  0.00  0.00    +0.027 C 
BRANCH  10  16
ATOM     16  C   UNL     1       4.903   2.739  23.277  0.00  0.00    +0.245 C 
ATOM     17  O   UNL     1       3.795   2.635  23.801  0.00  0.00    -0.270 OA
ATOM     18  N   UNL     1       4.955   3.471  22.132  0.00  0.00    -0.325 N 
ATOM     19  H   UNL     1       4.046   3.811  21.833  0.00  0.00    +0.145 HD
ATOM     20  H   UNL     1       5.598   3.241  21.396  0.00  0.00    +0.145 HD
ENDBRANCH  10  16
BRANCH   9  21
ATOM     21  O   UNL     1       6.761   3.164  26.041  0.00  0.00    -0.491 OA
BRANCH  21  22
ATOM     22  C   UNL     1       7.833   4.059  26.267  0.00  0.00    +0.232 C 
BRANCH  22  23
ATOM     23  C   UNL     1       7.468   5.539  26.050  0.00  0.00    +0.027 C 
ATOM     24  C   UNL     1       6.727   5.818  24.738  0.00  0.00    +0.007 C 
ATOM     25  C   UNL     1       7.604   5.585  23.513  0.00  0.00    +0.000 C 
ATOM     26  C   UNL     1       8.910   6.376  23.587  0.00  0.00    +0.000 C 
ATOM     27  C   UNL     1       9.662   6.154  24.896  0.00  0.00    +0.000 C 
ATOM     28  C   UNL     1       8.763   6.375  26.115  0.00  0.00    +0.007 C 
ENDBRANCH  22  23
ENDBRANCH  21  22
ENDBRANCH   9  21
ENDBRANCH   2   5
BRANCH   1  29
ATOM     29  C   UNL     1       7.021  -4.675  23.222  0.00  0.00    +0.163 C 
BRANCH  29  32
ATOM     30  C   UNL     1       8.683  -4.675  26.646  0.00  0.00    +0.109 C 
ATOM     31  C   UNL     1       8.545  -4.920  25.168  0.00  0.00    +0.211 C 
ATOM     32  N   UNL     1       7.383  -4.439  24.618  0.00  0.00    -0.304 N 
ATOM     33  H   UNL     1       6.782  -3.822  25.153  0.00  0.00    +0.149 HD
ATOM     34  O   UNL     1       9.410  -5.505  24.526  0.00  0.00    -0.276 OA
ENDBRANCH  29  32
BRANCH  29  35
ATOM     35  C   UNL     1       5.720  -5.510  23.072  0.00  0.00    +0.067 C 
BRANCH  35  36
ATOM     36  C   UNL     1       4.809  -5.644  24.273  0.00  0.00    -0.044 A 
ATOM     37  C   UNL     1       4.041  -4.603  24.788  0.00  0.00    +0.020 A 
ATOM     38  C   UNL     1       3.127  -4.814  25.838  0.00  0.00    +0.078 A 
ATOM     39  C   UNL     1       3.033  -5.946  26.471  0.00  0.00    +0.078 A 
ATOM     40  C   UNL     1       3.812  -7.024  25.978  0.00  0.00    +0.017 A 
ATOM     41  C   UNL     1       4.658  -6.888  24.875  0.00  0.00    +0.004 A 
BRANCH  38  42
ATOM     42  P   UNL     1       1.911  -3.484  26.160  0.00  0.00    +0.359 P 
ATOM     43  O   UNL     1       0.884  -2.359  26.434  0.00  0.00    -0.253 OA
BRANCH  42  44
ATOM     44  O   UNL     1       1.125  -3.802  24.753  0.00  0.00    -0.321 OA
ATOM     45  H   UNL     1       1.435  -4.700  24.494  0.00  0.00    +0.220 HD
ENDBRANCH  42  44
BRANCH  42  46
ATOM     46  O   UNL     1       3.037  -2.435  25.588  0.00  0.00    -0.321 OA
ATOM     47  H   UNL     1       3.854  -2.900  25.325  0.00  0.00    +0.220 HD
ENDBRANCH  42  46
ENDBRANCH  38  42
BRANCH  39  48
ATOM     48  P   UNL     1       1.695  -6.203  27.693  0.00  0.00    +0.359 P 
ATOM     49  O   UNL     1       0.563  -6.421  28.726  0.00  0.00    -0.253 OA
BRANCH  48  50
ATOM     50  O   UNL     1       2.589  -7.483  28.247  0.00  0.00    -0.321 OA
ATOM     51  H   UNL     1       2.546  -7.537  29.217  0.00  0.00    +0.220 HD
ENDBRANCH  48  50
BRANCH  48  52
ATOM     52  O   UNL     1       0.871  -7.095  26.573  0.00  0.00    -0.321 OA
ATOM     53  H   UNL     1      -0.048  -7.107  26.901  0.00  0.00    +0.220 HD
ENDBRANCH  48  52
ENDBRANCH  39  48
ENDBRANCH  35  36
ENDBRANCH  29  35
ENDBRANCH   1  29
TORSDOF 15
ENDMDL
