MODEL 1
REMARK VINA RESULT:      -8.1      0.000      0.000
REMARK  Name = 
REMARK  3 active torsions:
REMARK  status: ('A' for Active; 'I' for Inactive)
REMARK    1  A    between atoms: C_10  and  C_20
REMARK    2  A    between atoms: C_16  and  O_17
REMARK    3  A    between atoms: C_23  and  O_24
REMARK                            x       y       z     vdW  Elec       q    Type
REMARK                         _______ _______ _______ _____ _____    ______ ____
ROOT
ATOM      1  C   UNL     1       5.305  -4.197  23.544  0.00  0.00    +0.035 C 
ATOM      2  C   UNL     1       5.883  -4.623  24.872  0.00  0.00    +0.001 A 
ATOM      3  C   UNL     1       5.291  -5.670  25.599  0.00  0.00    +0.053 A 
ATOM      4  C   UNL     1       5.858  -6.096  26.797  0.00  0.00    +0.117 A 
ATOM      5  C   UNL     1       6.998  -5.486  27.299  0.00  0.00    +0.049 A 
ATOM      6  C   UNL     1       7.570  -4.420  26.607  0.00  0.00    +0.049 A 
ATOM      7  C   UNL     1       7.001  -3.974  25.413  0.00  0.00    +0.125 A 
ATOM      8  O   UNL     1       7.633  -2.917  24.807  0.00  0.00    -0.484 OA
ATOM      9  C   UNL     1       6.832  -2.224  23.840  0.00  0.00    +0.207 C 
ATOM     10  C   UNL     1       6.213  -3.192  22.826  0.00  0.00    +0.048 C 
ATOM     11  C   UNL     1       7.224  -4.082  22.087  0.00  0.00    +0.083 C 
ATOM     12  C   UNL     1       6.415  -5.291  21.670  0.00  0.00    +0.250 C 
ATOM     13  F   UNL     1       7.138  -6.422  21.805  0.00  0.00    -0.206 F 
ATOM     14  F   UNL     1       6.068  -5.193  20.365  0.00  0.00    -0.206 F 
ATOM     15  C   UNL     1       5.159  -5.336  22.524  0.00  0.00    +0.084 C 
ENDROOT
BRANCH   9  16
ATOM     16  C   UNL     1       7.656  -1.159  23.130  0.00  0.00    -0.007 A 
ATOM     17  C   UNL     1       7.113   0.093  22.797  0.00  0.00    +0.011 A 
ATOM     18  C   UNL     1       7.913   1.090  22.236  0.00  0.00    +0.046 A 
ATOM     19  C   UNL     1       9.260   0.845  22.002  0.00  0.00    +0.117 A 
ATOM     20  C   UNL     1       9.818  -0.394  22.297  0.00  0.00    +0.046 A 
ATOM     21  C   UNL     1       9.016  -1.392  22.861  0.00  0.00    +0.011 A 
BRANCH  19  22
ATOM     22  O   UNL     1      10.010   1.858  21.485  0.00  0.00    -0.507 OA
ATOM     23  H   UNL     1      10.393   1.563  20.642  0.00  0.00    +0.292 HD
ENDBRANCH  19  22
ENDBRANCH   9  16
BRANCH   4  24
ATOM     24  O   UNL     1       5.318  -7.125  27.511  0.00  0.00    -0.507 OA
ATOM     25  H   UNL     1       4.676  -7.593  26.953  0.00  0.00    +0.292 HD
ENDBRANCH   4  24
TORSDOF 3
ENDMDL
MODEL 2
REMARK VINA RESULT:      -7.9      2.481      3.502
REMARK  Name = 
REMARK  3 active torsions:
REMARK  status: ('A' for Active; 'I' for Inactive)
REMARK    1  A    between atoms: C_10  and  C_20
REMARK    2  A    between atoms: C_16  and  O_17
REMARK    3  A    between atoms: C_23  and  O_24
REMARK                            x       y       z     vdW  Elec       q    Type
REMARK                         _______ _______ _______ _____ _____    ______ ____
ROOT
ATOM      1  C   UNL     1       7.773  -5.038  24.157  0.00  0.00    +0.035 C 
ATOM      2  C   UNL     1       6.302  -5.194  23.853  0.00  0.00    +0.001 A 
ATOM      3  C   UNL     1       5.647  -6.407  24.126  0.00  0.00    +0.053 A 
ATOM      4  C   UNL     1       4.280  -6.530  23.896  0.00  0.00    +0.117 A 
ATOM      5  C   UNL     1       3.550  -5.471  23.378  0.00  0.00    +0.049 A 
ATOM      6  C   UNL     1       4.197  -4.276  23.065  0.00  0.00    +0.049 A 
ATOM      7  C   UNL     1       5.570  -4.147  23.278  0.00  0.00    +0.125 A 
ATOM      8  O   UNL     1       6.117  -2.936  22.935  0.00  0.00    -0.484 OA
ATOM      9  C   UNL     1       7.542  -2.954  22.772  0.00  0.00    +0.207 C 
ATOM     10  C   UNL     1       8.238  -3.587  23.981  0.00  0.00    +0.048 C 
ATOM     11  C   UNL     1       7.901  -2.934  25.331  0.00  0.00    +0.083 C 
ATOM     12  C   UNL     1       8.153  -4.030  26.344  0.00  0.00    +0.250 C 
ATOM     13  F   UNL     1       7.217  -4.010  27.315  0.00  0.00    -0.206 F 
ATOM     14  F   UNL     1       9.353  -3.845  26.943  0.00  0.00    -0.206 F 
ATOM     15  C   UNL     1       8.156  -5.360  25.609  0.00  0.00    +0.084 C 
ENDROOT
BRANCH   9  16
ATOM     16  C   UNL     1       8.069  -1.548  22.526  0.00  0.00    -0.007 A 
ATOM     17  C   UNL     1       9.327  -1.324  21.942  0.00  0.00    +0.011 A 
ATOM     18  C   UNL     1       9.749  -0.029  21.634  0.00  0.00    +0.046 A 
ATOM     19  C   UNL     1       8.920   1.051  21.908  0.00  0.00    +0.117 A 
ATOM     20  C   UNL     1       7.681   0.861  22.510  0.00  0.00    +0.046 A 
ATOM     21  C   UNL     1       7.258  -0.437  22.816  0.00  0.00    +0.011 A 
BRANCH  19  22
ATOM     22  O   UNL     1       9.358   2.293  21.560  0.00  0.00    -0.507 OA
ATOM     23  H   UNL     1      10.234   2.436  21.954  0.00  0.00    +0.292 HD
ENDBRANCH  19  22
ENDBRANCH   9  16
BRANCH   4  24
ATOM     24  O   UNL     1       3.615  -7.687  24.173  0.00  0.00    -0.507 OA
ATOM     25  H   UNL     1       3.176  -7.600  25.036  0.00  0.00    +0.292 HD
ENDBRANCH   4  24
TORSDOF 3
ENDMDL
MODEL 3
REMARK VINA RESULT:      -7.8      2.876      4.143
REMARK  Name = 
REMARK  3 active torsions:
REMARK  status: ('A' for Active; 'I' for Inactive)
REMARK    1  A    between atoms: C_10  and  C_20
REMARK    2  A    between atoms: C_16  and  O_17
REMARK    3  A    between atoms: C_23  and  O_24
REMARK                            x       y       z     vdW  Elec       q    Type
REMARK                         _______ _______ _______ _____ _____    ______ ____
ROOT
ATOM      1  C   UNL     1       9.090  -3.800  24.324  0.00  0.00    +0.035 C 
ATOM      2  C   UNL     1       7.958  -4.106  23.372  0.00  0.00    +0.001 A 
ATOM      3  C   UNL     1       7.366  -5.380  23.362  0.00  0.00    +0.053 A 
ATOM      4  C   UNL     1       6.287  -5.643  22.522  0.00  0.00    +0.117 A 
ATOM      5  C   UNL     1       5.795  -4.662  21.673  0.00  0.00    +0.049 A 
ATOM      6  C   UNL     1       6.401  -3.407  21.645  0.00  0.00    +0.049 A 
ATOM      7  C   UNL     1       7.492  -3.138  22.472  0.00  0.00    +0.125 A 
ATOM      8  O   UNL     1       8.023  -1.877  22.370  0.00  0.00    -0.484 OA
ATOM      9  C   UNL     1       9.352  -1.749  22.896  0.00  0.00    +0.207 C 
ATOM     10  C   UNL     1       9.449  -2.309  24.319  0.00  0.00    +0.048 C 
ATOM     11  C   UNL     1       8.457  -1.697  25.320  0.00  0.00    +0.083 C 
ATOM     12  C   UNL     1       8.299  -2.762  26.382  0.00  0.00    +0.250 C 
ATOM     13  F   UNL     1       7.018  -2.840  26.798  0.00  0.00    -0.206 F 
ATOM     14  F   UNL     1       9.052  -2.456  27.466  0.00  0.00    -0.206 F 
ATOM     15  C   UNL     1       8.770  -4.084  25.799  0.00  0.00    +0.084 C 
ENDROOT
BRANCH   9  16
ATOM     16  C   UNL     1       9.802  -0.295  22.861  0.00  0.00    -0.007 A 
ATOM     17  C   UNL     1       9.428   0.567  21.816  0.00  0.00    +0.011 A 
ATOM     18  C   UNL     1       9.768   1.920  21.853  0.00  0.00    +0.046 A 
ATOM     19  C   UNL     1      10.484   2.423  22.932  0.00  0.00    +0.117 A 
ATOM     20  C   UNL     1      10.890   1.587  23.966  0.00  0.00    +0.046 A 
ATOM     21  C   UNL     1      10.547   0.232  23.930  0.00  0.00    +0.011 A 
BRANCH  19  22
ATOM     22  O   UNL     1      10.765   3.756  22.943  0.00  0.00    -0.507 OA
ATOM     23  H   UNL     1       9.964   4.241  23.200  0.00  0.00    +0.292 HD
ENDBRANCH  19  22
ENDBRANCH   9  16
BRANCH   4  24
ATOM     24  O   UNL     1       5.678  -6.862  22.509  0.00  0.00    -0.507 OA
ATOM     25  H   UNL     1       5.686  -7.209  21.602  0.00  0.00    +0.292 HD
ENDBRANCH   4  24
TORSDOF 3
ENDMDL
MODEL 4
REMARK VINA RESULT:      -7.7      2.598      3.651
REMARK  Name = 
REMARK  3 active torsions:
REMARK  status: ('A' for Active; 'I' for Inactive)
REMARK    1  A    between atoms: C_10  and  C_20
REMARK    2  A    between atoms: C_16  and  O_17
REMARK    3  A    between atoms: C_23  and  O_24
REMARK                            x       y       z     vdW  Elec       q    Type
REMARK                         _______ _______ _______ _____ _____    ______ ____
ROOT
ATOM      1  C   UNL     1       7.305  -3.607  25.412  0.00  0.00    +0.035 C 
ATOM      2  C   UNL     1       6.652  -4.413  24.315  0.00  0.00    +0.001 A 
ATOM      3  C   UNL     1       5.940  -5.585  24.623  0.00  0.00    +0.053 A 
ATOM      4  C   UNL     1       5.294  -6.295  23.616  0.00  0.00    +0.117 A 
ATOM      5  C   UNL     1       5.358  -5.872  22.296  0.00  0.00    +0.049 A 
ATOM      6  C   UNL     1       6.096  -4.734  21.973  0.00  0.00    +0.049 A 
ATOM      7  C   UNL     1       6.760  -4.023  22.973  0.00  0.00    +0.125 A 
ATOM      8  O   UNL     1       7.462  -2.920  22.556  0.00  0.00    -0.484 OA
ATOM      9  C   UNL     1       8.445  -2.455  23.492  0.00  0.00    +0.207 C 
ATOM     10  C   UNL     1       7.846  -2.271  24.890  0.00  0.00    +0.048 C 
ATOM     11  C   UNL     1       6.625  -1.340  24.949  0.00  0.00    +0.083 C 
ATOM     12  C   UNL     1       5.877  -1.789  26.185  0.00  0.00    +0.250 C 
ATOM     13  F   UNL     1       4.544  -1.764  25.976  0.00  0.00    -0.206 F 
ATOM     14  F   UNL     1       6.135  -0.952  27.217  0.00  0.00    -0.206 F 
ATOM     15  C   UNL     1       6.351  -3.189  26.541  0.00  0.00    +0.084 C 
ENDROOT
BRANCH   9  16
ATOM     16  C   UNL     1       9.075  -1.158  23.004  0.00  0.00    -0.007 A 
ATOM     17  C   UNL     1       8.756  -0.610  21.751  0.00  0.00    +0.011 A 
ATOM     18  C   UNL     1       9.269   0.630  21.364  0.00  0.00    +0.046 A 
ATOM     19  C   UNL     1      10.105   1.329  22.225  0.00  0.00    +0.117 A 
ATOM     20  C   UNL     1      10.459   0.798  23.459  0.00  0.00    +0.046 A 
ATOM     21  C   UNL     1       9.943  -0.443  23.847  0.00  0.00    +0.011 A 
BRANCH  19  22
ATOM     22  O   UNL     1      10.555   2.550  21.820  0.00  0.00    -0.507 OA
ATOM     23  H   UNL     1      10.030   3.238  22.262  0.00  0.00    +0.292 HD
ENDBRANCH  19  22
ENDBRANCH   9  16
BRANCH   4  24
ATOM     24  O   UNL     1       4.576  -7.422  23.890  0.00  0.00    -0.507 OA
ATOM     25  H   UNL     1       4.249  -7.373  24.803  0.00  0.00    +0.292 HD
ENDBRANCH   4  24
TORSDOF 3
ENDMDL
MODEL 5
REMARK VINA RESULT:      -7.4      3.422      7.313
REMARK  Name = 
REMARK  3 active torsions:
REMARK  status: ('A' for Active; 'I' for Inactive)
REMARK    1  A    between atoms: C_10  and  C_20
REMARK    2  A    between atoms: C_16  and  O_17
REMARK    3  A    between atoms: C_23  and  O_24
REMARK                            x       y       z     vdW  Elec       q    Type
REMARK                         _______ _______ _______ _____ _____    ______ ____
ROOT
ATOM      1  C   UNL     1      10.080   1.407  23.567  0.00  0.00    +0.035 C 
ATOM      2  C   UNL     1       9.247   2.345  24.408  0.00  0.00    +0.001 A 
ATOM      3  C   UNL     1       9.382   3.736  24.262  0.00  0.00    +0.053 A 
ATOM      4  C   UNL     1       8.574   4.597  24.999  0.00  0.00    +0.117 A 
ATOM      5  C   UNL     1       7.641   4.099  25.898  0.00  0.00    +0.049 A 
ATOM      6  C   UNL     1       7.527   2.722  26.080  0.00  0.00    +0.049 A 
ATOM      7  C   UNL     1       8.343   1.850  25.358  0.00  0.00    +0.125 A 
ATOM      8  O   UNL     1       8.160   0.513  25.608  0.00  0.00    -0.484 OA
ATOM      9  C   UNL     1       9.247  -0.323  25.188  0.00  0.00    +0.207 C 
ATOM     10  C   UNL     1       9.633  -0.051  23.731  0.00  0.00    +0.048 C 
ATOM     11  C   UNL     1       8.482  -0.190  22.724  0.00  0.00    +0.083 C 
ATOM     12  C   UNL     1       8.900   0.683  21.561  0.00  0.00    +0.250 C 
ATOM     13  F   UNL     1       7.841   1.347  21.053  0.00  0.00    -0.206 F 
ATOM     14  F   UNL     1       9.408  -0.079  20.563  0.00  0.00    -0.206 F 
ATOM     15  C   UNL     1       9.968   1.646  22.054  0.00  0.00    +0.084 C 
ENDROOT
BRANCH   9  16
ATOM     16  C   UNL     1       8.897  -1.791  25.385  0.00  0.00    -0.007 A 
ATOM     17  C   UNL     1       9.555  -2.807  24.672  0.00  0.00    +0.011 A 
ATOM     18  C   UNL     1       9.289  -4.152  24.939  0.00  0.00    +0.046 A 
ATOM     19  C   UNL     1       8.364  -4.491  25.917  0.00  0.00    +0.117 A 
ATOM     20  C   UNL     1       7.679  -3.506  26.620  0.00  0.00    +0.046 A 
ATOM     21  C   UNL     1       7.948  -2.160  26.354  0.00  0.00    +0.011 A 
BRANCH  19  22
ATOM     22  O   UNL     1       8.161  -5.815  26.168  0.00  0.00    -0.507 OA
ATOM     23  H   UNL     1       7.222  -5.953  26.373  0.00  0.00    +0.292 HD
ENDBRANCH  19  22
ENDBRANCH   9  16
BRANCH   4  24
ATOM     24  O   UNL     1       8.667   5.950  24.861  0.00  0.00    -0.507 OA
ATOM     25  H   UNL     1       7.971   6.370  25.393  0.00  0.00    +0.292 HD
ENDBRANCH   4  24
TORSDOF 3
ENDMDL
MODEL 6
REMARK VINA RESULT:      -7.4      2.286      3.014
REMARK  Name = 
REMARK  3 active torsions:
REMARK  status: ('A' for Active; 'I' for Inactive)
REMARK    1  A    between atoms: C_10  and  C_20
REMARK    2  A    between atoms: C_16  and  O_17
REMARK    3  A    between atoms: C_23  and  O_24
REMARK                            x       y       z     vdW  Elec       q    Type
REMARK                         _______ _______ _______ _____ _____    ______ ____
ROOT
ATOM      1  C   UNL     1       7.400  -4.855  23.855  0.00  0.00    +0.035 C 
ATOM      2  C   UNL     1       6.040  -4.589  24.455  0.00  0.00    +0.001 A 
ATOM      3  C   UNL     1       5.258  -5.653  24.938  0.00  0.00    +0.053 A 
ATOM      4  C   UNL     1       4.029  -5.400  25.539  0.00  0.00    +0.117 A 
ATOM      5  C   UNL     1       3.549  -4.103  25.655  0.00  0.00    +0.049 A 
ATOM      6  C   UNL     1       4.298  -3.044  25.143  0.00  0.00    +0.049 A 
ATOM      7  C   UNL     1       5.524  -3.288  24.524  0.00  0.00    +0.125 A 
ATOM      8  O   UNL     1       6.185  -2.183  24.049  0.00  0.00    -0.484 OA
ATOM      9  C   UNL     1       7.204  -2.472  23.082  0.00  0.00    +0.207 C 
ATOM     10  C   UNL     1       8.165  -3.554  23.585  0.00  0.00    +0.048 C 
ATOM     11  C   UNL     1       8.833  -3.242  24.933  0.00  0.00    +0.083 C 
ATOM     12  C   UNL     1       9.187  -4.603  25.493  0.00  0.00    +0.250 C 
ATOM     13  F   UNL     1       8.974  -4.645  26.824  0.00  0.00    -0.206 F 
ATOM     14  F   UNL     1      10.501  -4.864  25.291  0.00  0.00    -0.206 F 
ATOM     15  C   UNL     1       8.350  -5.644  24.768  0.00  0.00    +0.084 C 
ENDROOT
BRANCH   9  16
ATOM     16  C   UNL     1       7.966  -1.206  22.715  0.00  0.00    -0.007 A 
ATOM     17  C   UNL     1       9.110  -1.244  21.901  0.00  0.00    +0.011 A 
ATOM     18  C   UNL     1       9.735  -0.064  21.496  0.00  0.00    +0.046 A 
ATOM     19  C   UNL     1       9.225   1.162  21.902  0.00  0.00    +0.117 A 
ATOM     20  C   UNL     1       8.110   1.229  22.729  0.00  0.00    +0.046 A 
ATOM     21  C   UNL     1       7.482   0.046  23.133  0.00  0.00    +0.011 A 
BRANCH  19  22
ATOM     22  O   UNL     1       9.847   2.289  21.455  0.00  0.00    -0.507 OA
ATOM     23  H   UNL     1      10.357   2.674  22.186  0.00  0.00    +0.292 HD
ENDBRANCH  19  22
ENDBRANCH   9  16
BRANCH   4  24
ATOM     24  O   UNL     1       3.261  -6.410  26.037  0.00  0.00    -0.507 OA
ATOM     25  H   UNL     1       2.429  -6.449  25.539  0.00  0.00    +0.292 HD
ENDBRANCH   4  24
TORSDOF 3
ENDMDL
MODEL 7
REMARK VINA RESULT:      -7.2      2.993      6.910
REMARK  Name = 
REMARK  3 active torsions:
REMARK  status: ('A' for Active; 'I' for Inactive)
REMARK    1  A    between atoms: C_10  and  C_20
REMARK    2  A    between atoms: C_16  and  O_17
REMARK    3  A    between atoms: C_23  and  O_24
REMARK                            x       y       z     vdW  Elec       q    Type
REMARK                         _______ _______ _______ _____ _____    ______ ____
ROOT
ATOM      1  C   UNL     1       6.387  -0.088  24.160  0.00  0.00    +0.035 C 
ATOM      2  C   UNL     1       7.541  -0.078  23.186  0.00  0.00    +0.001 A 
ATOM      3  C   UNL     1       8.212   1.122  22.895  0.00  0.00    +0.053 A 
ATOM      4  C   UNL     1       9.310   1.118  22.039  0.00  0.00    +0.117 A 
ATOM      5  C   UNL     1       9.744  -0.059  21.447  0.00  0.00    +0.049 A 
ATOM      6  C   UNL     1       9.060  -1.248  21.697  0.00  0.00    +0.049 A 
ATOM      7  C   UNL     1       7.950  -1.253  22.541  0.00  0.00    +0.125 A 
ATOM      8  O   UNL     1       7.341  -2.470  22.722  0.00  0.00    -0.484 OA
ATOM      9  C   UNL     1       6.004  -2.393  23.237  0.00  0.00    +0.207 C 
ATOM     10  C   UNL     1       5.935  -1.515  24.491  0.00  0.00    +0.048 C 
ATOM     11  C   UNL     1       6.881  -1.939  25.625  0.00  0.00    +0.083 C 
ATOM     12  C   UNL     1       7.100  -0.669  26.417  0.00  0.00    +0.250 C 
ATOM     13  F   UNL     1       8.382  -0.574  26.829  0.00  0.00    -0.206 F 
ATOM     14  F   UNL     1       6.324  -0.671  27.527  0.00  0.00    -0.206 F 
ATOM     15  C   UNL     1       6.717   0.509  25.537  0.00  0.00    +0.084 C 
ENDROOT
BRANCH   9  16
ATOM     16  C   UNL     1       5.464  -3.786  23.528  0.00  0.00    -0.007 A 
ATOM     17  C   UNL     1       4.213  -3.979  24.136  0.00  0.00    +0.011 A 
ATOM     18  C   UNL     1       3.693  -5.264  24.303  0.00  0.00    +0.046 A 
ATOM     19  C   UNL     1       4.418  -6.365  23.866  0.00  0.00    +0.117 A 
ATOM     20  C   UNL     1       5.671  -6.205  23.286  0.00  0.00    +0.046 A 
ATOM     21  C   UNL     1       6.191  -4.917  23.116  0.00  0.00    +0.011 A 
BRANCH  19  22
ATOM     22  O   UNL     1       3.857  -7.597  24.019  0.00  0.00    -0.507 OA
ATOM     23  H   UNL     1       4.184  -7.988  24.846  0.00  0.00    +0.292 HD
ENDBRANCH  19  22
ENDBRANCH   9  16
BRANCH   4  24
ATOM     24  O   UNL     1       9.994   2.263  21.758  0.00  0.00    -0.507 OA
ATOM     25  H   UNL     1      10.941   2.056  21.688  0.00  0.00    +0.292 HD
ENDBRANCH   4  24
TORSDOF 3
ENDMDL
MODEL 8
REMARK VINA RESULT:      -7.2      3.452      7.377
REMARK  Name = 
REMARK  3 active torsions:
REMARK  status: ('A' for Active; 'I' for Inactive)
REMARK    1  A    between atoms: C_10  and  C_20
REMARK    2  A    between atoms: C_16  and  O_17
REMARK    3  A    between atoms: C_23  and  O_24
REMARK                            x       y       z     vdW  Elec       q    Type
REMARK                         _______ _______ _______ _____ _____    ______ ____
ROOT
ATOM      1  C   UNL     1      10.111   1.529  23.504  0.00  0.00    +0.035 C 
ATOM      2  C   UNL     1       9.333   2.543  24.309  0.00  0.00    +0.001 A 
ATOM      3  C   UNL     1       9.547   3.918  24.114  0.00  0.00    +0.053 A 
ATOM      4  C   UNL     1       8.790   4.850  24.819  0.00  0.00    +0.117 A 
ATOM      5  C   UNL     1       7.832   4.439  25.735  0.00  0.00    +0.049 A 
ATOM      6  C   UNL     1       7.641   3.077  25.967  0.00  0.00    +0.049 A 
ATOM      7  C   UNL     1       8.404   2.135  25.277  0.00  0.00    +0.125 A 
ATOM      8  O   UNL     1       8.146   0.821  25.576  0.00  0.00    -0.484 OA
ATOM      9  C   UNL     1       9.184  -0.090  25.186  0.00  0.00    +0.207 C 
ATOM     10  C   UNL     1       9.582   0.107  23.720  0.00  0.00    +0.048 C 
ATOM     11  C   UNL     1       8.423  -0.004  22.719  0.00  0.00    +0.083 C 
ATOM     12  C   UNL     1       8.888   0.802  21.525  0.00  0.00    +0.250 C 
ATOM     13  F   UNL     1       7.866   1.506  20.993  0.00  0.00    -0.206 F 
ATOM     14  F   UNL     1       9.350  -0.023  20.556  0.00  0.00    -0.206 F 
ATOM     15  C   UNL     1      10.009   1.720  21.983  0.00  0.00    +0.084 C 
ENDROOT
BRANCH   9  16
ATOM     16  C   UNL     1       8.752  -1.528  25.436  0.00  0.00    -0.007 A 
ATOM     17  C   UNL     1       7.732  -1.843  26.349  0.00  0.00    +0.011 A 
ATOM     18  C   UNL     1       7.283  -3.158  26.490  0.00  0.00    +0.046 A 
ATOM     19  C   UNL     1       7.851  -4.167  25.723  0.00  0.00    +0.117 A 
ATOM     20  C   UNL     1       8.881  -3.888  24.832  0.00  0.00    +0.046 A 
ATOM     21  C   UNL     1       9.328  -2.570  24.689  0.00  0.00    +0.011 A 
BRANCH  19  22
ATOM     22  O   UNL     1       7.359  -5.429  25.869  0.00  0.00    -0.507 OA
ATOM     23  H   UNL     1       7.598  -5.756  26.752  0.00  0.00    +0.292 HD
ENDBRANCH  19  22
ENDBRANCH   9  16
BRANCH   4  24
ATOM     24  O   UNL     1       8.959   6.189  24.632  0.00  0.00    -0.507 OA
ATOM     25  H   UNL     1       8.955   6.378  23.679  0.00  0.00    +0.292 HD
ENDBRANCH   4  24
TORSDOF 3
ENDMDL
MODEL 9
REMARK VINA RESULT:      -7.0      2.873      6.671
REMARK  Name = 
REMARK  3 active torsions:
REMARK  status: ('A' for Active; 'I' for Inactive)
REMARK    1  A    between atoms: C_10  and  C_20
REMARK    2  A    between atoms: C_16  and  O_17
REMARK    3  A    between atoms: C_23  and  O_24
REMARK                            x       y       z     vdW  Elec       q    Type
REMARK                         _______ _______ _______ _____ _____    ______ ____
ROOT
ATOM      1  C   UNL     1       9.285  -0.295  24.724  0.00  0.00    +0.035 C 
ATOM      2  C   UNL     1       8.350   0.887  24.624  0.00  0.00    +0.001 A 
ATOM      3  C   UNL     1       8.830   2.190  24.839  0.00  0.00    +0.053 A 
ATOM      4  C   UNL     1       7.978   3.281  24.693  0.00  0.00    +0.117 A 
ATOM      5  C   UNL     1       6.645   3.100  24.353  0.00  0.00    +0.049 A 
ATOM      6  C   UNL     1       6.149   1.809  24.177  0.00  0.00    +0.049 A 
ATOM      7  C   UNL     1       6.990   0.707  24.337  0.00  0.00    +0.125 A 
ATOM      8  O   UNL     1       6.410  -0.522  24.147  0.00  0.00    -0.484 OA
ATOM      9  C   UNL     1       7.150  -1.618  24.702  0.00  0.00    +0.207 C 
ATOM     10  C   UNL     1       8.615  -1.590  24.253  0.00  0.00    +0.048 C 
ATOM     11  C   UNL     1       8.821  -1.571  22.731  0.00  0.00    +0.083 C 
ATOM     12  C   UNL     1      10.183  -0.937  22.551  0.00  0.00    +0.250 C 
ATOM     13  F   UNL     1      10.190  -0.109  21.486  0.00  0.00    -0.206 F 
ATOM     14  F   UNL     1      11.115  -1.892  22.319  0.00  0.00    -0.206 F 
ATOM     15  C   UNL     1      10.530  -0.193  23.829  0.00  0.00    +0.084 C 
ENDROOT
BRANCH   9  16
ATOM     16  C   UNL     1       6.500  -2.943  24.328  0.00  0.00    -0.007 A 
ATOM     17  C   UNL     1       5.459  -3.014  23.387  0.00  0.00    +0.011 A 
ATOM     18  C   UNL     1       4.945  -4.248  22.985  0.00  0.00    +0.046 A 
ATOM     19  C   UNL     1       5.464  -5.419  23.521  0.00  0.00    +0.117 A 
ATOM     20  C   UNL     1       6.475  -5.378  24.474  0.00  0.00    +0.046 A 
ATOM     21  C   UNL     1       6.992  -4.141  24.874  0.00  0.00    +0.011 A 
BRANCH  19  22
ATOM     22  O   UNL     1       4.955  -6.602  23.075  0.00  0.00    -0.507 OA
ATOM     23  H   UNL     1       5.681  -7.242  22.993  0.00  0.00    +0.292 HD
ENDBRANCH  19  22
ENDBRANCH   9  16
BRANCH   4  24
ATOM     24  O   UNL     1       8.422   4.558  24.872  0.00  0.00    -0.507 OA
ATOM     25  H   UNL     1       9.389   4.571  24.784  0.00  0.00    +0.292 HD
ENDBRANCH   4  24
TORSDOF 3
ENDMDL
