MODEL 1
REMARK VINA RESULT:      -7.0      0.000      0.000
REMARK  Name = 
REMARK  8 active torsions:
REMARK  status: ('A' for Active; 'I' for Inactive)
REMARK    1  A    between atoms: C_2  and  C_3
REMARK    2  A    between atoms: C_2  and  O_4
REMARK    3  A    between atoms: C_2  and  C_23
REMARK    4  A    between atoms: O_4  and  C_5
REMARK    5  A    between atoms: C_8  and  O_9
REMARK    6  A    between atoms: O_9  and  C_10
REMARK    7  A    between atoms: C_13  and  C_17
REMARK    8  A    between atoms: C_23  and  O_24
REMARK                            x       y       z     vdW  Elec       q    Type
REMARK                         _______ _______ _______ _____ _____    ______ ____
ROOT
ATOM      1  C   UNL     1       7.958  -4.181  23.639  0.00  0.00    +0.122 A 
ATOM      2  C   UNL     1       9.054  -3.757  24.389  0.00  0.00    +0.049 A 
ATOM      3  C   UNL     1       9.791  -2.645  23.983  0.00  0.00    +0.050 A 
ATOM      4  C   UNL     1       9.383  -1.889  22.880  0.00  0.00    +0.131 A 
ATOM      5  C   UNL     1       8.224  -2.256  22.193  0.00  0.00    +0.050 A 
ATOM      6  C   UNL     1       7.507  -3.395  22.577  0.00  0.00    +0.049 A 
ENDROOT
BRANCH   1   7
ATOM      7  O   UNL     1       7.315  -5.377  23.832  0.00  0.00    -0.478 OA
BRANCH   7   8
ATOM      8  C   UNL     1       5.947  -5.277  24.288  0.00  0.00    +0.278 C 
ATOM      9  C   UNL     1       5.752  -5.866  25.688  0.00  0.00    +0.064 C 
BRANCH   8  10
ATOM     10  C   UNL     1       5.056  -6.056  23.317  0.00  0.00    +0.346 C 
ATOM     11  O   UNL     1       4.685  -5.629  22.229  0.00  0.00    -0.247 OA
BRANCH  10  12
ATOM     12  O   UNL     1       4.710  -7.284  23.767  0.00  0.00    -0.478 OA
ATOM     13  H   UNL     1       4.834  -7.945  23.052  0.00  0.00    +0.295 HD
ENDBRANCH  10  12
ENDBRANCH   8  10
ENDBRANCH   7   8
ENDBRANCH   1   7
BRANCH   4  14
ATOM     14  O   UNL     1      10.100  -0.835  22.353  0.00  0.00    -0.437 OA
BRANCH  14  15
ATOM     15  C   UNL     1       9.602   0.447  22.521  0.00  0.00    +0.239 A 
ATOM     16  C   UNL     1       9.974   1.176  23.647  0.00  0.00    +0.103 A 
ATOM     17 CL   UNL     1      11.053   0.562  24.839  0.00  0.00    -0.078 Cl
ATOM     18  C   UNL     1       9.429   2.449  23.813  0.00  0.00    +0.039 A 
ATOM     19  C   UNL     1       8.549   2.964  22.850  0.00  0.00    +0.074 A 
ATOM     20  C   UNL     1       8.272   2.175  21.745  0.00  0.00    +0.127 A 
ATOM     21  N   UNL     1       8.788   0.942  21.554  0.00  0.00    -0.219 NA
BRANCH  19  22
ATOM     22  C   UNL     1       7.911   4.311  22.995  0.00  0.00    +0.419 C 
ATOM     23  F   UNL     1       8.768   5.242  23.491  0.00  0.00    -0.166 F 
ATOM     24  F   UNL     1       6.846   4.288  23.841  0.00  0.00    -0.166 F 
ATOM     25  F   UNL     1       7.443   4.816  21.821  0.00  0.00    -0.166 F 
ENDBRANCH  19  22
ENDBRANCH  14  15
ENDBRANCH   4  14
TORSDOF 7
ENDMDL
MODEL 2
REMARK VINA RESULT:      -6.9      2.125      2.982
REMARK  Name = 
REMARK  8 active torsions:
REMARK  status: ('A' for Active; 'I' for Inactive)
REMARK    1  A    between atoms: C_2  and  C_3
REMARK    2  A    between atoms: C_2  and  O_4
REMARK    3  A    between atoms: C_2  and  C_23
REMARK    4  A    between atoms: O_4  and  C_5
REMARK    5  A    between atoms: C_8  and  O_9
REMARK    6  A    between atoms: O_9  and  C_10
REMARK    7  A    between atoms: C_13  and  C_17
REMARK    8  A    between atoms: C_23  and  O_24
REMARK                            x       y       z     vdW  Elec       q    Type
REMARK                         _______ _______ _______ _____ _____    ______ ____
ROOT
ATOM      1  C   UNL     1       6.198  -5.450  24.507  0.00  0.00    +0.122 A 
ATOM      2  C   UNL     1       6.636  -5.001  23.262  0.00  0.00    +0.049 A 
ATOM      3  C   UNL     1       7.844  -4.312  23.152  0.00  0.00    +0.050 A 
ATOM      4  C   UNL     1       8.671  -4.152  24.268  0.00  0.00    +0.131 A 
ATOM      5  C   UNL     1       8.278  -4.695  25.492  0.00  0.00    +0.050 A 
ATOM      6  C   UNL     1       7.047  -5.352  25.610  0.00  0.00    +0.049 A 
ENDROOT
BRANCH   1   7
ATOM      7  O   UNL     1       4.937  -5.934  24.746  0.00  0.00    -0.478 OA
BRANCH   7   8
ATOM      8  C   UNL     1       3.876  -5.283  24.011  0.00  0.00    +0.278 C 
ATOM      9  C   UNL     1       2.959  -4.455  24.918  0.00  0.00    +0.064 C 
BRANCH   8  10
ATOM     10  C   UNL     1       3.026  -6.360  23.332  0.00  0.00    +0.346 C 
ATOM     11  O   UNL     1       2.116  -6.124  22.545  0.00  0.00    -0.247 OA
BRANCH  10  12
ATOM     12  O   UNL     1       3.375  -7.621  23.676  0.00  0.00    -0.478 OA
ATOM     13  H   UNL     1       4.012  -7.596  24.422  0.00  0.00    +0.295 HD
ENDBRANCH  10  12
ENDBRANCH   8  10
ENDBRANCH   7   8
ENDBRANCH   1   7
BRANCH   4  14
ATOM     14  O   UNL     1       9.832  -3.408  24.273  0.00  0.00    -0.437 OA
BRANCH  14  15
ATOM     15  C   UNL     1       9.782  -2.110  23.790  0.00  0.00    +0.239 A 
ATOM     16  C   UNL     1       9.377  -1.086  24.641  0.00  0.00    +0.103 A 
ATOM     17 CL   UNL     1       8.954  -1.356  26.288  0.00  0.00    -0.078 Cl
ATOM     18  C   UNL     1       9.298   0.206  24.121  0.00  0.00    +0.039 A 
ATOM     19  C   UNL     1       9.640   0.443  22.782  0.00  0.00    +0.074 A 
ATOM     20  C   UNL     1      10.069  -0.638  22.027  0.00  0.00    +0.127 A 
ATOM     21  N   UNL     1      10.161  -1.897  22.504  0.00  0.00    -0.219 NA
BRANCH  19  22
ATOM     22  C   UNL     1       9.542   1.803  22.165  0.00  0.00    +0.419 C 
ATOM     23  F   UNL     1       9.168   2.756  23.060  0.00  0.00    -0.166 F 
ATOM     24  F   UNL     1       8.626   1.849  21.160  0.00  0.00    -0.166 F 
ATOM     25  F   UNL     1      10.713   2.235  21.622  0.00  0.00    -0.166 F 
ENDBRANCH  19  22
ENDBRANCH  14  15
ENDBRANCH   4  14
TORSDOF 7
ENDMDL
MODEL 3
REMARK VINA RESULT:      -6.9      4.817      8.625
REMARK  Name = 
REMARK  8 active torsions:
REMARK  status: ('A' for Active; 'I' for Inactive)
REMARK    1  A    between atoms: C_2  and  C_3
REMARK    2  A    between atoms: C_2  and  O_4
REMARK    3  A    between atoms: C_2  and  C_23
REMARK    4  A    between atoms: O_4  and  C_5
REMARK    5  A    between atoms: C_8  and  O_9
REMARK    6  A    between atoms: O_9  and  C_10
REMARK    7  A    between atoms: C_13  and  C_17
REMARK    8  A    between atoms: C_23  and  O_24
REMARK                            x       y       z     vdW  Elec       q    Type
REMARK                         _______ _______ _______ _____ _____    ______ ____
ROOT
ATOM      1  C   UNL     1      10.294   2.288  23.083  0.00  0.00    +0.122 A 
ATOM      2  C   UNL     1      10.582   1.460  24.166  0.00  0.00    +0.049 A 
ATOM      3  C   UNL     1       9.626   0.558  24.632  0.00  0.00    +0.050 A 
ATOM      4  C   UNL     1       8.410   0.405  23.958  0.00  0.00    +0.131 A 
ATOM      5  C   UNL     1       8.167   1.161  22.810  0.00  0.00    +0.050 A 
ATOM      6  C   UNL     1       9.111   2.096  22.367  0.00  0.00    +0.049 A 
ENDROOT
BRANCH   1   7
ATOM      7  O   UNL     1      11.076   3.347  22.699  0.00  0.00    -0.478 OA
BRANCH   7   8
ATOM      8  C   UNL     1      11.285   4.359  23.710  0.00  0.00    +0.278 C 
ATOM      9  C   UNL     1      10.058   5.257  23.901  0.00  0.00    +0.064 C 
BRANCH   8  10
ATOM     10  C   UNL     1      12.457   5.243  23.274  0.00  0.00    +0.346 C 
ATOM     11  O   UNL     1      12.900   5.285  22.132  0.00  0.00    -0.247 OA
BRANCH  10  12
ATOM     12  O   UNL     1      12.969   5.995  24.277  0.00  0.00    -0.478 OA
ATOM     13  H   UNL     1      13.946   6.025  24.200  0.00  0.00    +0.295 HD
ENDBRANCH  10  12
ENDBRANCH   8  10
ENDBRANCH   7   8
ENDBRANCH   1   7
BRANCH   4  14
ATOM     14  O   UNL     1       7.373  -0.390  24.399  0.00  0.00    -0.437 OA
BRANCH  14  15
ATOM     15  C   UNL     1       7.293  -1.689  23.921  0.00  0.00    +0.239 A 
ATOM     16  C   UNL     1       7.807  -2.727  24.692  0.00  0.00    +0.103 A 
ATOM     17 CL   UNL     1       8.523  -2.474  26.237  0.00  0.00    -0.078 Cl
ATOM     18  C   UNL     1       7.748  -4.020  24.172  0.00  0.00    +0.039 A 
ATOM     19  C   UNL     1       7.167  -4.243  22.915  0.00  0.00    +0.074 A 
ATOM     20  C   UNL     1       6.648  -3.147  22.244  0.00  0.00    +0.127 A 
ATOM     21  N   UNL     1       6.685  -1.886  22.723  0.00  0.00    -0.219 NA
BRANCH  19  22
ATOM     22  C   UNL     1       7.108  -5.605  22.297  0.00  0.00    +0.419 C 
ATOM     23  F   UNL     1       6.032  -6.322  22.718  0.00  0.00    -0.166 F 
ATOM     24  F   UNL     1       8.203  -6.355  22.596  0.00  0.00    -0.166 F 
ATOM     25  F   UNL     1       7.035  -5.579  20.938  0.00  0.00    -0.166 F 
ENDBRANCH  19  22
ENDBRANCH  14  15
ENDBRANCH   4  14
TORSDOF 7
ENDMDL
MODEL 4
REMARK VINA RESULT:      -6.9      4.720      7.793
REMARK  Name = 
REMARK  8 active torsions:
REMARK  status: ('A' for Active; 'I' for Inactive)
REMARK    1  A    between atoms: C_2  and  C_3
REMARK    2  A    between atoms: C_2  and  O_4
REMARK    3  A    between atoms: C_2  and  C_23
REMARK    4  A    between atoms: O_4  and  C_5
REMARK    5  A    between atoms: C_8  and  O_9
REMARK    6  A    between atoms: O_9  and  C_10
REMARK    7  A    between atoms: C_13  and  C_17
REMARK    8  A    between atoms: C_23  and  O_24
REMARK                            x       y       z     vdW  Elec       q    Type
REMARK                         _______ _______ _______ _____ _____    ______ ____
ROOT
ATOM      1  C   UNL     1       8.913   1.766  24.880  0.00  0.00    +0.122 A 
ATOM      2  C   UNL     1       8.022   0.779  25.297  0.00  0.00    +0.049 A 
ATOM      3  C   UNL     1       8.338  -0.568  25.123  0.00  0.00    +0.050 A 
ATOM      4  C   UNL     1       9.588  -0.943  24.622  0.00  0.00    +0.131 A 
ATOM      5  C   UNL     1      10.519   0.047  24.303  0.00  0.00    +0.050 A 
ATOM      6  C   UNL     1      10.186   1.400  24.439  0.00  0.00    +0.049 A 
ENDROOT
BRANCH   1   7
ATOM      7  O   UNL     1       8.600   3.100  24.806  0.00  0.00    -0.478 OA
BRANCH   7   8
ATOM      8  C   UNL     1       8.974   3.755  23.573  0.00  0.00    +0.278 C 
ATOM      9  C   UNL     1       8.908   5.282  23.678  0.00  0.00    +0.064 C 
BRANCH   8  10
ATOM     10  C   UNL     1       8.002   3.312  22.476  0.00  0.00    +0.346 C 
ATOM     11  O   UNL     1       6.811   3.598  22.454  0.00  0.00    -0.247 OA
BRANCH  10  12
ATOM     12  O   UNL     1       8.583   2.567  21.507  0.00  0.00    -0.478 OA
ATOM     13  H   UNL     1       8.559   1.620  21.759  0.00  0.00    +0.295 HD
ENDBRANCH  10  12
ENDBRANCH   8  10
ENDBRANCH   7   8
ENDBRANCH   1   7
BRANCH   4  14
ATOM     14  O   UNL     1       9.950  -2.241  24.330  0.00  0.00    -0.437 OA
BRANCH  14  15
ATOM     15  C   UNL     1       8.998  -3.078  23.768  0.00  0.00    +0.239 A 
ATOM     16  C   UNL     1       8.709  -4.288  24.391  0.00  0.00    +0.103 A 
ATOM     17 CL   UNL     1       9.467  -4.788  25.853  0.00  0.00    -0.078 Cl
ATOM     18  C   UNL     1       7.776  -5.130  23.785  0.00  0.00    +0.039 A 
ATOM     19  C   UNL     1       7.149  -4.736  22.594  0.00  0.00    +0.074 A 
ATOM     20  C   UNL     1       7.477  -3.494  22.074  0.00  0.00    +0.127 A 
ATOM     21  N   UNL     1       8.371  -2.656  22.640  0.00  0.00    -0.219 NA
BRANCH  19  22
ATOM     22  C   UNL     1       6.165  -5.615  21.886  0.00  0.00    +0.419 C 
ATOM     23  F   UNL     1       6.493  -6.932  21.963  0.00  0.00    -0.166 F 
ATOM     24  F   UNL     1       6.075  -5.324  20.560  0.00  0.00    -0.166 F 
ATOM     25  F   UNL     1       4.899  -5.512  22.376  0.00  0.00    -0.166 F 
ENDBRANCH  19  22
ENDBRANCH  14  15
ENDBRANCH   4  14
TORSDOF 7
ENDMDL
MODEL 5
REMARK VINA RESULT:      -6.8      4.663      8.209
REMARK  Name = 
REMARK  8 active torsions:
REMARK  status: ('A' for Active; 'I' for Inactive)
REMARK    1  A    between atoms: C_2  and  C_3
REMARK    2  A    between atoms: C_2  and  O_4
REMARK    3  A    between atoms: C_2  and  C_23
REMARK    4  A    between atoms: O_4  and  C_5
REMARK    5  A    between atoms: C_8  and  O_9
REMARK    6  A    between atoms: O_9  and  C_10
REMARK    7  A    between atoms: C_13  and  C_17
REMARK    8  A    between atoms: C_23  and  O_24
REMARK                            x       y       z     vdW  Elec       q    Type
REMARK                         _______ _______ _______ _____ _____    ______ ____
ROOT
ATOM      1  C   UNL     1      10.253   1.915  23.167  0.00  0.00    +0.122 A 
ATOM      2  C   UNL     1      10.484   1.040  24.227  0.00  0.00    +0.049 A 
ATOM      3  C   UNL     1      10.260  -0.327  24.067  0.00  0.00    +0.050 A 
ATOM      4  C   UNL     1       9.900  -0.844  22.819  0.00  0.00    +0.131 A 
ATOM      5  C   UNL     1       9.772   0.023  21.732  0.00  0.00    +0.050 A 
ATOM      6  C   UNL     1       9.958   1.400  21.903  0.00  0.00    +0.049 A 
ENDROOT
BRANCH   1   7
ATOM      7  O   UNL     1      10.231   3.281  23.292  0.00  0.00    -0.478 OA
BRANCH   7   8
ATOM      8  C   UNL     1       9.230   3.802  24.194  0.00  0.00    +0.278 C 
ATOM      9  C   UNL     1       7.805   3.591  23.673  0.00  0.00    +0.064 C 
BRANCH   8  10
ATOM     10  C   UNL     1       9.459   5.307  24.353  0.00  0.00    +0.346 C 
ATOM     11  O   UNL     1       9.396   5.904  25.422  0.00  0.00    -0.247 OA
BRANCH  10  12
ATOM     12  O   UNL     1       9.750   5.936  23.191  0.00  0.00    -0.478 OA
ATOM     13  H   UNL     1      10.391   5.400  22.677  0.00  0.00    +0.295 HD
ENDBRANCH  10  12
ENDBRANCH   8  10
ENDBRANCH   7   8
ENDBRANCH   1   7
BRANCH   4  14
ATOM     14  O   UNL     1       9.569  -2.164  22.591  0.00  0.00    -0.437 OA
BRANCH  14  15
ATOM     15  C   UNL     1       8.929  -2.864  23.601  0.00  0.00    +0.239 A 
ATOM     16  C   UNL     1       7.564  -2.679  23.794  0.00  0.00    +0.103 A 
ATOM     17 CL   UNL     1       6.618  -1.628  22.811  0.00  0.00    -0.078 Cl
ATOM     18  C   UNL     1       6.950  -3.366  24.842  0.00  0.00    +0.039 A 
ATOM     19  C   UNL     1       7.707  -4.226  25.651  0.00  0.00    +0.074 A 
ATOM     20  C   UNL     1       9.052  -4.372  25.352  0.00  0.00    +0.127 A 
ATOM     21  N   UNL     1       9.672  -3.726  24.343  0.00  0.00    -0.219 NA
BRANCH  19  22
ATOM     22  C   UNL     1       7.105  -4.962  26.808  0.00  0.00    +0.419 C 
ATOM     23  F   UNL     1       8.019  -5.711  27.481  0.00  0.00    -0.166 F 
ATOM     24  F   UNL     1       6.124  -5.820  26.419  0.00  0.00    -0.166 F 
ATOM     25  F   UNL     1       6.536  -4.141  27.733  0.00  0.00    -0.166 F 
ENDBRANCH  19  22
ENDBRANCH  14  15
ENDBRANCH   4  14
TORSDOF 7
ENDMDL
MODEL 6
REMARK VINA RESULT:      -6.8      4.785      8.028
REMARK  Name = 
REMARK  8 active torsions:
REMARK  status: ('A' for Active; 'I' for Inactive)
REMARK    1  A    between atoms: C_2  and  C_3
REMARK    2  A    between atoms: C_2  and  O_4
REMARK    3  A    between atoms: C_2  and  C_23
REMARK    4  A    between atoms: O_4  and  C_5
REMARK    5  A    between atoms: C_8  and  O_9
REMARK    6  A    between atoms: O_9  and  C_10
REMARK    7  A    between atoms: C_13  and  C_17
REMARK    8  A    between atoms: C_23  and  O_24
REMARK                            x       y       z     vdW  Elec       q    Type
REMARK                         _______ _______ _______ _____ _____    ______ ____
ROOT
ATOM      1  C   UNL     1      10.066   0.359  24.166  0.00  0.00    +0.122 A 
ATOM      2  C   UNL     1      10.480  -0.383  23.061  0.00  0.00    +0.049 A 
ATOM      3  C   UNL     1      10.300  -1.765  23.039  0.00  0.00    +0.050 A 
ATOM      4  C   UNL     1       9.616  -2.407  24.076  0.00  0.00    +0.131 A 
ATOM      5  C   UNL     1       9.110  -1.646  25.132  0.00  0.00    +0.050 A 
ATOM      6  C   UNL     1       9.327  -0.264  25.173  0.00  0.00    +0.049 A 
ENDROOT
BRANCH   1   7
ATOM      7  O   UNL     1      10.397   1.674  24.374  0.00  0.00    -0.478 OA
BRANCH   7   8
ATOM      8  C   UNL     1      10.443   2.495  23.184  0.00  0.00    +0.278 C 
ATOM      9  C   UNL     1      11.193   3.811  23.410  0.00  0.00    +0.064 C 
BRANCH   8  10
ATOM     10  C   UNL     1       9.007   2.831  22.774  0.00  0.00    +0.346 C 
ATOM     11  O   UNL     1       8.201   3.406  23.497  0.00  0.00    -0.247 OA
BRANCH  10  12
ATOM     12  O   UNL     1       8.697   2.438  21.517  0.00  0.00    -0.478 OA
ATOM     13  H   UNL     1       9.221   1.643  21.281  0.00  0.00    +0.295 HD
ENDBRANCH  10  12
ENDBRANCH   8  10
ENDBRANCH   7   8
ENDBRANCH   1   7
BRANCH   4  14
ATOM     14  O   UNL     1       9.474  -3.775  24.184  0.00  0.00    -0.437 OA
BRANCH  14  15
ATOM     15  C   UNL     1       8.198  -4.310  24.118  0.00  0.00    +0.239 A 
ATOM     16  C   UNL     1       7.637  -4.866  25.263  0.00  0.00    +0.103 A 
ATOM     17 CL   UNL     1       8.454  -4.900  26.778  0.00  0.00    -0.078 Cl
ATOM     18  C   UNL     1       6.366  -5.433  25.162  0.00  0.00    +0.039 A 
ATOM     19  C   UNL     1       5.688  -5.413  23.935  0.00  0.00    +0.074 A 
ATOM     20  C   UNL     1       6.316  -4.800  22.863  0.00  0.00    +0.127 A 
ATOM     21  N   UNL     1       7.542  -4.238  22.931  0.00  0.00    -0.219 NA
BRANCH  19  22
ATOM     22  C   UNL     1       4.337  -6.035  23.763  0.00  0.00    +0.419 C 
ATOM     23  F   UNL     1       3.355  -5.327  24.381  0.00  0.00    -0.166 F 
ATOM     24  F   UNL     1       4.280  -7.292  24.280  0.00  0.00    -0.166 F 
ATOM     25  F   UNL     1       3.957  -6.150  22.461  0.00  0.00    -0.166 F 
ENDBRANCH  19  22
ENDBRANCH  14  15
ENDBRANCH   4  14
TORSDOF 7
ENDMDL
MODEL 7
REMARK VINA RESULT:      -6.8      2.518      3.551
REMARK  Name = 
REMARK  8 active torsions:
REMARK  status: ('A' for Active; 'I' for Inactive)
REMARK    1  A    between atoms: C_2  and  C_3
REMARK    2  A    between atoms: C_2  and  O_4
REMARK    3  A    between atoms: C_2  and  C_23
REMARK    4  A    between atoms: O_4  and  C_5
REMARK    5  A    between atoms: C_8  and  O_9
REMARK    6  A    between atoms: O_9  and  C_10
REMARK    7  A    between atoms: C_13  and  C_17
REMARK    8  A    between atoms: C_23  and  O_24
REMARK                            x       y       z     vdW  Elec       q    Type
REMARK                         _______ _______ _______ _____ _____    ______ ____
ROOT
ATOM      1  C   UNL     1       6.217  -5.010  25.546  0.00  0.00    +0.122 A 
ATOM      2  C   UNL     1       6.283  -4.469  24.263  0.00  0.00    +0.049 A 
ATOM      3  C   UNL     1       7.474  -3.910  23.801  0.00  0.00    +0.050 A 
ATOM      4  C   UNL     1       8.635  -3.974  24.577  0.00  0.00    +0.131 A 
ATOM      5  C   UNL     1       8.590  -4.610  25.819  0.00  0.00    +0.050 A 
ATOM      6  C   UNL     1       7.385  -5.135  26.300  0.00  0.00    +0.049 A 
ENDROOT
BRANCH   1   7
ATOM      7  O   UNL     1       5.047  -5.376  26.164  0.00  0.00    -0.478 OA
BRANCH   7   8
ATOM      8  C   UNL     1       4.865  -6.798  26.348  0.00  0.00    +0.278 C 
ATOM      9  C   UNL     1       3.714  -7.355  25.505  0.00  0.00    +0.064 C 
BRANCH   8  10
ATOM     10  C   UNL     1       4.543  -7.057  27.822  0.00  0.00    +0.346 C 
ATOM     11  O   UNL     1       3.467  -6.793  28.348  0.00  0.00    -0.247 OA
BRANCH  10  12
ATOM     12  O   UNL     1       5.564  -7.619  28.509  0.00  0.00    -0.478 OA
ATOM     13  H   UNL     1       5.638  -7.201  29.393  0.00  0.00    +0.295 HD
ENDBRANCH  10  12
ENDBRANCH   8  10
ENDBRANCH   7   8
ENDBRANCH   1   7
BRANCH   4  14
ATOM     14  O   UNL     1       9.827  -3.368  24.242  0.00  0.00    -0.437 OA
BRANCH  14  15
ATOM     15  C   UNL     1       9.792  -2.069  23.762  0.00  0.00    +0.239 A 
ATOM     16  C   UNL     1       9.448  -1.036  24.629  0.00  0.00    +0.103 A 
ATOM     17 CL   UNL     1       9.085  -1.297  26.291  0.00  0.00    -0.078 Cl
ATOM     18  C   UNL     1       9.382   0.259  24.112  0.00  0.00    +0.039 A 
ATOM     19  C   UNL     1       9.676   0.488  22.760  0.00  0.00    +0.074 A 
ATOM     20  C   UNL     1      10.046  -0.603  21.989  0.00  0.00    +0.127 A 
ATOM     21  N   UNL     1      10.124  -1.865  22.461  0.00  0.00    -0.219 NA
BRANCH  19  22
ATOM     22  C   UNL     1       9.589   1.851  22.148  0.00  0.00    +0.419 C 
ATOM     23  F   UNL     1       8.653   1.922  21.164  0.00  0.00    -0.166 F 
ATOM     24  F   UNL     1      10.764   2.237  21.582  0.00  0.00    -0.166 F 
ATOM     25  F   UNL     1       9.269   2.825  23.043  0.00  0.00    -0.166 F 
ENDBRANCH  19  22
ENDBRANCH  14  15
ENDBRANCH   4  14
TORSDOF 7
ENDMDL
MODEL 8
REMARK VINA RESULT:      -6.7      4.935      8.892
REMARK  Name = 
REMARK  8 active torsions:
REMARK  status: ('A' for Active; 'I' for Inactive)
REMARK    1  A    between atoms: C_2  and  C_3
REMARK    2  A    between atoms: C_2  and  O_4
REMARK    3  A    between atoms: C_2  and  C_23
REMARK    4  A    between atoms: O_4  and  C_5
REMARK    5  A    between atoms: C_8  and  O_9
REMARK    6  A    between atoms: O_9  and  C_10
REMARK    7  A    between atoms: C_13  and  C_17
REMARK    8  A    between atoms: C_23  and  O_24
REMARK                            x       y       z     vdW  Elec       q    Type
REMARK                         _______ _______ _______ _____ _____    ______ ____
ROOT
ATOM      1  C   UNL     1      10.099   3.957  23.516  0.00  0.00    +0.122 A 
ATOM      2  C   UNL     1       9.139   3.753  24.506  0.00  0.00    +0.049 A 
ATOM      3  C   UNL     1       8.333   2.615  24.473  0.00  0.00    +0.050 A 
ATOM      4  C   UNL     1       8.544   1.625  23.509  0.00  0.00    +0.131 A 
ATOM      5  C   UNL     1       9.577   1.784  22.584  0.00  0.00    +0.050 A 
ATOM      6  C   UNL     1      10.360   2.944  22.592  0.00  0.00    +0.049 A 
ENDROOT
BRANCH   1   7
ATOM      7  O   UNL     1      10.778   5.136  23.340  0.00  0.00    -0.478 OA
BRANCH   7   8
ATOM      8  C   UNL     1      12.084   5.196  23.958  0.00  0.00    +0.278 C 
ATOM      9  C   UNL     1      12.260   6.439  24.835  0.00  0.00    +0.064 C 
BRANCH   8  10
ATOM     10  C   UNL     1      13.140   5.242  22.851  0.00  0.00    +0.346 C 
ATOM     11  O   UNL     1      12.896   5.488  21.676  0.00  0.00    -0.247 OA
BRANCH  10  12
ATOM     12  O   UNL     1      14.395   4.991  23.291  0.00  0.00    -0.478 OA
ATOM     13  H   UNL     1      15.012   5.663  22.931  0.00  0.00    +0.295 HD
ENDBRANCH  10  12
ENDBRANCH   8  10
ENDBRANCH   7   8
ENDBRANCH   1   7
BRANCH   4  14
ATOM     14  O   UNL     1       7.739   0.517  23.344  0.00  0.00    -0.437 OA
BRANCH  14  15
ATOM     15  C   UNL     1       8.152  -0.684  23.899  0.00  0.00    +0.239 A 
ATOM     16  C   UNL     1       8.826  -1.602  23.100  0.00  0.00    +0.103 A 
ATOM     17 CL   UNL     1       9.196  -1.303  21.446  0.00  0.00    -0.078 Cl
ATOM     18  C   UNL     1       9.198  -2.820  23.672  0.00  0.00    +0.039 A 
ATOM     19  C   UNL     1       8.904  -3.078  25.019  0.00  0.00    +0.074 A 
ATOM     20  C   UNL     1       8.264  -2.082  25.740  0.00  0.00    +0.127 A 
ATOM     21  N   UNL     1       7.897  -0.893  25.216  0.00  0.00    -0.219 NA
BRANCH  19  22
ATOM     22  C   UNL     1       9.250  -4.380  25.672  0.00  0.00    +0.419 C 
ATOM     23  F   UNL     1      10.414  -4.904  25.204  0.00  0.00    -0.166 F 
ATOM     24  F   UNL     1       8.298  -5.329  25.468  0.00  0.00    -0.166 F 
ATOM     25  F   UNL     1       9.397  -4.283  27.023  0.00  0.00    -0.166 F 
ENDBRANCH  19  22
ENDBRANCH  14  15
ENDBRANCH   4  14
TORSDOF 7
ENDMDL
MODEL 9
REMARK VINA RESULT:      -6.7      4.616      8.392
REMARK  Name = 
REMARK  8 active torsions:
REMARK  status: ('A' for Active; 'I' for Inactive)
REMARK    1  A    between atoms: C_2  and  C_3
REMARK    2  A    between atoms: C_2  and  O_4
REMARK    3  A    between atoms: C_2  and  C_23
REMARK    4  A    between atoms: O_4  and  C_5
REMARK    5  A    between atoms: C_8  and  O_9
REMARK    6  A    between atoms: O_9  and  C_10
REMARK    7  A    between atoms: C_13  and  C_17
REMARK    8  A    between atoms: C_23  and  O_24
REMARK                            x       y       z     vdW  Elec       q    Type
REMARK                         _______ _______ _______ _____ _____    ______ ____
ROOT
ATOM      1  C   UNL     1      10.204   1.274  22.758  0.00  0.00    +0.122 A 
ATOM      2  C   UNL     1       9.743   0.367  21.805  0.00  0.00    +0.049 A 
ATOM      3  C   UNL     1       9.617  -0.983  22.129  0.00  0.00    +0.050 A 
ATOM      4  C   UNL     1       9.855  -1.424  23.434  0.00  0.00    +0.131 A 
ATOM      5  C   UNL     1      10.215  -0.495  24.413  0.00  0.00    +0.050 A 
ATOM      6  C   UNL     1      10.381   0.854  24.078  0.00  0.00    +0.049 A 
ENDROOT
BRANCH   1   7
ATOM      7  O   UNL     1      10.569   2.566  22.473  0.00  0.00    -0.478 OA
BRANCH   7   8
ATOM      8  C   UNL     1      10.489   3.490  23.582  0.00  0.00    +0.278 C 
ATOM      9  C   UNL     1       9.104   4.131  23.711  0.00  0.00    +0.064 C 
BRANCH   8  10
ATOM     10  C   UNL     1      11.510   4.607  23.354  0.00  0.00    +0.346 C 
ATOM     11  O   UNL     1      12.723   4.461  23.449  0.00  0.00    -0.247 OA
BRANCH  10  12
ATOM     12  O   UNL     1      10.949   5.794  23.024  0.00  0.00    -0.478 OA
ATOM     13  H   UNL     1      10.643   6.251  23.836  0.00  0.00    +0.295 HD
ENDBRANCH  10  12
ENDBRANCH   8  10
ENDBRANCH   7   8
ENDBRANCH   1   7
BRANCH   4  14
ATOM     14  O   UNL     1       9.846  -2.748  23.821  0.00  0.00    -0.437 OA
BRANCH  14  15
ATOM     15  C   UNL     1       8.638  -3.427  23.811  0.00  0.00    +0.239 A 
ATOM     16  C   UNL     1       7.907  -3.525  24.990  0.00  0.00    +0.103 A 
ATOM     17 CL   UNL     1       8.426  -2.816  26.470  0.00  0.00    -0.078 Cl
ATOM     18  C   UNL     1       6.713  -4.247  24.963  0.00  0.00    +0.039 A 
ATOM     19  C   UNL     1       6.276  -4.830  23.764  0.00  0.00    +0.074 A 
ATOM     20  C   UNL     1       7.057  -4.641  22.635  0.00  0.00    +0.127 A 
ATOM     21  N   UNL     1       8.213  -3.944  22.629  0.00  0.00    -0.219 NA
BRANCH  19  22
ATOM     22  C   UNL     1       5.020  -5.641  23.687  0.00  0.00    +0.419 C 
ATOM     23  F   UNL     1       4.749  -6.063  22.423  0.00  0.00    -0.166 F 
ATOM     24  F   UNL     1       3.928  -4.940  24.094  0.00  0.00    -0.166 F 
ATOM     25  F   UNL     1       5.052  -6.762  24.460  0.00  0.00    -0.166 F 
ENDBRANCH  19  22
ENDBRANCH  14  15
ENDBRANCH   4  14
TORSDOF 7
ENDMDL
