MODEL 1
REMARK VINA RESULT:      -3.0      0.000      0.000
REMARK  Name = 
REMARK  4 active torsions:
REMARK  status: ('A' for Active; 'I' for Inactive)
REMARK    1  A    between atoms: C_1  and  C_2
REMARK    2  A    between atoms: C_2  and  C_3
REMARK    3  A    between atoms: C_3  and  C_4
REMARK    4  A    between atoms: C_4  and  C_5
REMARK                            x       y       z     vdW  Elec       q    Type
REMARK                         _______ _______ _______ _____ _____    ______ ____
ROOT
ATOM      1  C   UNL     1       9.746  -0.772  21.746  0.00  0.00    +0.007 C 
ENDROOT
BRANCH   1   3
ATOM      2  C   UNL     1      10.019   1.711  22.055  0.00  0.00    +0.004 C 
ATOM      3  C   UNL     1       9.136   0.605  21.497  0.00  0.00    -0.003 C 
ENDBRANCH   1   3
BRANCH   1   4
ATOM      4  C   UNL     1      10.125  -0.958  23.212  0.00  0.00    +0.071 C 
BRANCH   4   5
ATOM      5  C   UNL     1       9.538  -2.216  23.806  0.00  0.00    +0.223 C 
ATOM      6  O   UNL     1      10.159  -3.257  23.993  0.00  0.00    -0.301 OA
ENDBRANCH   4   5
ENDBRANCH   1   4
TORSDOF 3
ENDMDL
MODEL 2
REMARK VINA RESULT:      -2.9      1.572      2.306
REMARK  Name = 
REMARK  4 active torsions:
REMARK  status: ('A' for Active; 'I' for Inactive)
REMARK    1  A    between atoms: C_1  and  C_2
REMARK    2  A    between atoms: C_2  and  C_3
REMARK    3  A    between atoms: C_3  and  C_4
REMARK    4  A    between atoms: C_4  and  C_5
REMARK                            x       y       z     vdW  Elec       q    Type
REMARK                         _______ _______ _______ _____ _____    ______ ____
ROOT
ATOM      1  C   UNL     1       9.955   1.599  22.081  0.00  0.00    +0.007 C 
ENDROOT
BRANCH   1   3
ATOM      2  C   UNL     1       9.339   2.332  24.410  0.00  0.00    +0.004 C 
ATOM      3  C   UNL     1      10.345   1.574  23.557  0.00  0.00    -0.003 C 
ENDBRANCH   1   3
BRANCH   1   4
ATOM      4  C   UNL     1       9.555   0.214  21.585  0.00  0.00    +0.071 C 
BRANCH   4   5
ATOM      5  C   UNL     1       9.939  -0.880  22.552  0.00  0.00    +0.223 C 
ATOM      6  O   UNL     1      10.673  -1.825  22.285  0.00  0.00    -0.301 OA
ENDBRANCH   4   5
ENDBRANCH   1   4
TORSDOF 3
ENDMDL
MODEL 3
REMARK VINA RESULT:      -2.9      2.044      2.755
REMARK  Name = 
REMARK  4 active torsions:
REMARK  status: ('A' for Active; 'I' for Inactive)
REMARK    1  A    between atoms: C_1  and  C_2
REMARK    2  A    between atoms: C_2  and  C_3
REMARK    3  A    between atoms: C_3  and  C_4
REMARK    4  A    between atoms: C_4  and  C_5
REMARK                            x       y       z     vdW  Elec       q    Type
REMARK                         _______ _______ _______ _____ _____    ______ ____
ROOT
ATOM      1  C   UNL     1      10.190   1.867  22.183  0.00  0.00    +0.007 C 
ENDROOT
BRANCH   1   3
ATOM      2  C   UNL     1       9.392  -0.388  21.395  0.00  0.00    +0.004 C 
ATOM      3  C   UNL     1       9.001   1.056  21.672  0.00  0.00    -0.003 C 
ENDBRANCH   1   3
BRANCH   1   4
ATOM      4  C   UNL     1      10.137   2.041  23.697  0.00  0.00    +0.071 C 
BRANCH   4   5
ATOM      5  C   UNL     1      10.913   0.973  24.430  0.00  0.00    +0.223 C 
ATOM      6  O   UNL     1      10.432  -0.068  24.864  0.00  0.00    -0.301 OA
ENDBRANCH   4   5
ENDBRANCH   1   4
TORSDOF 3
ENDMDL
MODEL 4
REMARK VINA RESULT:      -2.7      2.687      3.794
REMARK  Name = 
REMARK  4 active torsions:
REMARK  status: ('A' for Active; 'I' for Inactive)
REMARK    1  A    between atoms: C_1  and  C_2
REMARK    2  A    between atoms: C_2  and  C_3
REMARK    3  A    between atoms: C_3  and  C_4
REMARK    4  A    between atoms: C_4  and  C_5
REMARK                            x       y       z     vdW  Elec       q    Type
REMARK                         _______ _______ _______ _____ _____    ______ ____
ROOT
ATOM      1  C   UNL     1      10.168   2.004  23.563  0.00  0.00    +0.007 C 
ENDROOT
BRANCH   1   3
ATOM      2  C   UNL     1       9.966   0.020  25.101  0.00  0.00    +0.004 C 
ATOM      3  C   UNL     1      10.916   0.889  24.290  0.00  0.00    -0.003 C 
ENDBRANCH   1   3
BRANCH   1   4
ATOM      4  C   UNL     1      10.050   1.715  22.070  0.00  0.00    +0.071 C 
BRANCH   4   5
ATOM      5  C   UNL     1       8.639   1.371  21.657  0.00  0.00    +0.223 C 
ATOM      6  O   UNL     1       7.795   0.876  22.395  0.00  0.00    -0.301 OA
ENDBRANCH   4   5
ENDBRANCH   1   4
TORSDOF 3
ENDMDL
MODEL 5
REMARK VINA RESULT:      -2.7      3.476      5.057
REMARK  Name = 
REMARK  4 active torsions:
REMARK  status: ('A' for Active; 'I' for Inactive)
REMARK    1  A    between atoms: C_1  and  C_2
REMARK    2  A    between atoms: C_2  and  C_3
REMARK    3  A    between atoms: C_3  and  C_4
REMARK    4  A    between atoms: C_4  and  C_5
REMARK                            x       y       z     vdW  Elec       q    Type
REMARK                         _______ _______ _______ _____ _____    ______ ____
ROOT
ATOM      1  C   UNL     1       7.219  -4.307  22.589  0.00  0.00    +0.007 C 
ENDROOT
BRANCH   1   3
ATOM      2  C   UNL     1       6.223  -5.838  20.855  0.00  0.00    +0.004 C 
ATOM      3  C   UNL     1       7.110  -5.746  22.088  0.00  0.00    -0.003 C 
ENDBRANCH   1   3
BRANCH   1   4
ATOM      4  C   UNL     1       8.085  -4.217  23.842  0.00  0.00    +0.071 C 
BRANCH   4   5
ATOM      5  C   UNL     1       8.974  -2.996  23.843  0.00  0.00    +0.223 C 
ATOM      6  O   UNL     1      10.199  -3.022  23.836  0.00  0.00    -0.301 OA
ENDBRANCH   4   5
ENDBRANCH   1   4
TORSDOF 3
ENDMDL
MODEL 6
REMARK VINA RESULT:      -2.7      5.297      5.889
REMARK  Name = 
REMARK  4 active torsions:
REMARK  status: ('A' for Active; 'I' for Inactive)
REMARK    1  A    between atoms: C_1  and  C_2
REMARK    2  A    between atoms: C_2  and  C_3
REMARK    3  A    between atoms: C_3  and  C_4
REMARK    4  A    between atoms: C_4  and  C_5
REMARK                            x       y       z     vdW  Elec       q    Type
REMARK                         _______ _______ _______ _____ _____    ______ ____
ROOT
ATOM      1  C   UNL     1       8.037  -5.011  24.196  0.00  0.00    +0.007 C 
ENDROOT
BRANCH   1   3
ATOM      2  C   UNL     1       7.228  -6.001  22.027  0.00  0.00    +0.004 C 
ATOM      3  C   UNL     1       7.229  -4.771  22.922  0.00  0.00    -0.003 C 
ENDBRANCH   1   3
BRANCH   1   4
ATOM      4  C   UNL     1       7.130  -5.152  25.414  0.00  0.00    +0.071 C 
BRANCH   4   5
ATOM      5  C   UNL     1       7.908  -5.272  26.703  0.00  0.00    +0.223 C 
ATOM      6  O   UNL     1       7.482  -5.784  27.732  0.00  0.00    -0.301 OA
ENDBRANCH   4   5
ENDBRANCH   1   4
TORSDOF 3
ENDMDL
MODEL 7
REMARK VINA RESULT:      -2.6      3.476      4.387
REMARK  Name = 
REMARK  4 active torsions:
REMARK  status: ('A' for Active; 'I' for Inactive)
REMARK    1  A    between atoms: C_1  and  C_2
REMARK    2  A    between atoms: C_2  and  C_3
REMARK    3  A    between atoms: C_3  and  C_4
REMARK    4  A    between atoms: C_4  and  C_5
REMARK                            x       y       z     vdW  Elec       q    Type
REMARK                         _______ _______ _______ _____ _____    ______ ____
ROOT
ATOM      1  C   UNL     1      10.043   1.501  22.029  0.00  0.00    +0.007 C 
ENDROOT
BRANCH   1   3
ATOM      2  C   UNL     1      10.726   0.931  24.384  0.00  0.00    +0.004 C 
ATOM      3  C   UNL     1      10.256   0.382  23.046  0.00  0.00    -0.003 C 
ENDBRANCH   1   3
BRANCH   1   4
ATOM      4  C   UNL     1       8.583   1.590  21.595  0.00  0.00    +0.071 C 
BRANCH   4   5
ATOM      5  C   UNL     1       7.870   2.773  22.206  0.00  0.00    +0.223 C 
ATOM      6  O   UNL     1       6.809   3.236  21.802  0.00  0.00    -0.301 OA
ENDBRANCH   4   5
ENDBRANCH   1   4
TORSDOF 3
ENDMDL
MODEL 8
REMARK VINA RESULT:      -2.6      2.416      3.748
REMARK  Name = 
REMARK  4 active torsions:
REMARK  status: ('A' for Active; 'I' for Inactive)
REMARK    1  A    between atoms: C_1  and  C_2
REMARK    2  A    between atoms: C_2  and  C_3
REMARK    3  A    between atoms: C_3  and  C_4
REMARK    4  A    between atoms: C_4  and  C_5
REMARK                            x       y       z     vdW  Elec       q    Type
REMARK                         _______ _______ _______ _____ _____    ______ ____
ROOT
ATOM      1  C   UNL     1       9.954  -1.250  21.978  0.00  0.00    +0.007 C 
ENDROOT
BRANCH   1   3
ATOM      2  C   UNL     1       9.756  -2.742  23.997  0.00  0.00    +0.004 C 
ATOM      3  C   UNL     1       9.897  -1.310  23.503  0.00  0.00    -0.003 C 
ENDBRANCH   1   3
BRANCH   1   4
ATOM      4  C   UNL     1       9.362   0.052  21.449  0.00  0.00    +0.071 C 
BRANCH   4   5
ATOM      5  C   UNL     1       9.662   1.230  22.345  0.00  0.00    +0.223 C 
ATOM      6  O   UNL     1      10.394   2.167  22.047  0.00  0.00    -0.301 OA
ENDBRANCH   4   5
ENDBRANCH   1   4
TORSDOF 3
ENDMDL
MODEL 9
REMARK VINA RESULT:      -2.5      2.116      2.576
REMARK  Name = 
REMARK  4 active torsions:
REMARK  status: ('A' for Active; 'I' for Inactive)
REMARK    1  A    between atoms: C_1  and  C_2
REMARK    2  A    between atoms: C_2  and  C_3
REMARK    3  A    between atoms: C_3  and  C_4
REMARK    4  A    between atoms: C_4  and  C_5
REMARK                            x       y       z     vdW  Elec       q    Type
REMARK                         _______ _______ _______ _____ _____    ______ ____
ROOT
ATOM      1  C   UNL     1       9.694   1.341  21.831  0.00  0.00    +0.007 C 
ENDROOT
BRANCH   1   3
ATOM      2  C   UNL     1      10.695   3.030  23.408  0.00  0.00    +0.004 C 
ATOM      3  C   UNL     1      10.297   1.575  23.215  0.00  0.00    -0.003 C 
ENDBRANCH   1   3
BRANCH   1   4
ATOM      4  C   UNL     1       9.515  -0.146  21.544  0.00  0.00    +0.071 C 
BRANCH   4   5
ATOM      5  C   UNL     1       8.528  -0.801  22.480  0.00  0.00    +0.223 C 
ATOM      6  O   UNL     1       7.411  -0.365  22.737  0.00  0.00    -0.301 OA
ENDBRANCH   4   5
ENDBRANCH   1   4
TORSDOF 3
ENDMDL
