MODEL 1
REMARK VINA RESULT:      -5.6      0.000      0.000
REMARK  Name = 
REMARK  2 active torsions:
REMARK  status: ('A' for Active; 'I' for Inactive)
REMARK    1  A    between atoms: O_1  and  C_2
REMARK    2  A    between atoms: C_2  and  CA_4
REMARK                            x       y       z     vdW  Elec       q    Type
REMARK                         _______ _______ _______ _____ _____    ______ ____
ROOT
ATOM      1  CA  UNL     1       9.359  -2.362  23.675  0.00  0.00    +0.148 A 
ATOM      2  C   UNL     1       8.973  -2.274  22.350  0.00  0.00    +0.035 A 
ATOM      3  C   UNL     1       9.127  -1.047  21.718  0.00  0.00    +0.012 A 
ATOM      4  C   UNL     1       9.658   0.040  22.424  0.00  0.00    +0.000 A 
ATOM      5  C   UNL     1       9.806   1.300  21.820  0.00  0.00    +0.010 A 
ATOM      6  C   UNL     1      10.334   2.370  22.540  0.00  0.00    +0.001 A 
ATOM      7  C   UNL     1      10.722   2.182  23.862  0.00  0.00    +0.002 A 
ATOM      8  C   UNL     1      10.574   0.927  24.462  0.00  0.00    +0.028 A 
ATOM      9  C   UNL     1      10.038  -0.154  23.772  0.00  0.00    +0.072 A 
ATOM     10  N   UNL     1       9.893  -1.335  24.401  0.00  0.00    -0.240 NA
ENDROOT
BRANCH   1  11
ATOM     11  C   UNL     1       9.183  -3.641  24.422  0.00  0.00    +0.355 C 
ATOM     12  OXT UNL     1      10.068  -4.445  24.653  0.00  0.00    -0.243 OA
BRANCH  11  13
ATOM     13  O   UNL     1       7.889  -3.793  24.799  0.00  0.00    -0.476 OA
ATOM     14  H   UNL     1       7.478  -2.899  24.870  0.00  0.00    +0.295 HD
ENDBRANCH  11  13
ENDBRANCH   1  11
TORSDOF 2
ENDMDL
MODEL 2
REMARK VINA RESULT:      -5.5      1.690      2.902
REMARK  Name = 
REMARK  2 active torsions:
REMARK  status: ('A' for Active; 'I' for Inactive)
REMARK    1  A    between atoms: O_1  and  C_2
REMARK    2  A    between atoms: C_2  and  CA_4
REMARK                            x       y       z     vdW  Elec       q    Type
REMARK                         _______ _______ _______ _____ _____    ______ ____
ROOT
ATOM      1  CA  UNL     1       8.973  -3.772  25.391  0.00  0.00    +0.148 A 
ATOM      2  C   UNL     1       8.502  -2.877  26.334  0.00  0.00    +0.035 A 
ATOM      3  C   UNL     1       8.611  -1.523  26.044  0.00  0.00    +0.012 A 
ATOM      4  C   UNL     1       9.181  -1.113  24.831  0.00  0.00    +0.000 A 
ATOM      5  C   UNL     1       9.325   0.249  24.517  0.00  0.00    +0.010 A 
ATOM      6  C   UNL     1       9.897   0.636  23.306  0.00  0.00    +0.001 A 
ATOM      7  C   UNL     1      10.317  -0.335  22.404  0.00  0.00    +0.002 A 
ATOM      8  C   UNL     1      10.173  -1.690  22.719  0.00  0.00    +0.028 A 
ATOM      9  C   UNL     1       9.619  -2.105  23.923  0.00  0.00    +0.072 A 
ATOM     10  N   UNL     1       9.523  -3.421  24.190  0.00  0.00    -0.240 NA
ENDROOT
BRANCH   1  11
ATOM     11  C   UNL     1       8.920  -5.238  25.659  0.00  0.00    +0.355 C 
ATOM     12  OXT UNL     1       7.993  -5.821  26.192  0.00  0.00    -0.243 OA
BRANCH  11  13
ATOM     13  O   UNL     1      10.063  -5.835  25.237  0.00  0.00    -0.476 OA
ATOM     14  H   UNL     1      10.786  -5.164  25.244  0.00  0.00    +0.295 HD
ENDBRANCH  11  13
ENDBRANCH   1  11
TORSDOF 2
ENDMDL
MODEL 3
REMARK VINA RESULT:      -5.4      5.192      6.945
REMARK  Name = 
REMARK  2 active torsions:
REMARK  status: ('A' for Active; 'I' for Inactive)
REMARK    1  A    between atoms: O_1  and  C_2
REMARK    2  A    between atoms: C_2  and  CA_4
REMARK                            x       y       z     vdW  Elec       q    Type
REMARK                         _______ _______ _______ _____ _____    ______ ____
ROOT
ATOM      1  CA  UNL     1      11.900   4.969  23.229  0.00  0.00    +0.148 A 
ATOM      2  C   UNL     1      11.056   5.967  23.683  0.00  0.00    +0.035 A 
ATOM      3  C   UNL     1       9.849   5.577  24.248  0.00  0.00    +0.012 A 
ATOM      4  C   UNL     1       9.528   4.215  24.340  0.00  0.00    +0.000 A 
ATOM      5  C   UNL     1       8.306   3.789  24.886  0.00  0.00    +0.010 A 
ATOM      6  C   UNL     1       8.005   2.431  24.966  0.00  0.00    +0.001 A 
ATOM      7  C   UNL     1       8.927   1.496  24.510  0.00  0.00    +0.002 A 
ATOM      8  C   UNL     1      10.143   1.922  23.967  0.00  0.00    +0.028 A 
ATOM      9  C   UNL     1      10.464   3.269  23.862  0.00  0.00    +0.072 A 
ATOM     10  N   UNL     1      11.638   3.630  23.309  0.00  0.00    -0.240 NA
ENDROOT
BRANCH   1  11
ATOM     11  C   UNL     1      13.194   5.323  22.578  0.00  0.00    +0.355 C 
ATOM     12  OXT UNL     1      13.309   5.848  21.485  0.00  0.00    -0.243 OA
BRANCH  11  13
ATOM     13  O   UNL     1      14.234   4.961  23.370  0.00  0.00    -0.476 OA
ATOM     14  H   UNL     1      15.012   4.768  22.795  0.00  0.00    +0.295 HD
ENDBRANCH  11  13
ENDBRANCH   1  11
TORSDOF 2
ENDMDL
MODEL 4
REMARK VINA RESULT:      -5.2      3.148      4.690
REMARK  Name = 
REMARK  2 active torsions:
REMARK  status: ('A' for Active; 'I' for Inactive)
REMARK    1  A    between atoms: O_1  and  C_2
REMARK    2  A    between atoms: C_2  and  CA_4
REMARK                            x       y       z     vdW  Elec       q    Type
REMARK                         _______ _______ _______ _____ _____    ______ ____
ROOT
ATOM      1  CA  UNL     1       9.868   0.614  22.974  0.00  0.00    +0.148 A 
ATOM      2  C   UNL     1      10.189  -0.405  22.096  0.00  0.00    +0.035 A 
ATOM      3  C   UNL     1       9.992  -1.710  22.529  0.00  0.00    +0.012 A 
ATOM      4  C   UNL     1       9.484  -1.951  23.813  0.00  0.00    +0.000 A 
ATOM      5  C   UNL     1       9.293  -3.259  24.289  0.00  0.00    +0.010 A 
ATOM      6  C   UNL     1       8.790  -3.477  25.570  0.00  0.00    +0.001 A 
ATOM      7  C   UNL     1       8.467  -2.389  26.374  0.00  0.00    +0.002 A 
ATOM      8  C   UNL     1       8.657  -1.088  25.899  0.00  0.00    +0.028 A 
ATOM      9  C   UNL     1       9.170  -0.841  24.632  0.00  0.00    +0.072 A 
ATOM     10  N   UNL     1       9.358   0.430  24.229  0.00  0.00    -0.240 NA
ENDROOT
BRANCH   1  11
ATOM     11  C   UNL     1      10.092   2.036  22.585  0.00  0.00    +0.355 C 
ATOM     12  OXT UNL     1      10.737   2.846  23.226  0.00  0.00    -0.243 OA
BRANCH  11  13
ATOM     13  O   UNL     1       9.460   2.309  21.416  0.00  0.00    -0.476 OA
ATOM     14  H   UNL     1      10.100   2.752  20.811  0.00  0.00    +0.295 HD
ENDBRANCH  11  13
ENDBRANCH   1  11
TORSDOF 2
ENDMDL
MODEL 5
REMARK VINA RESULT:      -5.2      1.362      2.259
REMARK  Name = 
REMARK  2 active torsions:
REMARK  status: ('A' for Active; 'I' for Inactive)
REMARK    1  A    between atoms: O_1  and  C_2
REMARK    2  A    between atoms: C_2  and  CA_4
REMARK                            x       y       z     vdW  Elec       q    Type
REMARK                         _______ _______ _______ _____ _____    ______ ____
ROOT
ATOM      1  CA  UNL     1       8.589  -2.488  23.591  0.00  0.00    +0.148 A 
ATOM      2  C   UNL     1       8.795  -2.132  24.912  0.00  0.00    +0.035 A 
ATOM      3  C   UNL     1       9.280  -0.855  25.164  0.00  0.00    +0.012 A 
ATOM      4  C   UNL     1       9.540   0.016  24.097  0.00  0.00    +0.000 A 
ATOM      5  C   UNL     1      10.052   1.306  24.317  0.00  0.00    +0.010 A 
ATOM      6  C   UNL     1      10.306   2.156  23.242  0.00  0.00    +0.001 A 
ATOM      7  C   UNL     1      10.041   1.723  21.947  0.00  0.00    +0.002 A 
ATOM      8  C   UNL     1       9.532   0.439  21.730  0.00  0.00    +0.028 A 
ATOM      9  C   UNL     1       9.281  -0.435  22.782  0.00  0.00    +0.072 A 
ATOM     10  N   UNL     1       8.814  -1.670  22.520  0.00  0.00    -0.240 NA
ENDROOT
BRANCH   1  11
ATOM     11  C   UNL     1       8.105  -3.857  23.252  0.00  0.00    +0.355 C 
ATOM     12  OXT UNL     1       7.252  -4.114  22.422  0.00  0.00    -0.243 OA
BRANCH  11  13
ATOM     13  O   UNL     1       8.741  -4.783  24.013  0.00  0.00    -0.476 OA
ATOM     14  H   UNL     1       9.713  -4.631  23.941  0.00  0.00    +0.295 HD
ENDBRANCH  11  13
ENDBRANCH   1  11
TORSDOF 2
ENDMDL
MODEL 6
REMARK VINA RESULT:      -5.2      3.029      5.166
REMARK  Name = 
REMARK  2 active torsions:
REMARK  status: ('A' for Active; 'I' for Inactive)
REMARK    1  A    between atoms: O_1  and  C_2
REMARK    2  A    between atoms: C_2  and  CA_4
REMARK                            x       y       z     vdW  Elec       q    Type
REMARK                         _______ _______ _______ _____ _____    ______ ____
ROOT
ATOM      1  CA  UNL     1       9.122   0.196  22.482  0.00  0.00    +0.148 A 
ATOM      2  C   UNL     1      10.077   0.109  23.480  0.00  0.00    +0.035 A 
ATOM      3  C   UNL     1      10.174  -1.092  24.171  0.00  0.00    +0.012 A 
ATOM      4  C   UNL     1       9.322  -2.156  23.845  0.00  0.00    +0.000 A 
ATOM      5  C   UNL     1       9.380  -3.376  24.539  0.00  0.00    +0.010 A 
ATOM      6  C   UNL     1       8.523  -4.421  24.201  0.00  0.00    +0.001 A 
ATOM      7  C   UNL     1       7.612  -4.254  23.163  0.00  0.00    +0.002 A 
ATOM      8  C   UNL     1       7.556  -3.039  22.473  0.00  0.00    +0.028 A 
ATOM      9  C   UNL     1       8.389  -1.975  22.797  0.00  0.00    +0.072 A 
ATOM     10  N   UNL     1       8.280  -0.817  22.119  0.00  0.00    -0.240 NA
ENDROOT
BRANCH   1  11
ATOM     11  C   UNL     1       8.942   1.471  21.729  0.00  0.00    +0.355 C 
ATOM     12  OXT UNL     1       7.884   1.878  21.283  0.00  0.00    -0.243 OA
BRANCH  11  13
ATOM     13  O   UNL     1      10.130   2.110  21.594  0.00  0.00    -0.476 OA
ATOM     14  H   UNL     1      10.411   2.436  22.482  0.00  0.00    +0.295 HD
ENDBRANCH  11  13
ENDBRANCH   1  11
TORSDOF 2
ENDMDL
MODEL 7
REMARK VINA RESULT:      -5.1      2.176      2.875
REMARK  Name = 
REMARK  2 active torsions:
REMARK  status: ('A' for Active; 'I' for Inactive)
REMARK    1  A    between atoms: O_1  and  C_2
REMARK    2  A    between atoms: C_2  and  CA_4
REMARK                            x       y       z     vdW  Elec       q    Type
REMARK                         _______ _______ _______ _____ _____    ______ ____
ROOT
ATOM      1  CA  UNL     1       9.584  -0.572  23.628  0.00  0.00    +0.148 A 
ATOM      2  C   UNL     1       8.481  -0.579  24.463  0.00  0.00    +0.035 A 
ATOM      3  C   UNL     1       8.035   0.644  24.946  0.00  0.00    +0.012 A 
ATOM      4  C   UNL     1       8.700   1.823  24.582  0.00  0.00    +0.000 A 
ATOM      5  C   UNL     1       8.286   3.074  25.071  0.00  0.00    +0.010 A 
ATOM      6  C   UNL     1       8.962   4.234  24.699  0.00  0.00    +0.001 A 
ATOM      7  C   UNL     1      10.045   4.149  23.831  0.00  0.00    +0.002 A 
ATOM      8  C   UNL     1      10.455   2.904  23.346  0.00  0.00    +0.028 A 
ATOM      9  C   UNL     1       9.809   1.729  23.710  0.00  0.00    +0.072 A 
ATOM     10  N   UNL     1      10.256   0.552  23.234  0.00  0.00    -0.240 NA
ENDROOT
BRANCH   1  11
ATOM     11  C   UNL     1      10.137  -1.855  23.106  0.00  0.00    +0.355 C 
ATOM     12  OXT UNL     1      10.267  -2.878  23.754  0.00  0.00    -0.243 OA
BRANCH  11  13
ATOM     13  O   UNL     1      10.491  -1.720  21.804  0.00  0.00    -0.476 OA
ATOM     14  H   UNL     1       9.713  -1.950  21.243  0.00  0.00    +0.295 HD
ENDBRANCH  11  13
ENDBRANCH   1  11
TORSDOF 2
ENDMDL
MODEL 8
REMARK VINA RESULT:      -5.0      2.982      5.531
REMARK  Name = 
REMARK  2 active torsions:
REMARK  status: ('A' for Active; 'I' for Inactive)
REMARK    1  A    between atoms: O_1  and  C_2
REMARK    2  A    between atoms: C_2  and  CA_4
REMARK                            x       y       z     vdW  Elec       q    Type
REMARK                         _______ _______ _______ _____ _____    ______ ____
ROOT
ATOM      1  CA  UNL     1       9.281  -1.947  22.936  0.00  0.00    +0.148 A 
ATOM      2  C   UNL     1       9.740  -2.600  24.066  0.00  0.00    +0.035 A 
ATOM      3  C   UNL     1       9.038  -3.721  24.488  0.00  0.00    +0.012 A 
ATOM      4  C   UNL     1       7.911  -4.149  23.773  0.00  0.00    +0.000 A 
ATOM      5  C   UNL     1       7.167  -5.267  24.187  0.00  0.00    +0.010 A 
ATOM      6  C   UNL     1       6.048  -5.675  23.463  0.00  0.00    +0.001 A 
ATOM      7  C   UNL     1       5.676  -4.975  22.321  0.00  0.00    +0.002 A 
ATOM      8  C   UNL     1       6.418  -3.863  21.911  0.00  0.00    +0.028 A 
ATOM      9  C   UNL     1       7.530  -3.425  22.620  0.00  0.00    +0.072 A 
ATOM     10  N   UNL     1       8.198  -2.335  22.199  0.00  0.00    -0.240 NA
ENDROOT
BRANCH   1  11
ATOM     11  C   UNL     1       9.968  -0.715  22.452  0.00  0.00    +0.355 C 
ATOM     12  OXT UNL     1      10.568   0.076  23.158  0.00  0.00    -0.243 OA
BRANCH  11  13
ATOM     13  O   UNL     1       9.818  -0.588  21.110  0.00  0.00    -0.476 OA
ATOM     14  H   UNL     1      10.599  -0.104  20.753  0.00  0.00    +0.295 HD
ENDBRANCH  11  13
ENDBRANCH   1  11
TORSDOF 2
ENDMDL
MODEL 9
REMARK VINA RESULT:      -5.0      2.673      5.267
REMARK  Name = 
REMARK  2 active torsions:
REMARK  status: ('A' for Active; 'I' for Inactive)
REMARK    1  A    between atoms: O_1  and  C_2
REMARK    2  A    between atoms: C_2  and  CA_4
REMARK                            x       y       z     vdW  Elec       q    Type
REMARK                         _______ _______ _______ _____ _____    ______ ____
ROOT
ATOM      1  CA  UNL     1       9.069  -2.233  23.314  0.00  0.00    +0.148 A 
ATOM      2  C   UNL     1       7.943  -2.553  22.576  0.00  0.00    +0.035 A 
ATOM      3  C   UNL     1       7.060  -3.475  23.123  0.00  0.00    +0.012 A 
ATOM      4  C   UNL     1       7.328  -4.041  24.377  0.00  0.00    +0.000 A 
ATOM      5  C   UNL     1       6.466  -4.992  24.947  0.00  0.00    +0.010 A 
ATOM      6  C   UNL     1       6.752  -5.544  26.195  0.00  0.00    +0.001 A 
ATOM      7  C   UNL     1       7.893  -5.140  26.878  0.00  0.00    +0.002 A 
ATOM      8  C   UNL     1       8.750  -4.193  26.309  0.00  0.00    +0.028 A 
ATOM      9  C   UNL     1       8.498  -3.636  25.062  0.00  0.00    +0.072 A 
ATOM     10  N   UNL     1       9.365  -2.746  24.545  0.00  0.00    -0.240 NA
ENDROOT
BRANCH   1  11
ATOM     11  C   UNL     1      10.075  -1.278  22.766  0.00  0.00    +0.355 C 
ATOM     12  OXT UNL     1      10.581  -0.360  23.387  0.00  0.00    -0.243 OA
BRANCH  11  13
ATOM     13  O   UNL     1      10.340  -1.567  21.468  0.00  0.00    -0.476 OA
ATOM     14  H   UNL     1       9.835  -2.377  21.219  0.00  0.00    +0.295 HD
ENDBRANCH  11  13
ENDBRANCH   1  11
TORSDOF 2
ENDMDL
