MODEL 1
REMARK VINA RESULT:      -7.0      0.000      0.000
REMARK  Name = 
REMARK  11 active torsions:
REMARK  status: ('A' for Active; 'I' for Inactive)
REMARK    1  A    between atoms: C_1  and  C_2
REMARK    2  A    between atoms: N_4  and  C_5
REMARK    3  A    between atoms: C_8  and  O_10
REMARK    4  A    between atoms: O_10  and  P_11
REMARK    5  A    between atoms: P_11  and  O_12
REMARK    6  A    between atoms: P_11  and  O_13
REMARK    7  A    between atoms: C_15  and  C_17
REMARK    8  A    between atoms: C_17  and  O_18
REMARK    9  A    between atoms: O_18  and  P_19
REMARK   10  A    between atoms: P_19  and  O_20
REMARK   11  A    between atoms: P_19  and  O_21
REMARK                            x       y       z     vdW  Elec       q    Type
REMARK                         _______ _______ _______ _____ _____    ______ ____
ROOT
ATOM      1  C   UNL     1       7.250  -2.204  25.287  0.00  0.00    +0.226 C 
ATOM      2  O   UNL     1       7.821  -3.515  25.412  0.00  0.00    -0.348 OA
ATOM      3  C   UNL     1       6.945  -4.461  24.777  0.00  0.00    +0.176 C 
ATOM      4  C   UNL     1       5.646  -3.744  24.434  0.00  0.00    +0.165 C 
ATOM      5  C   UNL     1       6.137  -2.315  24.251  0.00  0.00    +0.089 C 
ENDROOT
BRANCH   1  14
ATOM      6  C   UNL     1       9.743   0.414  21.859  0.00  0.00    +0.051 C 
ATOM      7  C   UNL     1       9.456   0.012  23.269  0.00  0.00    +0.030 A 
ATOM      8  C   UNL     1      10.225   0.675  24.344  0.00  0.00    +0.257 A 
ATOM      9  O   UNL     1      11.064   1.539  24.107  0.00  0.00    -0.267 OA
ATOM     10  N   UNL     1       9.943   0.266  25.615  0.00  0.00    -0.275 N 
ATOM     11  H   UNL     1      10.451   0.715  26.365  0.00  0.00    +0.173 HD
ATOM     12  C   UNL     1       8.970  -0.628  25.984  0.00  0.00    +0.331 A 
ATOM     13  O   UNL     1       8.737  -0.845  27.168  0.00  0.00    -0.246 OA
ATOM     14  N   UNL     1       8.288  -1.236  24.939  0.00  0.00    -0.274 N 
ATOM     15  C   UNL     1       8.543  -0.902  23.622  0.00  0.00    +0.101 A 
ENDBRANCH   1  14
BRANCH   3  16
ATOM     16  C   UNL     1       6.736  -5.610  25.742  0.00  0.00    +0.206 C 
BRANCH  16  17
ATOM     17  O   UNL     1       5.635  -5.341  26.586  0.00  0.00    -0.284 OA
BRANCH  17  18
ATOM     18  P   UNL     1       6.023  -5.717  28.229  0.00  0.00    +0.472 P 
ATOM     19  O   UNL     1       6.369  -6.054  29.700  0.00  0.00    -0.228 OA
BRANCH  18  20
ATOM     20  O   UNL     1       7.546  -5.932  27.663  0.00  0.00    -0.303 OA
ATOM     21  H   UNL     1       7.541  -6.178  26.723  0.00  0.00    +0.222 HD
ENDBRANCH  18  20
BRANCH  18  22
ATOM     22  O   UNL     1       5.542  -7.230  27.834  0.00  0.00    -0.303 OA
ATOM     23  H   UNL     1       5.763  -7.346  26.890  0.00  0.00    +0.222 HD
ENDBRANCH  18  22
ENDBRANCH  17  18
ENDBRANCH  16  17
ENDBRANCH   3  16
BRANCH   4  24
ATOM     24  O   UNL     1       4.983  -4.285  23.269  0.00  0.00    -0.281 OA
BRANCH  24  25
ATOM     25  P   UNL     1       6.155  -5.036  22.242  0.00  0.00    +0.473 P 
ATOM     26  O   UNL     1       7.205  -5.708  21.323  0.00  0.00    -0.228 OA
BRANCH  25  27
ATOM     27  O   UNL     1       5.650  -3.957  21.121  0.00  0.00    -0.303 OA
ATOM     28  H   UNL     1       6.030  -4.256  20.274  0.00  0.00    +0.222 HD
ENDBRANCH  25  27
BRANCH  25  29
ATOM     29  O   UNL     1       4.939  -6.084  21.922  0.00  0.00    -0.303 OA
ATOM     30  H   UNL     1       4.618  -5.956  21.012  0.00  0.00    +0.222 HD
ENDBRANCH  25  29
ENDBRANCH  24  25
ENDBRANCH   4  24
TORSDOF 10
ENDMDL
MODEL 2
REMARK VINA RESULT:      -6.8      1.602      4.450
REMARK  Name = 
REMARK  11 active torsions:
REMARK  status: ('A' for Active; 'I' for Inactive)
REMARK    1  A    between atoms: C_1  and  C_2
REMARK    2  A    between atoms: N_4  and  C_5
REMARK    3  A    between atoms: C_8  and  O_10
REMARK    4  A    between atoms: O_10  and  P_11
REMARK    5  A    between atoms: P_11  and  O_12
REMARK    6  A    between atoms: P_11  and  O_13
REMARK    7  A    between atoms: C_15  and  C_17
REMARK    8  A    between atoms: C_17  and  O_18
REMARK    9  A    between atoms: O_18  and  P_19
REMARK   10  A    between atoms: P_19  and  O_20
REMARK   11  A    between atoms: P_19  and  O_21
REMARK                            x       y       z     vdW  Elec       q    Type
REMARK                         _______ _______ _______ _____ _____    ______ ____
ROOT
ATOM      1  C   UNL     1       8.381  -2.452  24.307  0.00  0.00    +0.226 C 
ATOM      2  O   UNL     1       7.010  -2.528  23.891  0.00  0.00    -0.348 OA
ATOM      3  C   UNL     1       6.263  -3.237  24.892  0.00  0.00    +0.176 C 
ATOM      4  C   UNL     1       7.254  -3.838  25.882  0.00  0.00    +0.165 C 
ATOM      5  C   UNL     1       8.409  -2.853  25.778  0.00  0.00    +0.089 C 
ENDROOT
BRANCH   1  14
ATOM      6  C   UNL     1       8.331   2.457  25.159  0.00  0.00    +0.051 C 
ATOM      7  C   UNL     1       8.867   1.233  24.488  0.00  0.00    +0.030 A 
ATOM      8  C   UNL     1      10.017   1.397  23.574  0.00  0.00    +0.257 A 
ATOM      9  O   UNL     1      10.537   2.491  23.372  0.00  0.00    -0.267 OA
ATOM     10  N   UNL     1      10.463   0.257  22.971  0.00  0.00    -0.275 N 
ATOM     11  H   UNL     1      11.256   0.348  22.350  0.00  0.00    +0.173 HD
ATOM     12  C   UNL     1      10.003  -1.015  23.197  0.00  0.00    +0.331 A 
ATOM     13  O   UNL     1      10.549  -1.979  22.671  0.00  0.00    -0.246 OA
ATOM     14  N   UNL     1       8.912  -1.115  24.048  0.00  0.00    -0.274 N 
ATOM     15  C   UNL     1       8.378  -0.000  24.669  0.00  0.00    +0.101 A 
ENDBRANCH   1  14
BRANCH   3  16
ATOM     16  C   UNL     1       5.436  -4.291  24.185  0.00  0.00    +0.206 C 
BRANCH  16  17
ATOM     17  O   UNL     1       6.273  -5.331  23.718  0.00  0.00    -0.284 OA
BRANCH  17  18
ATOM     18  P   UNL     1       6.047  -5.575  22.021  0.00  0.00    +0.472 P 
ATOM     19  O   UNL     1       5.844  -5.795  20.502  0.00  0.00    -0.228 OA
BRANCH  18  20
ATOM     20  O   UNL     1       7.404  -4.671  21.862  0.00  0.00    -0.303 OA
ATOM     21  H   UNL     1       7.381  -3.894  22.446  0.00  0.00    +0.222 HD
ENDBRANCH  18  20
BRANCH  18  22
ATOM     22  O   UNL     1       5.058  -4.276  22.122  0.00  0.00    -0.303 OA
ATOM     23  H   UNL     1       5.633  -3.492  22.040  0.00  0.00    +0.222 HD
ENDBRANCH  18  22
ENDBRANCH  17  18
ENDBRANCH  16  17
ENDBRANCH   3  16
BRANCH   4  24
ATOM     24  O   UNL     1       6.720  -3.971  27.218  0.00  0.00    -0.281 OA
BRANCH  24  25
ATOM     25  P   UNL     1       6.171  -5.595  27.454  0.00  0.00    +0.473 P 
ATOM     26  O   UNL     1       5.679  -7.048  27.664  0.00  0.00    -0.228 OA
BRANCH  25  27
ATOM     27  O   UNL     1       6.334  -5.264  29.047  0.00  0.00    -0.303 OA
ATOM     28  H   UNL     1       5.994  -6.048  29.518  0.00  0.00    +0.222 HD
ENDBRANCH  25  27
BRANCH  25  29
ATOM     29  O   UNL     1       7.755  -5.966  27.270  0.00  0.00    -0.303 OA
ATOM     30  H   UNL     1       7.967  -6.064  26.325  0.00  0.00    +0.222 HD
ENDBRANCH  25  29
ENDBRANCH  24  25
ENDBRANCH   4  24
TORSDOF 10
ENDMDL
MODEL 3
REMARK VINA RESULT:      -6.7      2.166      3.963
REMARK  Name = 
REMARK  11 active torsions:
REMARK  status: ('A' for Active; 'I' for Inactive)
REMARK    1  A    between atoms: C_1  and  C_2
REMARK    2  A    between atoms: N_4  and  C_5
REMARK    3  A    between atoms: C_8  and  O_10
REMARK    4  A    between atoms: O_10  and  P_11
REMARK    5  A    between atoms: P_11  and  O_12
REMARK    6  A    between atoms: P_11  and  O_13
REMARK    7  A    between atoms: C_15  and  C_17
REMARK    8  A    between atoms: C_17  and  O_18
REMARK    9  A    between atoms: O_18  and  P_19
REMARK   10  A    between atoms: P_19  and  O_20
REMARK   11  A    between atoms: P_19  and  O_21
REMARK                            x       y       z     vdW  Elec       q    Type
REMARK                         _______ _______ _______ _____ _____    ______ ____
ROOT
ATOM      1  C   UNL     1       7.919  -3.042  23.304  0.00  0.00    +0.226 C 
ATOM      2  O   UNL     1       6.695  -3.340  22.617  0.00  0.00    -0.348 OA
ATOM      3  C   UNL     1       5.772  -3.923  23.551  0.00  0.00    +0.176 C 
ATOM      4  C   UNL     1       6.529  -4.218  24.840  0.00  0.00    +0.165 C 
ATOM      5  C   UNL     1       7.616  -3.154  24.795  0.00  0.00    +0.089 C 
ENDROOT
BRANCH   1  14
ATOM      6  C   UNL     1       7.093   1.755  22.242  0.00  0.00    +0.051 C 
ATOM      7  C   UNL     1       7.987   0.568  22.405  0.00  0.00    +0.030 A 
ATOM      8  C   UNL     1       9.438   0.766  22.200  0.00  0.00    +0.257 A 
ATOM      9  O   UNL     1       9.912   1.863  21.918  0.00  0.00    -0.267 OA
ATOM     10  N   UNL     1      10.215  -0.347  22.343  0.00  0.00    -0.275 N 
ATOM     11  H   UNL     1      11.211  -0.229  22.216  0.00  0.00    +0.173 HD
ATOM     12  C   UNL     1       9.788  -1.590  22.735  0.00  0.00    +0.331 A 
ATOM     13  O   UNL     1      10.595  -2.494  22.929  0.00  0.00    -0.246 OA
ATOM     14  N   UNL     1       8.418  -1.730  22.899  0.00  0.00    -0.274 N 
ATOM     15  C   UNL     1       7.560  -0.658  22.735  0.00  0.00    +0.101 A 
ENDBRANCH   1  14
BRANCH   3  16
ATOM     16  C   UNL     1       5.203  -5.172  22.912  0.00  0.00    +0.206 C 
BRANCH  16  17
ATOM     17  O   UNL     1       3.795  -5.188  23.046  0.00  0.00    -0.284 OA
BRANCH  17  18
ATOM     18  P   UNL     1       3.265  -6.699  23.701  0.00  0.00    +0.472 P 
ATOM     19  O   UNL     1       2.790  -8.051  24.286  0.00  0.00    -0.228 OA
BRANCH  18  20
ATOM     20  O   UNL     1       3.448  -5.963  25.153  0.00  0.00    -0.303 OA
ATOM     21  H   UNL     1       2.729  -6.199  25.763  0.00  0.00    +0.222 HD
ENDBRANCH  18  20
BRANCH  18  22
ATOM     22  O   UNL     1       4.841  -7.123  23.591  0.00  0.00    -0.303 OA
ATOM     23  H   UNL     1       4.853  -8.022  23.210  0.00  0.00    +0.222 HD
ENDBRANCH  18  22
ENDBRANCH  17  18
ENDBRANCH  16  17
ENDBRANCH   3  16
BRANCH   4  24
ATOM     24  O   UNL     1       5.698  -4.153  26.021  0.00  0.00    -0.281 OA
BRANCH  24  25
ATOM     25  P   UNL     1       6.378  -5.160  27.253  0.00  0.00    +0.473 P 
ATOM     26  O   UNL     1       6.985  -6.060  28.356  0.00  0.00    -0.228 OA
BRANCH  25  27
ATOM     27  O   UNL     1       6.110  -6.381  26.198  0.00  0.00    -0.303 OA
ATOM     28  H   UNL     1       6.955  -6.515  25.727  0.00  0.00    +0.222 HD
ENDBRANCH  25  27
BRANCH  25  29
ATOM     29  O   UNL     1       4.843  -5.188  27.823  0.00  0.00    -0.303 OA
ATOM     30  H   UNL     1       4.615  -4.324  28.211  0.00  0.00    +0.222 HD
ENDBRANCH  25  29
ENDBRANCH  24  25
ENDBRANCH   4  24
TORSDOF 10
ENDMDL
MODEL 4
REMARK VINA RESULT:      -6.4      2.353      4.623
REMARK  Name = 
REMARK  11 active torsions:
REMARK  status: ('A' for Active; 'I' for Inactive)
REMARK    1  A    between atoms: C_1  and  C_2
REMARK    2  A    between atoms: N_4  and  C_5
REMARK    3  A    between atoms: C_8  and  O_10
REMARK    4  A    between atoms: O_10  and  P_11
REMARK    5  A    between atoms: P_11  and  O_12
REMARK    6  A    between atoms: P_11  and  O_13
REMARK    7  A    between atoms: C_15  and  C_17
REMARK    8  A    between atoms: C_17  and  O_18
REMARK    9  A    between atoms: O_18  and  P_19
REMARK   10  A    between atoms: P_19  and  O_20
REMARK   11  A    between atoms: P_19  and  O_21
REMARK                            x       y       z     vdW  Elec       q    Type
REMARK                         _______ _______ _______ _____ _____    ______ ____
ROOT
ATOM      1  C   UNL     1       8.534  -0.248  23.590  0.00  0.00    +0.226 C 
ATOM      2  O   UNL     1       7.278  -0.482  22.937  0.00  0.00    -0.348 OA
ATOM      3  C   UNL     1       6.581  -1.524  23.639  0.00  0.00    +0.176 C 
ATOM      4  C   UNL     1       7.543  -2.137  24.649  0.00  0.00    +0.165 C 
ATOM      5  C   UNL     1       8.459  -0.957  24.939  0.00  0.00    +0.089 C 
ENDROOT
BRANCH   1  14
ATOM      6  C   UNL     1       7.943   4.092  25.965  0.00  0.00    +0.051 C 
ATOM      7  C   UNL     1       8.494   3.250  24.860  0.00  0.00    +0.030 A 
ATOM      8  C   UNL     1       9.377   3.904  23.871  0.00  0.00    +0.257 A 
ATOM      9  O   UNL     1       9.671   5.094  23.947  0.00  0.00    -0.267 OA
ATOM     10  N   UNL     1       9.843   3.102  22.869  0.00  0.00    -0.275 N 
ATOM     11  H   UNL     1      10.457   3.530  22.189  0.00  0.00    +0.173 HD
ATOM     12  C   UNL     1       9.638   1.752  22.748  0.00  0.00    +0.331 A 
ATOM     13  O   UNL     1      10.193   1.113  21.860  0.00  0.00    -0.246 OA
ATOM     14  N   UNL     1       8.790   1.188  23.690  0.00  0.00    -0.274 N 
ATOM     15  C   UNL     1       8.247   1.942  24.714  0.00  0.00    +0.101 A 
ENDBRANCH   1  14
BRANCH   3  16
ATOM     16  C   UNL     1       6.102  -2.527  22.610  0.00  0.00    +0.206 C 
BRANCH  16  17
ATOM     17  O   UNL     1       7.076  -3.534  22.425  0.00  0.00    -0.284 OA
BRANCH  17  18
ATOM     18  P   UNL     1       6.426  -4.844  21.501  0.00  0.00    +0.472 P 
ATOM     19  O   UNL     1       5.845  -6.017  20.673  0.00  0.00    -0.228 OA
BRANCH  18  20
ATOM     20  O   UNL     1       5.051  -4.561  22.346  0.00  0.00    -0.303 OA
ATOM     21  H   UNL     1       4.523  -3.855  21.936  0.00  0.00    +0.222 HD
ENDBRANCH  18  20
BRANCH  18  22
ATOM     22  O   UNL     1       7.082  -5.788  22.665  0.00  0.00    -0.303 OA
ATOM     23  H   UNL     1       6.668  -5.508  23.504  0.00  0.00    +0.222 HD
ENDBRANCH  18  22
ENDBRANCH  17  18
ENDBRANCH  16  17
ENDBRANCH   3  16
BRANCH   4  24
ATOM     24  O   UNL     1       6.883  -2.664  25.822  0.00  0.00    -0.281 OA
BRANCH  24  25
ATOM     25  P   UNL     1       7.443  -4.274  26.117  0.00  0.00    +0.473 P 
ATOM     26  O   UNL     1       7.944  -5.715  26.381  0.00  0.00    -0.228 OA
BRANCH  25  27
ATOM     27  O   UNL     1       8.391  -4.028  24.807  0.00  0.00    -0.303 OA
ATOM     28  H   UNL     1       8.759  -4.901  24.578  0.00  0.00    +0.222 HD
ENDBRANCH  25  27
BRANCH  25  29
ATOM     29  O   UNL     1       6.143  -4.697  25.217  0.00  0.00    -0.303 OA
ATOM     30  H   UNL     1       5.322  -4.444  25.676  0.00  0.00    +0.222 HD
ENDBRANCH  25  29
ENDBRANCH  24  25
ENDBRANCH   4  24
TORSDOF 10
ENDMDL
MODEL 5
REMARK VINA RESULT:      -6.4      2.164      2.818
REMARK  Name = 
REMARK  11 active torsions:
REMARK  status: ('A' for Active; 'I' for Inactive)
REMARK    1  A    between atoms: C_1  and  C_2
REMARK    2  A    between atoms: N_4  and  C_5
REMARK    3  A    between atoms: C_8  and  O_10
REMARK    4  A    between atoms: O_10  and  P_11
REMARK    5  A    between atoms: P_11  and  O_12
REMARK    6  A    between atoms: P_11  and  O_13
REMARK    7  A    between atoms: C_15  and  C_17
REMARK    8  A    between atoms: C_17  and  O_18
REMARK    9  A    between atoms: O_18  and  P_19
REMARK   10  A    between atoms: P_19  and  O_20
REMARK   11  A    between atoms: P_19  and  O_21
REMARK                            x       y       z     vdW  Elec       q    Type
REMARK                         _______ _______ _______ _____ _____    ______ ____
ROOT
ATOM      1  C   UNL     1       6.416  -1.479  25.327  0.00  0.00    +0.226 C 
ATOM      2  O   UNL     1       6.718  -1.965  26.643  0.00  0.00    -0.348 OA
ATOM      3  C   UNL     1       6.823  -3.397  26.594  0.00  0.00    +0.176 C 
ATOM      4  C   UNL     1       6.337  -3.858  25.225  0.00  0.00    +0.165 C 
ATOM      5  C   UNL     1       6.663  -2.641  24.370  0.00  0.00    +0.089 C 
ENDROOT
BRANCH   1  14
ATOM      6  C   UNL     1      10.850   0.688  24.645  0.00  0.00    +0.051 C 
ATOM      7  C   UNL     1       9.356   0.714  24.703  0.00  0.00    +0.030 A 
ATOM      8  C   UNL     1       8.677   1.990  24.391  0.00  0.00    +0.257 A 
ATOM      9  O   UNL     1       9.301   3.000  24.079  0.00  0.00    -0.267 OA
ATOM     10  N   UNL     1       7.315   1.973  24.472  0.00  0.00    -0.275 N 
ATOM     11  H   UNL     1       6.832   2.834  24.252  0.00  0.00    +0.173 HD
ATOM     12  C   UNL     1       6.530   0.878  24.730  0.00  0.00    +0.331 A 
ATOM     13  O   UNL     1       5.308   0.960  24.678  0.00  0.00    -0.246 OA
ATOM     14  N   UNL     1       7.214  -0.291  25.034  0.00  0.00    -0.274 N 
ATOM     15  C   UNL     1       8.595  -0.345  25.010  0.00  0.00    +0.101 A 
ENDBRANCH   1  14
BRANCH   3  16
ATOM     16  C   UNL     1       5.986  -3.956  27.726  0.00  0.00    +0.206 C 
BRANCH  16  17
ATOM     17  O   UNL     1       6.617  -5.094  28.279  0.00  0.00    -0.284 OA
BRANCH  17  18
ATOM     18  P   UNL     1       5.452  -6.325  28.624  0.00  0.00    +0.472 P 
ATOM     19  O   UNL     1       4.408  -7.427  28.933  0.00  0.00    -0.228 OA
BRANCH  18  20
ATOM     20  O   UNL     1       6.732  -7.161  29.214  0.00  0.00    -0.303 OA
ATOM     21  H   UNL     1       6.968  -7.903  28.633  0.00  0.00    +0.222 HD
ENDBRANCH  18  20
BRANCH  18  22
ATOM     22  O   UNL     1       5.716  -6.792  27.079  0.00  0.00    -0.303 OA
ATOM     23  H   UNL     1       6.683  -6.763  26.950  0.00  0.00    +0.222 HD
ENDBRANCH  18  22
ENDBRANCH  17  18
ENDBRANCH  16  17
ENDBRANCH   3  16
BRANCH   4  24
ATOM     24  O   UNL     1       6.971  -5.075  24.771  0.00  0.00    -0.281 OA
BRANCH  24  25
ATOM     25  P   UNL     1       8.686  -4.922  24.941  0.00  0.00    +0.473 P 
ATOM     26  O   UNL     1      10.221  -4.785  25.094  0.00  0.00    -0.228 OA
BRANCH  25  27
ATOM     27  O   UNL     1       8.757  -5.991  23.706  0.00  0.00    -0.303 OA
ATOM     28  H   UNL     1       9.067  -5.484  22.932  0.00  0.00    +0.222 HD
ENDBRANCH  25  27
BRANCH  25  29
ATOM     29  O   UNL     1       8.497  -6.093  26.071  0.00  0.00    -0.303 OA
ATOM     30  H   UNL     1       8.590  -6.970  25.661  0.00  0.00    +0.222 HD
ENDBRANCH  25  29
ENDBRANCH  24  25
ENDBRANCH   4  24
TORSDOF 10
ENDMDL
MODEL 6
REMARK VINA RESULT:      -6.4      3.516      7.479
REMARK  Name = 
REMARK  11 active torsions:
REMARK  status: ('A' for Active; 'I' for Inactive)
REMARK    1  A    between atoms: C_1  and  C_2
REMARK    2  A    between atoms: N_4  and  C_5
REMARK    3  A    between atoms: C_8  and  O_10
REMARK    4  A    between atoms: O_10  and  P_11
REMARK    5  A    between atoms: P_11  and  O_12
REMARK    6  A    between atoms: P_11  and  O_13
REMARK    7  A    between atoms: C_15  and  C_17
REMARK    8  A    between atoms: C_17  and  O_18
REMARK    9  A    between atoms: O_18  and  P_19
REMARK   10  A    between atoms: P_19  and  O_20
REMARK   11  A    between atoms: P_19  and  O_21
REMARK                            x       y       z     vdW  Elec       q    Type
REMARK                         _______ _______ _______ _____ _____    ______ ____
ROOT
ATOM      1  C   UNL     1       8.769  -2.152  24.510  0.00  0.00    +0.226 C 
ATOM      2  O   UNL     1       9.537  -1.153  25.197  0.00  0.00    -0.348 OA
ATOM      3  C   UNL     1       9.117   0.144  24.744  0.00  0.00    +0.176 C 
ATOM      4  C   UNL     1       8.198  -0.051  23.544  0.00  0.00    +0.165 C 
ATOM      5  C   UNL     1       7.607  -1.421  23.844  0.00  0.00    +0.089 C 
ENDROOT
BRANCH   1  14
ATOM      6  C   UNL     1       5.512  -3.929  27.836  0.00  0.00    +0.051 C 
ATOM      7  C   UNL     1       6.766  -4.023  27.026  0.00  0.00    +0.030 A 
ATOM      8  C   UNL     1       7.572  -5.257  27.147  0.00  0.00    +0.257 A 
ATOM      9  O   UNL     1       7.232  -6.189  27.871  0.00  0.00    -0.267 OA
ATOM     10  N   UNL     1       8.716  -5.293  26.403  0.00  0.00    -0.275 N 
ATOM     11  H   UNL     1       9.275  -6.133  26.465  0.00  0.00    +0.173 HD
ATOM     12  C   UNL     1       9.133  -4.342  25.508  0.00  0.00    +0.331 A 
ATOM     13  O   UNL     1      10.130  -4.529  24.818  0.00  0.00    -0.246 OA
ATOM     14  N   UNL     1       8.353  -3.197  25.443  0.00  0.00    -0.274 N 
ATOM     15  C   UNL     1       7.199  -3.068  26.193  0.00  0.00    +0.101 A 
ENDBRANCH   1  14
BRANCH   3  16
ATOM     16  C   UNL     1      10.363   0.933  24.398  0.00  0.00    +0.206 C 
BRANCH  16  17
ATOM     17  O   UNL     1      10.142   1.704  23.234  0.00  0.00    -0.284 OA
BRANCH  17  18
ATOM     18  P   UNL     1       9.978   3.378  23.637  0.00  0.00    +0.472 P 
ATOM     19  O   UNL     1       9.832   4.877  23.999  0.00  0.00    -0.228 OA
BRANCH  18  20
ATOM     20  O   UNL     1       8.802   3.384  22.495  0.00  0.00    -0.303 OA
ATOM     21  H   UNL     1       8.226   2.605  22.578  0.00  0.00    +0.222 HD
ENDBRANCH  18  20
BRANCH  18  22
ATOM     22  O   UNL     1      11.186   3.598  22.556  0.00  0.00    -0.303 OA
ATOM     23  H   UNL     1      11.909   4.036  23.044  0.00  0.00    +0.222 HD
ENDBRANCH  18  22
ENDBRANCH  17  18
ENDBRANCH  16  17
ENDBRANCH   3  16
BRANCH   4  24
ATOM     24  O   UNL     1       7.207   0.993  23.406  0.00  0.00    -0.281 OA
BRANCH  24  25
ATOM     25  P   UNL     1       6.575   1.391  24.967  0.00  0.00    +0.473 P 
ATOM     26  O   UNL     1       6.011   1.747  26.364  0.00  0.00    -0.228 OA
BRANCH  25  27
ATOM     27  O   UNL     1       5.129   0.973  24.327  0.00  0.00    -0.303 OA
ATOM     28  H   UNL     1       4.598   1.791  24.315  0.00  0.00    +0.222 HD
ENDBRANCH  25  27
BRANCH  25  29
ATOM     29  O   UNL     1       6.516   2.909  24.356  0.00  0.00    -0.303 OA
ATOM     30  H   UNL     1       7.349   3.117  23.897  0.00  0.00    +0.222 HD
ENDBRANCH  25  29
ENDBRANCH  24  25
ENDBRANCH   4  24
TORSDOF 10
ENDMDL
MODEL 7
REMARK VINA RESULT:      -6.3      2.450      3.809
REMARK  Name = 
REMARK  11 active torsions:
REMARK  status: ('A' for Active; 'I' for Inactive)
REMARK    1  A    between atoms: C_1  and  C_2
REMARK    2  A    between atoms: N_4  and  C_5
REMARK    3  A    between atoms: C_8  and  O_10
REMARK    4  A    between atoms: O_10  and  P_11
REMARK    5  A    between atoms: P_11  and  O_12
REMARK    6  A    between atoms: P_11  and  O_13
REMARK    7  A    between atoms: C_15  and  C_17
REMARK    8  A    between atoms: C_17  and  O_18
REMARK    9  A    between atoms: O_18  and  P_19
REMARK   10  A    between atoms: P_19  and  O_20
REMARK   11  A    between atoms: P_19  and  O_21
REMARK                            x       y       z     vdW  Elec       q    Type
REMARK                         _______ _______ _______ _____ _____    ______ ____
ROOT
ATOM      1  C   UNL     1       7.726  -1.950  22.773  0.00  0.00    +0.226 C 
ATOM      2  O   UNL     1       6.551  -2.393  23.468  0.00  0.00    -0.348 OA
ATOM      3  C   UNL     1       6.763  -3.741  23.918  0.00  0.00    +0.176 C 
ATOM      4  C   UNL     1       8.047  -4.255  23.279  0.00  0.00    +0.165 C 
ATOM      5  C   UNL     1       8.824  -2.959  23.092  0.00  0.00    +0.089 C 
ENDROOT
BRANCH   1  14
ATOM      6  C   UNL     1       7.490   1.784  26.063  0.00  0.00    +0.051 C 
ATOM      7  C   UNL     1       7.927   1.187  24.765  0.00  0.00    +0.030 A 
ATOM      8  C   UNL     1       8.772   2.014  23.877  0.00  0.00    +0.257 A 
ATOM      9  O   UNL     1       9.124   3.149  24.185  0.00  0.00    -0.267 OA
ATOM     10  N   UNL     1       9.135   1.436  22.695  0.00  0.00    -0.275 N 
ATOM     11  H   UNL     1       9.721   1.983  22.079  0.00  0.00    +0.173 HD
ATOM     12  C   UNL     1       8.862   0.151  22.301  0.00  0.00    +0.331 A 
ATOM     13  O   UNL     1       9.327  -0.295  21.258  0.00  0.00    -0.246 OA
ATOM     14  N   UNL     1       8.052  -0.579  23.160  0.00  0.00    -0.274 N 
ATOM     15  C   UNL     1       7.612  -0.050  24.359  0.00  0.00    +0.101 A 
ENDBRANCH   1  14
BRANCH   3  16
ATOM     16  C   UNL     1       5.549  -4.553  23.518  0.00  0.00    +0.206 C 
BRANCH  16  17
ATOM     17  O   UNL     1       5.649  -5.864  24.039  0.00  0.00    -0.284 OA
BRANCH  17  18
ATOM     18  P   UNL     1       4.269  -6.235  25.014  0.00  0.00    +0.472 P 
ATOM     19  O   UNL     1       3.033  -6.567  25.885  0.00  0.00    -0.228 OA
BRANCH  18  20
ATOM     20  O   UNL     1       5.370  -6.770  26.103  0.00  0.00    -0.303 OA
ATOM     21  H   UNL     1       4.940  -7.062  26.925  0.00  0.00    +0.222 HD
ENDBRANCH  18  20
BRANCH  18  22
ATOM     22  O   UNL     1       4.248  -7.640  24.176  0.00  0.00    -0.303 OA
ATOM     23  H   UNL     1       4.321  -8.352  24.840  0.00  0.00    +0.222 HD
ENDBRANCH  18  22
ENDBRANCH  17  18
ENDBRANCH  16  17
ENDBRANCH   3  16
BRANCH   4  24
ATOM     24  O   UNL     1       8.737  -5.236  24.086  0.00  0.00    -0.281 OA
BRANCH  24  25
ATOM     25  P   UNL     1       8.920  -4.624  25.694  0.00  0.00    +0.473 P 
ATOM     26  O   UNL     1       9.083  -4.077  27.133  0.00  0.00    -0.228 OA
BRANCH  25  27
ATOM     27  O   UNL     1      10.358  -5.404  25.670  0.00  0.00    -0.303 OA
ATOM     28  H   UNL     1      10.157  -6.323  25.411  0.00  0.00    +0.222 HD
ENDBRANCH  25  27
BRANCH  25  29
ATOM     29  O   UNL     1       8.087  -5.972  26.108  0.00  0.00    -0.303 OA
ATOM     30  H   UNL     1       8.700  -6.718  26.234  0.00  0.00    +0.222 HD
ENDBRANCH  25  29
ENDBRANCH  24  25
ENDBRANCH   4  24
TORSDOF 10
ENDMDL
MODEL 8
REMARK VINA RESULT:      -6.2      1.794      4.732
REMARK  Name = 
REMARK  11 active torsions:
REMARK  status: ('A' for Active; 'I' for Inactive)
REMARK    1  A    between atoms: C_1  and  C_2
REMARK    2  A    between atoms: N_4  and  C_5
REMARK    3  A    between atoms: C_8  and  O_10
REMARK    4  A    between atoms: O_10  and  P_11
REMARK    5  A    between atoms: P_11  and  O_12
REMARK    6  A    between atoms: P_11  and  O_13
REMARK    7  A    between atoms: C_15  and  C_17
REMARK    8  A    between atoms: C_17  and  O_18
REMARK    9  A    between atoms: O_18  and  P_19
REMARK   10  A    between atoms: P_19  and  O_20
REMARK   11  A    between atoms: P_19  and  O_21
REMARK                            x       y       z     vdW  Elec       q    Type
REMARK                         _______ _______ _______ _____ _____    ______ ____
ROOT
ATOM      1  C   UNL     1       8.096  -3.919  25.276  0.00  0.00    +0.226 C 
ATOM      2  O   UNL     1       6.675  -4.085  25.176  0.00  0.00    -0.348 OA
ATOM      3  C   UNL     1       6.250  -5.031  26.171  0.00  0.00    +0.176 C 
ATOM      4  C   UNL     1       7.495  -5.666  26.779  0.00  0.00    +0.165 C 
ATOM      5  C   UNL     1       8.514  -4.549  26.601  0.00  0.00    +0.089 C 
ENDROOT
BRANCH   1  14
ATOM      6  C   UNL     1       7.359   0.839  26.558  0.00  0.00    +0.051 C 
ATOM      7  C   UNL     1       8.073  -0.235  25.802  0.00  0.00    +0.030 A 
ATOM      8  C   UNL     1       9.213   0.165  24.950  0.00  0.00    +0.257 A 
ATOM      9  O   UNL     1       9.585   1.332  24.865  0.00  0.00    -0.267 OA
ATOM     10  N   UNL     1       9.824  -0.845  24.265  0.00  0.00    -0.275 N 
ATOM     11  H   UNL     1      10.613  -0.592  23.684  0.00  0.00    +0.173 HD
ATOM     12  C   UNL     1       9.535  -2.182  24.359  0.00  0.00    +0.331 A 
ATOM     13  O   UNL     1      10.221  -3.012  23.771  0.00  0.00    -0.246 OA
ATOM     14  N   UNL     1       8.447  -2.505  25.157  0.00  0.00    -0.274 N 
ATOM     15  C   UNL     1       7.752  -1.534  25.854  0.00  0.00    +0.101 A 
ENDBRANCH   1  14
BRANCH   3  16
ATOM     16  C   UNL     1       5.356  -6.044  25.487  0.00  0.00    +0.206 C 
BRANCH  16  17
ATOM     17  O   UNL     1       5.452  -5.906  24.083  0.00  0.00    -0.284 OA
BRANCH  17  18
ATOM     18  P   UNL     1       3.885  -5.678  23.388  0.00  0.00    +0.472 P 
ATOM     19  O   UNL     1       2.482  -5.474  22.766  0.00  0.00    -0.228 OA
BRANCH  18  20
ATOM     20  O   UNL     1       4.609  -6.114  21.984  0.00  0.00    -0.303 OA
ATOM     21  H   UNL     1       5.508  -5.747  21.921  0.00  0.00    +0.222 HD
ENDBRANCH  18  20
BRANCH  18  22
ATOM     22  O   UNL     1       4.337  -4.110  23.265  0.00  0.00    -0.303 OA
ATOM     23  H   UNL     1       3.650  -3.673  22.728  0.00  0.00    +0.222 HD
ENDBRANCH  18  22
ENDBRANCH  17  18
ENDBRANCH  16  17
ENDBRANCH   3  16
BRANCH   4  24
ATOM     24  O   UNL     1       7.316  -6.077  28.153  0.00  0.00    -0.281 OA
BRANCH  24  25
ATOM     25  P   UNL     1       5.661  -5.854  28.604  0.00  0.00    +0.473 P 
ATOM     26  O   UNL     1       4.179  -5.655  29.008  0.00  0.00    -0.228 OA
BRANCH  25  27
ATOM     27  O   UNL     1       6.243  -5.750  30.129  0.00  0.00    -0.303 OA
ATOM     28  H   UNL     1       5.484  -5.494  30.687  0.00  0.00    +0.222 HD
ENDBRANCH  25  27
BRANCH  25  29
ATOM     29  O   UNL     1       5.633  -7.491  28.623  0.00  0.00    -0.303 OA
ATOM     30  H   UNL     1       6.359  -7.830  29.177  0.00  0.00    +0.222 HD
ENDBRANCH  25  29
ENDBRANCH  24  25
ENDBRANCH   4  24
TORSDOF 10
ENDMDL
MODEL 9
REMARK VINA RESULT:      -6.1      2.432      4.358
REMARK  Name = 
REMARK  11 active torsions:
REMARK  status: ('A' for Active; 'I' for Inactive)
REMARK    1  A    between atoms: C_1  and  C_2
REMARK    2  A    between atoms: N_4  and  C_5
REMARK    3  A    between atoms: C_8  and  O_10
REMARK    4  A    between atoms: O_10  and  P_11
REMARK    5  A    between atoms: P_11  and  O_12
REMARK    6  A    between atoms: P_11  and  O_13
REMARK    7  A    between atoms: C_15  and  C_17
REMARK    8  A    between atoms: C_17  and  O_18
REMARK    9  A    between atoms: O_18  and  P_19
REMARK   10  A    between atoms: P_19  and  O_20
REMARK   11  A    between atoms: P_19  and  O_21
REMARK                            x       y       z     vdW  Elec       q    Type
REMARK                         _______ _______ _______ _____ _____    ______ ____
ROOT
ATOM      1  C   UNL     1       7.851  -1.192  23.426  0.00  0.00    +0.226 C 
ATOM      2  O   UNL     1       6.594  -1.798  23.088  0.00  0.00    -0.348 OA
ATOM      3  C   UNL     1       6.768  -3.223  23.040  0.00  0.00    +0.176 C 
ATOM      4  C   UNL     1       8.260  -3.519  23.127  0.00  0.00    +0.165 C 
ATOM      5  C   UNL     1       8.754  -2.318  23.919  0.00  0.00    +0.089 C 
ENDROOT
BRANCH   1  14
ATOM      6  C   UNL     1       5.220   0.813  27.152  0.00  0.00    +0.051 C 
ATOM      7  C   UNL     1       6.368   0.803  26.195  0.00  0.00    +0.030 A 
ATOM      8  C   UNL     1       7.358   1.897  26.298  0.00  0.00    +0.257 A 
ATOM      9  O   UNL     1       7.265   2.783  27.142  0.00  0.00    -0.267 OA
ATOM     10  N   UNL     1       8.381   1.858  25.394  0.00  0.00    -0.275 N 
ATOM     11  H   UNL     1       9.073   2.592  25.455  0.00  0.00    +0.173 HD
ATOM     12  C   UNL     1       8.613   0.869  24.472  0.00  0.00    +0.331 A 
ATOM     13  O   UNL     1       9.624   0.889  23.778  0.00  0.00    -0.246 OA
ATOM     14  N   UNL     1       7.648  -0.125  24.404  0.00  0.00    -0.274 N 
ATOM     15  C   UNL     1       6.562  -0.135  25.260  0.00  0.00    +0.101 A 
ENDBRANCH   1  14
BRANCH   3  16
ATOM     16  C   UNL     1       6.153  -3.715  21.746  0.00  0.00    +0.206 C 
BRANCH  16  17
ATOM     17  O   UNL     1       4.854  -4.220  21.987  0.00  0.00    -0.284 OA
BRANCH  17  18
ATOM     18  P   UNL     1       4.904  -5.482  23.169  0.00  0.00    +0.472 P 
ATOM     19  O   UNL     1       4.948  -6.611  24.228  0.00  0.00    -0.228 OA
BRANCH  18  20
ATOM     20  O   UNL     1       5.505  -6.395  21.949  0.00  0.00    -0.303 OA
ATOM     21  H   UNL     1       5.420  -5.943  21.093  0.00  0.00    +0.222 HD
ENDBRANCH  18  20
BRANCH  18  22
ATOM     22  O   UNL     1       3.345  -5.734  22.740  0.00  0.00    -0.303 OA
ATOM     23  H   UNL     1       2.846  -4.965  23.075  0.00  0.00    +0.222 HD
ENDBRANCH  18  22
ENDBRANCH  17  18
ENDBRANCH  16  17
ENDBRANCH   3  16
BRANCH   4  24
ATOM     24  O   UNL     1       8.557  -4.789  23.749  0.00  0.00    -0.281 OA
BRANCH  24  25
ATOM     25  P   UNL     1       8.845  -4.544  25.438  0.00  0.00    +0.473 P 
ATOM     26  O   UNL     1       9.102  -4.324  26.949  0.00  0.00    -0.228 OA
BRANCH  25  27
ATOM     27  O   UNL     1       9.904  -5.782  25.288  0.00  0.00    -0.303 OA
ATOM     28  H   UNL     1      10.510  -5.527  24.567  0.00  0.00    +0.222 HD
ENDBRANCH  25  27
BRANCH  25  29
ATOM     29  O   UNL     1       7.558  -5.539  25.618  0.00  0.00    -0.303 OA
ATOM     30  H   UNL     1       6.807  -5.049  25.997  0.00  0.00    +0.222 HD
ENDBRANCH  25  29
ENDBRANCH  24  25
ENDBRANCH   4  24
TORSDOF 10
ENDMDL
