MODEL 1
REMARK VINA RESULT:      -5.7      0.000      0.000
REMARK  Name = 
REMARK  11 active torsions:
REMARK  status: ('A' for Active; 'I' for Inactive)
REMARK    1  A    between atoms: O_1  and  C_2
REMARK    2  A    between atoms: C_4  and  O_6
REMARK    3  A    between atoms: C_7  and  C_9
REMARK    4  A    between atoms: C_9  and  O_10
REMARK    5  A    between atoms: O_10  and  P_11
REMARK    6  A    between atoms: P_11  and  O_12
REMARK    7  A    between atoms: P_11  and  O_13
REMARK    8  A    between atoms: C_16  and  O_18
REMARK    9  A    between atoms: O_18  and  P_19
REMARK   10  A    between atoms: P_19  and  O_20
REMARK   11  A    between atoms: C_23  and  O_25
REMARK                            x       y       z     vdW  Elec       q    Type
REMARK                         _______ _______ _______ _____ _____    ______ ____
ROOT
ATOM      1  C   UNL     1       5.297  -5.469  22.234  0.00  0.00    +0.179 C 
ATOM      2  C   UNL     1       5.687  -6.121  23.572  0.00  0.00    +0.202 C 
ATOM      3  C   UNL     1       5.728  -5.049  24.686  0.00  0.00    +0.289 C 
ATOM      4  O   UNL     1       6.601  -3.976  24.292  0.00  0.00    -0.340 OA
ATOM      5  C   UNL     1       6.124  -3.284  23.119  0.00  0.00    +0.179 C 
ATOM      6  C   UNL     1       6.153  -4.242  21.915  0.00  0.00    +0.177 C 
ENDROOT
BRANCH   1   7
ATOM      7  O   UNL     1       5.429  -6.404  21.144  0.00  0.00    -0.386 OA
ATOM      8  H   UNL     1       5.615  -7.261  21.582  0.00  0.00    +0.210 HD
ENDBRANCH   1   7
BRANCH   2   9
ATOM      9  O   UNL     1       4.722  -7.157  23.833  0.00  0.00    -0.384 OA
ATOM     10  H   UNL     1       4.338  -7.378  22.958  0.00  0.00    +0.210 HD
ENDBRANCH   2   9
BRANCH   6  11
ATOM     11  O   UNL     1       5.667  -3.642  20.703  0.00  0.00    -0.386 OA
ATOM     12  H   UNL     1       4.892  -3.113  20.985  0.00  0.00    +0.210 HD
ENDBRANCH   6  11
BRANCH   3  13
ATOM     13  O   UNL     1       6.121  -5.632  25.945  0.00  0.00    -0.295 OA
BRANCH  13  14
ATOM     14  P   UNL     1       7.633  -4.973  26.466  0.00  0.00    +0.212 P 
ATOM     15  O   UNL     1       8.987  -4.383  26.932  0.00  0.00    -0.517 OA
ATOM     16  O   UNL     1       7.503  -5.947  27.646  0.00  0.00    -0.437 OA
BRANCH  14  17
ATOM     17  O   UNL     1       6.902  -3.595  26.949  0.00  0.00    -0.344 OA
ATOM     18  H   UNL     1       5.983  -3.932  26.864  0.00  0.00    +0.218 HD
ENDBRANCH  14  17
ENDBRANCH  13  14
ENDBRANCH   3  13
BRANCH   5  19
ATOM     19  C   UNL     1       7.000  -2.045  22.883  0.00  0.00    +0.206 C 
BRANCH  19  20
ATOM     20  O   UNL     1       8.358  -2.416  22.711  0.00  0.00    -0.284 OA
BRANCH  20  21
ATOM     21  P   UNL     1       9.418  -1.993  23.819  0.00  0.00    +0.472 P 
ATOM     22  O   UNL     1      10.330  -0.858  23.482  0.00  0.00    -0.228 OA
BRANCH  21  23
ATOM     23  O   UNL     1      10.128  -3.381  24.136  0.00  0.00    -0.303 OA
ATOM     24  H   UNL     1      10.188  -3.538  25.095  0.00  0.00    +0.222 HD
ENDBRANCH  21  23
BRANCH  21  25
ATOM     25  O   UNL     1       8.479  -1.788  25.094  0.00  0.00    -0.303 OA
ATOM     26  H   UNL     1       7.620  -1.414  24.799  0.00  0.00    +0.222 HD
ENDBRANCH  21  25
ENDBRANCH  20  21
ENDBRANCH  19  20
ENDBRANCH   5  19
TORSDOF 11
ENDMDL
MODEL 2
REMARK VINA RESULT:      -5.6      2.318      5.945
REMARK  Name = 
REMARK  11 active torsions:
REMARK  status: ('A' for Active; 'I' for Inactive)
REMARK    1  A    between atoms: O_1  and  C_2
REMARK    2  A    between atoms: C_4  and  O_6
REMARK    3  A    between atoms: C_7  and  C_9
REMARK    4  A    between atoms: C_9  and  O_10
REMARK    5  A    between atoms: O_10  and  P_11
REMARK    6  A    between atoms: P_11  and  O_12
REMARK    7  A    between atoms: P_11  and  O_13
REMARK    8  A    between atoms: C_16  and  O_18
REMARK    9  A    between atoms: O_18  and  P_19
REMARK   10  A    between atoms: P_19  and  O_20
REMARK   11  A    between atoms: C_23  and  O_25
REMARK                            x       y       z     vdW  Elec       q    Type
REMARK                         _______ _______ _______ _____ _____    ______ ____
ROOT
ATOM      1  C   UNL     1       8.683  -4.831  25.599  0.00  0.00    +0.179 C 
ATOM      2  C   UNL     1       8.317  -4.367  24.179  0.00  0.00    +0.202 C 
ATOM      3  C   UNL     1       6.935  -3.672  24.193  0.00  0.00    +0.289 C 
ATOM      4  O   UNL     1       5.959  -4.550  24.782  0.00  0.00    -0.340 OA
ATOM      5  C   UNL     1       6.248  -4.843  26.164  0.00  0.00    +0.179 C 
ATOM      6  C   UNL     1       7.561  -5.642  26.252  0.00  0.00    +0.177 C 
ENDROOT
BRANCH   1   7
ATOM      7  O   UNL     1       9.875  -5.641  25.588  0.00  0.00    -0.386 OA
ATOM      8  H   UNL     1       9.606  -6.461  25.123  0.00  0.00    +0.210 HD
ENDBRANCH   1   7
BRANCH   2   9
ATOM      9  O   UNL     1       9.372  -3.494  23.735  0.00  0.00    -0.384 OA
ATOM     10  H   UNL     1       9.440  -3.643  22.768  0.00  0.00    +0.210 HD
ENDBRANCH   2   9
BRANCH   6  11
ATOM     11  O   UNL     1       7.943  -5.956  27.601  0.00  0.00    -0.386 OA
ATOM     12  H   UNL     1       8.435  -6.800  27.526  0.00  0.00    +0.210 HD
ENDBRANCH   6  11
BRANCH   3  13
ATOM     13  O   UNL     1       6.557  -3.255  22.865  0.00  0.00    -0.295 OA
BRANCH  13  14
ATOM     14  P   UNL     1       6.083  -4.622  21.918  0.00  0.00    +0.212 P 
ATOM     15  O   UNL     1       5.659  -5.847  21.070  0.00  0.00    -0.517 OA
ATOM     16  O   UNL     1       6.097  -3.644  20.735  0.00  0.00    -0.437 OA
BRANCH  14  17
ATOM     17  O   UNL     1       4.569  -4.558  22.525  0.00  0.00    -0.344 OA
ATOM     18  H   UNL     1       4.606  -3.613  22.793  0.00  0.00    +0.218 HD
ENDBRANCH  14  17
ENDBRANCH  13  14
ENDBRANCH   3  13
BRANCH   5  19
ATOM     19  C   UNL     1       5.068  -5.619  26.764  0.00  0.00    +0.206 C 
BRANCH  19  20
ATOM     20  O   UNL     1       4.959  -6.904  26.174  0.00  0.00    -0.284 OA
BRANCH  20  21
ATOM     21  P   UNL     1       3.867  -7.142  25.042  0.00  0.00    +0.472 P 
ATOM     22  O   UNL     1       2.910  -8.271  25.255  0.00  0.00    -0.228 OA
BRANCH  21  23
ATOM     23  O   UNL     1       4.768  -7.235  23.735  0.00  0.00    -0.303 OA
ATOM     24  H   UNL     1       5.715  -7.186  23.953  0.00  0.00    +0.222 HD
ENDBRANCH  21  23
BRANCH  21  25
ATOM     25  O   UNL     1       3.222  -5.686  24.914  0.00  0.00    -0.303 OA
ATOM     26  H   UNL     1       2.731  -5.483  25.740  0.00  0.00    +0.222 HD
ENDBRANCH  21  25
ENDBRANCH  20  21
ENDBRANCH  19  20
ENDBRANCH   5  19
TORSDOF 11
ENDMDL
MODEL 3
REMARK VINA RESULT:      -5.6      3.109      6.353
REMARK  Name = 
REMARK  11 active torsions:
REMARK  status: ('A' for Active; 'I' for Inactive)
REMARK    1  A    between atoms: O_1  and  C_2
REMARK    2  A    between atoms: C_4  and  O_6
REMARK    3  A    between atoms: C_7  and  C_9
REMARK    4  A    between atoms: C_9  and  O_10
REMARK    5  A    between atoms: O_10  and  P_11
REMARK    6  A    between atoms: P_11  and  O_12
REMARK    7  A    between atoms: P_11  and  O_13
REMARK    8  A    between atoms: C_16  and  O_18
REMARK    9  A    between atoms: O_18  and  P_19
REMARK   10  A    between atoms: P_19  and  O_20
REMARK   11  A    between atoms: C_23  and  O_25
REMARK                            x       y       z     vdW  Elec       q    Type
REMARK                         _______ _______ _______ _____ _____    ______ ____
ROOT
ATOM      1  C   UNL     1      10.019  -1.084  22.780  0.00  0.00    +0.179 C 
ATOM      2  C   UNL     1       9.131   0.134  22.471  0.00  0.00    +0.202 C 
ATOM      3  C   UNL     1       8.454   0.633  23.768  0.00  0.00    +0.289 C 
ATOM      4  O   UNL     1       7.746  -0.453  24.392  0.00  0.00    -0.340 OA
ATOM      5  C   UNL     1       8.629  -1.514  24.811  0.00  0.00    +0.179 C 
ATOM      6  C   UNL     1       9.273  -2.160  23.572  0.00  0.00    +0.177 C 
ENDROOT
BRANCH   1   7
ATOM      7  O   UNL     1      10.517  -1.683  21.567  0.00  0.00    -0.386 OA
ATOM      8  H   UNL     1      11.354  -2.116  21.836  0.00  0.00    +0.210 HD
ENDBRANCH   1   7
BRANCH   2   9
ATOM      9  O   UNL     1       9.977   1.131  21.867  0.00  0.00    -0.384 OA
ATOM     10  H   UNL     1       9.738   1.128  20.916  0.00  0.00    +0.210 HD
ENDBRANCH   2   9
BRANCH   6  11
ATOM     11  O   UNL     1      10.194  -3.215  23.897  0.00  0.00    -0.386 OA
ATOM     12  H   UNL     1      10.670  -3.392  23.060  0.00  0.00    +0.210 HD
ENDBRANCH   6  11
BRANCH   3  13
ATOM     13  O   UNL     1       7.591   1.756  23.498  0.00  0.00    -0.295 OA
BRANCH  13  14
ATOM     14  P   UNL     1       7.917   3.044  24.606  0.00  0.00    +0.212 P 
ATOM     15  O   UNL     1       8.207   4.197  25.599  0.00  0.00    -0.517 OA
ATOM     16  O   UNL     1       9.051   3.415  23.641  0.00  0.00    -0.437 OA
BRANCH  14  17
ATOM     17  O   UNL     1       8.573   1.999  25.676  0.00  0.00    -0.344 OA
ATOM     18  H   UNL     1       8.053   1.217  25.388  0.00  0.00    +0.218 HD
ENDBRANCH  14  17
ENDBRANCH  13  14
ENDBRANCH   3  13
BRANCH   5  19
ATOM     19  C   UNL     1       7.826  -2.534  25.632  0.00  0.00    +0.206 C 
BRANCH  19  20
ATOM     20  O   UNL     1       8.693  -3.380  26.368  0.00  0.00    -0.284 OA
BRANCH  20  21
ATOM     21  P   UNL     1       8.500  -4.956  26.266  0.00  0.00    +0.472 P 
ATOM     22  O   UNL     1       7.806  -5.626  27.408  0.00  0.00    -0.228 OA
BRANCH  21  23
ATOM     23  O   UNL     1       9.986  -5.447  25.975  0.00  0.00    -0.303 OA
ATOM     24  H   UNL     1      10.205  -6.239  26.495  0.00  0.00    +0.222 HD
ENDBRANCH  21  23
BRANCH  21  25
ATOM     25  O   UNL     1       7.803  -5.098  24.836  0.00  0.00    -0.303 OA
ATOM     26  H   UNL     1       6.832  -5.172  24.962  0.00  0.00    +0.222 HD
ENDBRANCH  21  25
ENDBRANCH  20  21
ENDBRANCH  19  20
ENDBRANCH   5  19
TORSDOF 11
ENDMDL
MODEL 4
REMARK VINA RESULT:      -5.5      1.736      5.051
REMARK  Name = 
REMARK  11 active torsions:
REMARK  status: ('A' for Active; 'I' for Inactive)
REMARK    1  A    between atoms: O_1  and  C_2
REMARK    2  A    between atoms: C_4  and  O_6
REMARK    3  A    between atoms: C_7  and  C_9
REMARK    4  A    between atoms: C_9  and  O_10
REMARK    5  A    between atoms: O_10  and  P_11
REMARK    6  A    between atoms: P_11  and  O_12
REMARK    7  A    between atoms: P_11  and  O_13
REMARK    8  A    between atoms: C_16  and  O_18
REMARK    9  A    between atoms: O_18  and  P_19
REMARK   10  A    between atoms: P_19  and  O_20
REMARK   11  A    between atoms: C_23  and  O_25
REMARK                            x       y       z     vdW  Elec       q    Type
REMARK                         _______ _______ _______ _____ _____    ______ ____
ROOT
ATOM      1  C   UNL     1       5.682  -6.026  23.488  0.00  0.00    +0.179 C 
ATOM      2  C   UNL     1       6.319  -4.906  22.647  0.00  0.00    +0.202 C 
ATOM      3  C   UNL     1       7.626  -4.424  23.319  0.00  0.00    +0.289 C 
ATOM      4  O   UNL     1       7.357  -4.041  24.680  0.00  0.00    -0.340 OA
ATOM      5  C   UNL     1       6.907  -5.151  25.482  0.00  0.00    +0.179 C 
ATOM      6  C   UNL     1       5.543  -5.638  24.961  0.00  0.00    +0.177 C 
ENDROOT
BRANCH   1   7
ATOM      7  O   UNL     1       4.373  -6.368  22.988  0.00  0.00    -0.386 OA
ATOM      8  H   UNL     1       4.548  -6.788  22.121  0.00  0.00    +0.210 HD
ENDBRANCH   1   7
BRANCH   2   9
ATOM      9  O   UNL     1       6.538  -5.441  21.328  0.00  0.00    -0.384 OA
ATOM     10  H   UNL     1       5.677  -5.346  20.867  0.00  0.00    +0.210 HD
ENDBRANCH   2   9
BRANCH   6  11
ATOM     11  O   UNL     1       5.028  -6.765  25.689  0.00  0.00    -0.386 OA
ATOM     12  H   UNL     1       4.149  -6.933  25.291  0.00  0.00    +0.210 HD
ENDBRANCH   6  11
BRANCH   3  13
ATOM     13  O   UNL     1       8.226  -3.352  22.564  0.00  0.00    -0.295 OA
BRANCH  13  14
ATOM     14  P   UNL     1       9.070  -2.273  23.619  0.00  0.00    +0.212 P 
ATOM     15  O   UNL     1       9.826  -1.306  24.565  0.00  0.00    -0.517 OA
ATOM     16  O   UNL     1       9.721  -1.735  22.337  0.00  0.00    -0.437 OA
BRANCH  14  17
ATOM     17  O   UNL     1      10.041  -3.482  24.131  0.00  0.00    -0.344 OA
ATOM     18  H   UNL     1       9.855  -3.364  25.089  0.00  0.00    +0.218 HD
ENDBRANCH  14  17
ENDBRANCH  13  14
ENDBRANCH   3  13
BRANCH   5  19
ATOM     19  C   UNL     1       6.830  -4.704  26.949  0.00  0.00    +0.206 C 
BRANCH  19  20
ATOM     20  O   UNL     1       7.063  -5.799  27.821  0.00  0.00    -0.284 OA
BRANCH  20  21
ATOM     21  P   UNL     1       5.965  -6.160  28.914  0.00  0.00    +0.472 P 
ATOM     22  O   UNL     1       6.355  -5.982  30.346  0.00  0.00    -0.228 OA
BRANCH  21  23
ATOM     23  O   UNL     1       5.554  -7.636  28.487  0.00  0.00    -0.303 OA
ATOM     24  H   UNL     1       6.110  -7.962  27.758  0.00  0.00    +0.222 HD
ENDBRANCH  21  23
BRANCH  21  25
ATOM     25  O   UNL     1       4.720  -5.296  28.411  0.00  0.00    -0.303 OA
ATOM     26  H   UNL     1       4.185  -5.026  29.189  0.00  0.00    +0.222 HD
ENDBRANCH  21  25
ENDBRANCH  20  21
ENDBRANCH  19  20
ENDBRANCH   5  19
TORSDOF 11
ENDMDL
MODEL 5
REMARK VINA RESULT:      -5.5      2.232      5.764
REMARK  Name = 
REMARK  11 active torsions:
REMARK  status: ('A' for Active; 'I' for Inactive)
REMARK    1  A    between atoms: O_1  and  C_2
REMARK    2  A    between atoms: C_4  and  O_6
REMARK    3  A    between atoms: C_7  and  C_9
REMARK    4  A    between atoms: C_9  and  O_10
REMARK    5  A    between atoms: O_10  and  P_11
REMARK    6  A    between atoms: P_11  and  O_12
REMARK    7  A    between atoms: P_11  and  O_13
REMARK    8  A    between atoms: C_16  and  O_18
REMARK    9  A    between atoms: O_18  and  P_19
REMARK   10  A    between atoms: P_19  and  O_20
REMARK   11  A    between atoms: C_23  and  O_25
REMARK                            x       y       z     vdW  Elec       q    Type
REMARK                         _______ _______ _______ _____ _____    ______ ____
ROOT
ATOM      1  C   UNL     1       9.045  -4.694  25.688  0.00  0.00    +0.179 C 
ATOM      2  C   UNL     1       8.879  -4.051  24.300  0.00  0.00    +0.202 C 
ATOM      3  C   UNL     1       7.571  -3.228  24.256  0.00  0.00    +0.289 C 
ATOM      4  O   UNL     1       6.463  -4.060  24.641  0.00  0.00    -0.340 OA
ATOM      5  C   UNL     1       6.572  -4.523  26.003  0.00  0.00    +0.179 C 
ATOM      6  C   UNL     1       7.791  -5.453  26.129  0.00  0.00    +0.177 C 
ENDROOT
BRANCH   1   7
ATOM      7  O   UNL     1      10.155  -5.614  25.704  0.00  0.00    -0.386 OA
ATOM      8  H   UNL     1      10.311  -5.789  26.654  0.00  0.00    +0.210 HD
ENDBRANCH   1   7
BRANCH   2   9
ATOM      9  O   UNL     1      10.050  -3.246  24.066  0.00  0.00    -0.384 OA
ATOM     10  H   UNL     1       9.778  -2.329  24.281  0.00  0.00    +0.210 HD
ENDBRANCH   2   9
BRANCH   6  11
ATOM     11  O   UNL     1       7.994  -5.942  27.466  0.00  0.00    -0.386 OA
ATOM     12  H   UNL     1       7.297  -6.619  27.587  0.00  0.00    +0.210 HD
ENDBRANCH   6  11
BRANCH   3  13
ATOM     13  O   UNL     1       7.379  -2.640  22.953  0.00  0.00    -0.295 OA
BRANCH  13  14
ATOM     14  P   UNL     1       7.180  -0.927  23.092  0.00  0.00    +0.212 P 
ATOM     15  O   UNL     1       7.002   0.607  23.215  0.00  0.00    -0.517 OA
ATOM     16  O   UNL     1       8.680  -0.857  22.769  0.00  0.00    -0.437 OA
BRANCH  14  17
ATOM     17  O   UNL     1       7.084  -1.037  24.718  0.00  0.00    -0.344 OA
ATOM     18  H   UNL     1       7.944  -0.598  24.902  0.00  0.00    +0.218 HD
ENDBRANCH  14  17
ENDBRANCH  13  14
ENDBRANCH   3  13
BRANCH   5  19
ATOM     19  C   UNL     1       5.269  -5.236  26.391  0.00  0.00    +0.206 C 
BRANCH  19  20
ATOM     20  O   UNL     1       5.225  -6.540  25.835  0.00  0.00    -0.284 OA
BRANCH  20  21
ATOM     21  P   UNL     1       4.268  -6.817  24.595  0.00  0.00    +0.472 P 
ATOM     22  O   UNL     1       3.407  -8.037  24.667  0.00  0.00    -0.228 OA
BRANCH  21  23
ATOM     23  O   UNL     1       5.289  -6.761  23.377  0.00  0.00    -0.303 OA
ATOM     24  H   UNL     1       5.273  -5.891  22.941  0.00  0.00    +0.222 HD
ENDBRANCH  21  23
BRANCH  21  25
ATOM     25  O   UNL     1       3.502  -5.421  24.468  0.00  0.00    -0.303 OA
ATOM     26  H   UNL     1       2.535  -5.583  24.526  0.00  0.00    +0.222 HD
ENDBRANCH  21  25
ENDBRANCH  20  21
ENDBRANCH  19  20
ENDBRANCH   5  19
TORSDOF 11
ENDMDL
MODEL 6
REMARK VINA RESULT:      -5.4      1.980      3.956
REMARK  Name = 
REMARK  11 active torsions:
REMARK  status: ('A' for Active; 'I' for Inactive)
REMARK    1  A    between atoms: O_1  and  C_2
REMARK    2  A    between atoms: C_4  and  O_6
REMARK    3  A    between atoms: C_7  and  C_9
REMARK    4  A    between atoms: C_9  and  O_10
REMARK    5  A    between atoms: O_10  and  P_11
REMARK    6  A    between atoms: P_11  and  O_12
REMARK    7  A    between atoms: P_11  and  O_13
REMARK    8  A    between atoms: C_16  and  O_18
REMARK    9  A    between atoms: O_18  and  P_19
REMARK   10  A    between atoms: P_19  and  O_20
REMARK   11  A    between atoms: C_23  and  O_25
REMARK                            x       y       z     vdW  Elec       q    Type
REMARK                         _______ _______ _______ _____ _____    ______ ____
ROOT
ATOM      1  C   UNL     1       8.032  -5.268  25.774  0.00  0.00    +0.179 C 
ATOM      2  C   UNL     1       6.523  -5.217  26.067  0.00  0.00    +0.202 C 
ATOM      3  C   UNL     1       5.734  -5.111  24.741  0.00  0.00    +0.289 C 
ATOM      4  O   UNL     1       6.212  -3.986  23.982  0.00  0.00    -0.340 OA
ATOM      5  C   UNL     1       7.592  -4.136  23.590  0.00  0.00    +0.179 C 
ATOM      6  C   UNL     1       8.482  -4.138  24.846  0.00  0.00    +0.177 C 
ENDROOT
BRANCH   1   7
ATOM      7  O   UNL     1       8.799  -5.181  26.992  0.00  0.00    -0.386 OA
ATOM      8  H   UNL     1       9.720  -5.361  26.712  0.00  0.00    +0.210 HD
ENDBRANCH   1   7
BRANCH   2   9
ATOM      9  O   UNL     1       6.197  -6.404  26.814  0.00  0.00    -0.384 OA
ATOM     10  H   UNL     1       6.412  -7.151  26.215  0.00  0.00    +0.210 HD
ENDBRANCH   2   9
BRANCH   6  11
ATOM     11  O   UNL     1       9.878  -4.311  24.550  0.00  0.00    -0.386 OA
ATOM     12  H   UNL     1      10.294  -4.475  25.421  0.00  0.00    +0.210 HD
ENDBRANCH   6  11
BRANCH   3  13
ATOM     13  O   UNL     1       4.316  -5.031  24.992  0.00  0.00    -0.295 OA
BRANCH  13  14
ATOM     14  P   UNL     1       3.449  -6.004  23.856  0.00  0.00    +0.212 P 
ATOM     15  O   UNL     1       2.671  -6.876  22.838  0.00  0.00    -0.517 OA
ATOM     16  O   UNL     1       4.425  -7.118  24.261  0.00  0.00    -0.437 OA
BRANCH  14  17
ATOM     17  O   UNL     1       4.158  -5.231  22.604  0.00  0.00    -0.344 OA
ATOM     18  H   UNL     1       3.663  -5.703  21.898  0.00  0.00    +0.218 HD
ENDBRANCH  14  17
ENDBRANCH  13  14
ENDBRANCH   3  13
BRANCH   5  19
ATOM     19  C   UNL     1       7.962  -2.996  22.631  0.00  0.00    +0.206 C 
BRANCH  19  20
ATOM     20  O   UNL     1       8.526  -1.906  23.341  0.00  0.00    -0.284 OA
BRANCH  20  21
ATOM     21  P   UNL     1       9.762  -1.130  22.706  0.00  0.00    +0.472 P 
ATOM     22  O   UNL     1      10.117   0.187  23.316  0.00  0.00    -0.228 OA
BRANCH  21  23
ATOM     23  O   UNL     1       9.369  -1.097  21.165  0.00  0.00    -0.303 OA
ATOM     24  H   UNL     1      10.143  -1.257  20.598  0.00  0.00    +0.222 HD
ENDBRANCH  21  23
BRANCH  21  25
ATOM     25  O   UNL     1      10.896  -2.254  22.748  0.00  0.00    -0.303 OA
ATOM     26  H   UNL     1      10.483  -3.128  22.577  0.00  0.00    +0.222 HD
ENDBRANCH  21  25
ENDBRANCH  20  21
ENDBRANCH  19  20
ENDBRANCH   5  19
TORSDOF 11
ENDMDL
MODEL 7
REMARK VINA RESULT:      -5.3      1.630      2.230
REMARK  Name = 
REMARK  11 active torsions:
REMARK  status: ('A' for Active; 'I' for Inactive)
REMARK    1  A    between atoms: O_1  and  C_2
REMARK    2  A    between atoms: C_4  and  O_6
REMARK    3  A    between atoms: C_7  and  C_9
REMARK    4  A    between atoms: C_9  and  O_10
REMARK    5  A    between atoms: O_10  and  P_11
REMARK    6  A    between atoms: P_11  and  O_12
REMARK    7  A    between atoms: P_11  and  O_13
REMARK    8  A    between atoms: C_16  and  O_18
REMARK    9  A    between atoms: O_18  and  P_19
REMARK   10  A    between atoms: P_19  and  O_20
REMARK   11  A    between atoms: C_23  and  O_25
REMARK                            x       y       z     vdW  Elec       q    Type
REMARK                         _______ _______ _______ _____ _____    ______ ____
ROOT
ATOM      1  C   UNL     1       5.087  -5.464  22.737  0.00  0.00    +0.179 C 
ATOM      2  C   UNL     1       5.464  -6.408  23.892  0.00  0.00    +0.202 C 
ATOM      3  C   UNL     1       5.560  -5.609  25.212  0.00  0.00    +0.289 C 
ATOM      4  O   UNL     1       6.471  -4.508  25.046  0.00  0.00    -0.340 OA
ATOM      5  C   UNL     1       6.011  -3.559  24.063  0.00  0.00    +0.179 C 
ATOM      6  C   UNL     1       5.988  -4.229  22.678  0.00  0.00    +0.177 C 
ENDROOT
BRANCH   1   7
ATOM      7  O   UNL     1       5.169  -6.141  21.467  0.00  0.00    -0.386 OA
ATOM      8  H   UNL     1       5.842  -5.635  20.966  0.00  0.00    +0.210 HD
ENDBRANCH   1   7
BRANCH   2   9
ATOM      9  O   UNL     1       4.461  -7.440  23.939  0.00  0.00    -0.384 OA
ATOM     10  H   UNL     1       4.084  -7.391  24.843  0.00  0.00    +0.210 HD
ENDBRANCH   2   9
BRANCH   6  11
ATOM     11  O   UNL     1       5.514  -3.360  21.637  0.00  0.00    -0.386 OA
ATOM     12  H   UNL     1       5.321  -2.515  22.092  0.00  0.00    +0.210 HD
ENDBRANCH   6  11
BRANCH   3  13
ATOM     13  O   UNL     1       5.942  -6.469  26.305  0.00  0.00    -0.295 OA
BRANCH  13  14
ATOM     14  P   UNL     1       4.736  -6.437  27.545  0.00  0.00    +0.212 P 
ATOM     15  O   UNL     1       3.656  -6.407  28.655  0.00  0.00    -0.517 OA
ATOM     16  O   UNL     1       5.681  -7.376  28.308  0.00  0.00    -0.437 OA
BRANCH  14  17
ATOM     17  O   UNL     1       3.763  -7.410  26.667  0.00  0.00    -0.344 OA
ATOM     18  H   UNL     1       3.599  -8.064  27.382  0.00  0.00    +0.218 HD
ENDBRANCH  14  17
ENDBRANCH  13  14
ENDBRANCH   3  13
BRANCH   5  19
ATOM     19  C   UNL     1       6.934  -2.332  24.088  0.00  0.00    +0.206 C 
BRANCH  19  20
ATOM     20  O   UNL     1       7.916  -2.422  23.068  0.00  0.00    -0.284 OA
BRANCH  20  21
ATOM     21  P   UNL     1       9.405  -1.966  23.391  0.00  0.00    +0.472 P 
ATOM     22  O   UNL     1       9.568  -0.738  24.227  0.00  0.00    -0.228 OA
BRANCH  21  23
ATOM     23  O   UNL     1      10.049  -1.905  21.937  0.00  0.00    -0.303 OA
ATOM     24  H   UNL     1       9.489  -2.359  21.283  0.00  0.00    +0.222 HD
ENDBRANCH  21  23
BRANCH  21  25
ATOM     25  O   UNL     1      10.027  -3.312  23.987  0.00  0.00    -0.303 OA
ATOM     26  H   UNL     1       9.934  -4.026  23.320  0.00  0.00    +0.222 HD
ENDBRANCH  21  25
ENDBRANCH  20  21
ENDBRANCH  19  20
ENDBRANCH   5  19
TORSDOF 11
ENDMDL
MODEL 8
REMARK VINA RESULT:      -5.2      2.902      4.291
REMARK  Name = 
REMARK  11 active torsions:
REMARK  status: ('A' for Active; 'I' for Inactive)
REMARK    1  A    between atoms: O_1  and  C_2
REMARK    2  A    between atoms: C_4  and  O_6
REMARK    3  A    between atoms: C_7  and  C_9
REMARK    4  A    between atoms: C_9  and  O_10
REMARK    5  A    between atoms: O_10  and  P_11
REMARK    6  A    between atoms: P_11  and  O_12
REMARK    7  A    between atoms: P_11  and  O_13
REMARK    8  A    between atoms: C_16  and  O_18
REMARK    9  A    between atoms: O_18  and  P_19
REMARK   10  A    between atoms: P_19  and  O_20
REMARK   11  A    between atoms: C_23  and  O_25
REMARK                            x       y       z     vdW  Elec       q    Type
REMARK                         _______ _______ _______ _____ _____    ______ ____
ROOT
ATOM      1  C   UNL     1       7.662  -5.239  26.365  0.00  0.00    +0.179 C 
ATOM      2  C   UNL     1       6.564  -4.188  26.605  0.00  0.00    +0.202 C 
ATOM      3  C   UNL     1       6.411  -3.293  25.353  0.00  0.00    +0.289 C 
ATOM      4  O   UNL     1       7.686  -2.726  25.005  0.00  0.00    -0.340 OA
ATOM      5  C   UNL     1       8.650  -3.732  24.634  0.00  0.00    +0.179 C 
ATOM      6  C   UNL     1       8.962  -4.614  25.856  0.00  0.00    +0.177 C 
ENDROOT
BRANCH   1   7
ATOM      7  O   UNL     1       7.956  -5.966  27.574  0.00  0.00    -0.386 OA
ATOM      8  H   UNL     1       7.118  -6.426  27.790  0.00  0.00    +0.210 HD
ENDBRANCH   1   7
BRANCH   2   9
ATOM      9  O   UNL     1       5.357  -4.903  26.928  0.00  0.00    -0.384 OA
ATOM     10  H   UNL     1       5.184  -5.478  26.152  0.00  0.00    +0.210 HD
ENDBRANCH   2   9
BRANCH   6  11
ATOM     11  O   UNL     1       9.899  -5.666  25.570  0.00  0.00    -0.386 OA
ATOM     12  H   UNL     1       9.876  -6.237  26.366  0.00  0.00    +0.210 HD
ENDBRANCH   6  11
BRANCH   3  13
ATOM     13  O   UNL     1       5.407  -2.280  25.567  0.00  0.00    -0.295 OA
BRANCH  13  14
ATOM     14  P   UNL     1       6.025  -0.723  25.135  0.00  0.00    +0.212 P 
ATOM     15  O   UNL     1       6.579   0.672  24.750  0.00  0.00    -0.517 OA
ATOM     16  O   UNL     1       4.649  -0.200  25.573  0.00  0.00    -0.437 OA
BRANCH  14  17
ATOM     17  O   UNL     1       5.879  -1.070  23.546  0.00  0.00    -0.344 OA
ATOM     18  H   UNL     1       6.373  -1.919  23.581  0.00  0.00    +0.218 HD
ENDBRANCH  14  17
ENDBRANCH  13  14
ENDBRANCH   3  13
BRANCH   5  19
ATOM     19  C   UNL     1       9.910  -3.038  24.096  0.00  0.00    +0.206 C 
BRANCH  19  20
ATOM     20  O   UNL     1       9.818  -1.632  24.262  0.00  0.00    -0.284 OA
BRANCH  20  21
ATOM     21  P   UNL     1       9.878  -0.699  22.974  0.00  0.00    +0.472 P 
ATOM     22  O   UNL     1      10.532   0.635  23.137  0.00  0.00    -0.228 OA
BRANCH  21  23
ATOM     23  O   UNL     1       8.353  -0.673  22.521  0.00  0.00    -0.303 OA
ATOM     24  H   UNL     1       7.815  -1.283  23.054  0.00  0.00    +0.222 HD
ENDBRANCH  21  23
BRANCH  21  25
ATOM     25  O   UNL     1      10.539  -1.682  21.902  0.00  0.00    -0.303 OA
ATOM     26  H   UNL     1      11.290  -2.153  22.325  0.00  0.00    +0.222 HD
ENDBRANCH  21  25
ENDBRANCH  20  21
ENDBRANCH  19  20
ENDBRANCH   5  19
TORSDOF 11
ENDMDL
MODEL 9
REMARK VINA RESULT:      -5.2      2.656      6.092
REMARK  Name = 
REMARK  11 active torsions:
REMARK  status: ('A' for Active; 'I' for Inactive)
REMARK    1  A    between atoms: O_1  and  C_2
REMARK    2  A    between atoms: C_4  and  O_6
REMARK    3  A    between atoms: C_7  and  C_9
REMARK    4  A    between atoms: C_9  and  O_10
REMARK    5  A    between atoms: O_10  and  P_11
REMARK    6  A    between atoms: P_11  and  O_12
REMARK    7  A    between atoms: P_11  and  O_13
REMARK    8  A    between atoms: C_16  and  O_18
REMARK    9  A    between atoms: O_18  and  P_19
REMARK   10  A    between atoms: P_19  and  O_20
REMARK   11  A    between atoms: C_23  and  O_25
REMARK                            x       y       z     vdW  Elec       q    Type
REMARK                         _______ _______ _______ _____ _____    ______ ____
ROOT
ATOM      1  C   UNL     1       9.005  -4.677  25.712  0.00  0.00    +0.179 C 
ATOM      2  C   UNL     1       8.820  -3.980  24.353  0.00  0.00    +0.202 C 
ATOM      3  C   UNL     1       7.588  -3.046  24.406  0.00  0.00    +0.289 C 
ATOM      4  O   UNL     1       6.434  -3.791  24.833  0.00  0.00    -0.340 OA
ATOM      5  C   UNL     1       6.578  -4.302  26.174  0.00  0.00    +0.179 C 
ATOM      6  C   UNL     1       7.716  -5.338  26.206  0.00  0.00    +0.177 C 
ENDROOT
BRANCH   1   7
ATOM      7  O   UNL     1      10.029  -5.689  25.640  0.00  0.00    -0.386 OA
ATOM      8  H   UNL     1      10.815  -5.267  26.043  0.00  0.00    +0.210 HD
ENDBRANCH   1   7
BRANCH   2   9
ATOM      9  O   UNL     1      10.042  -3.273  24.072  0.00  0.00    -0.384 OA
ATOM     10  H   UNL     1      10.714  -3.971  23.923  0.00  0.00    +0.210 HD
ENDBRANCH   2   9
BRANCH   6  11
ATOM     11  O   UNL     1       7.948  -5.883  27.516  0.00  0.00    -0.386 OA
ATOM     12  H   UNL     1       8.638  -6.564  27.378  0.00  0.00    +0.210 HD
ENDBRANCH   6  11
BRANCH   3  13
ATOM     13  O   UNL     1       7.377  -2.404  23.132  0.00  0.00    -0.295 OA
BRANCH  13  14
ATOM     14  P   UNL     1       7.017  -0.727  23.357  0.00  0.00    +0.212 P 
ATOM     15  O   UNL     1       6.695   0.775  23.558  0.00  0.00    -0.517 OA
ATOM     16  O   UNL     1       8.094  -0.776  24.450  0.00  0.00    -0.437 OA
BRANCH  14  17
ATOM     17  O   UNL     1       5.613  -1.096  24.105  0.00  0.00    -0.344 OA
ATOM     18  H   UNL     1       5.647  -0.360  24.756  0.00  0.00    +0.218 HD
ENDBRANCH  14  17
ENDBRANCH  13  14
ENDBRANCH   3  13
BRANCH   5  19
ATOM     19  C   UNL     1       5.240  -4.912  26.619  0.00  0.00    +0.206 C 
BRANCH  19  20
ATOM     20  O   UNL     1       5.273  -5.243  27.998  0.00  0.00    -0.284 OA
BRANCH  20  21
ATOM     21  P   UNL     1       4.460  -6.513  28.504  0.00  0.00    +0.472 P 
ATOM     22  O   UNL     1       3.188  -6.829  27.787  0.00  0.00    -0.228 OA
BRANCH  21  23
ATOM     23  O   UNL     1       4.323  -6.211  30.060  0.00  0.00    -0.303 OA
ATOM     24  H   UNL     1       4.794  -5.397  30.306  0.00  0.00    +0.222 HD
ENDBRANCH  21  23
BRANCH  21  25
ATOM     25  O   UNL     1       5.588  -7.645  28.471  0.00  0.00    -0.303 OA
ATOM     26  H   UNL     1       6.395  -7.276  28.051  0.00  0.00    +0.222 HD
ENDBRANCH  21  25
ENDBRANCH  20  21
ENDBRANCH  19  20
ENDBRANCH   5  19
TORSDOF 11
ENDMDL
