MODEL 1
REMARK VINA RESULT:      -6.0      0.000      0.000
REMARK  Name = 
REMARK  12 active torsions:
REMARK  status: ('A' for Active; 'I' for Inactive)
REMARK    1  A    between atoms: C_1  and  O_2
REMARK    2  A    between atoms: O_2  and  C_3
REMARK    3  A    between atoms: C_3  and  C_4
REMARK    4  A    between atoms: C_4  and  O_5
REMARK    5  A    between atoms: O_5  and  C_6
REMARK    6  A    between atoms: C_7  and  O_8
REMARK    7  A    between atoms: O_8  and  C_9
REMARK    8  A    between atoms: C_9  and  C_10
REMARK    9  A    between atoms: C_10  and  O_11
REMARK   10  A    between atoms: O_11  and  C_12
REMARK   11  A    between atoms: N_16  and  C_17
REMARK   12  A    between atoms: C_21  and  C_23
REMARK                            x       y       z     vdW  Elec       q    Type
REMARK                         _______ _______ _______ _____ _____    ______ ____
ROOT
ATOM      1  C   UNL     1       8.560  -2.541  25.346  0.00  0.00    +0.164 A 
ATOM      2  C   UNL     1       9.195  -2.377  24.100  0.00  0.00    +0.078 A 
ATOM      3  C   UNL     1       9.144  -1.190  23.378  0.00  0.00    +0.080 A 
ATOM      4  C   UNL     1       8.454  -0.115  23.938  0.00  0.00    +0.044 A 
ATOM      5  C   UNL     1       8.495   1.092  23.216  0.00  0.00    +0.134 A 
ATOM      6  N   UNL     1       9.124   1.186  22.032  0.00  0.00    -0.220 NA
ATOM      7  C   UNL     1       9.722   0.084  21.578  0.00  0.00    +0.223 A 
ATOM      8  N   UNL     1       7.869   2.246  23.760  0.00  0.00    -0.299 N 
ATOM      9  H   UNL     1       6.874   2.089  23.878  0.00  0.00    +0.154 HD
ATOM     10  C   UNL     1       7.805  -0.266  25.176  0.00  0.00    +0.062 A 
ATOM     11  N   UNL     1       9.766  -1.101  22.200  0.00  0.00    -0.235 NA
ATOM     12  C   UNL     1       7.812  -1.479  25.869  0.00  0.00    +0.163 A 
ENDROOT
BRANCH   8  13
ATOM     13  C   UNL     1       8.200   3.587  23.490  0.00  0.00    +0.034 A 
ATOM     14  C   UNL     1       9.379   4.156  23.985  0.00  0.00    +0.040 A 
ATOM     15  C   UNL     1       9.713   5.482  23.706  0.00  0.00    +0.026 A 
ATOM     16  C   UNL     1       8.839   6.278  22.969  0.00  0.00    +0.017 A 
ATOM     17  C   UNL     1       7.631   5.744  22.519  0.00  0.00    +0.003 A 
ATOM     18  C   UNL     1       7.312   4.408  22.784  0.00  0.00    +0.023 A 
BRANCH  15  19
ATOM     19  C   UNL     1      10.971   5.992  24.153  0.00  0.00    -0.070 C 
ATOM     20  C   UNL     1      12.058   6.382  24.483  0.00  0.00    +0.009 C 
ENDBRANCH  15  19
ENDBRANCH   8  13
BRANCH   1  21
ATOM     21  O   UNL     1       8.775  -3.783  25.889  0.00  0.00    -0.486 OA
BRANCH  21  22
ATOM     22  C   UNL     1       8.175  -4.907  25.252  0.00  0.00    +0.257 C 
BRANCH  22  23
ATOM     23  C   UNL     1       7.040  -5.443  26.119  0.00  0.00    +0.200 C 
BRANCH  23  25
ATOM     24  C   UNL     1       6.472  -5.894  28.365  0.00  0.00    +0.194 C 
ATOM     25  O   UNL     1       7.522  -5.599  27.455  0.00  0.00    -0.380 OA
ENDBRANCH  23  25
ENDBRANCH  22  23
ENDBRANCH  21  22
ENDBRANCH   1  21
BRANCH  12  26
ATOM     26  O   UNL     1       7.162  -1.608  27.067  0.00  0.00    -0.486 OA
BRANCH  26  27
ATOM     27  C   UNL     1       5.774  -1.244  27.075  0.00  0.00    +0.257 C 
BRANCH  27  28
ATOM     28  C   UNL     1       4.929  -2.408  26.568  0.00  0.00    +0.200 C 
BRANCH  28  29
ATOM     29  O   UNL     1       4.431  -2.078  25.268  0.00  0.00    -0.380 OA
ATOM     30  C   UNL     1       4.824  -3.031  24.293  0.00  0.00    +0.194 C 
ENDBRANCH  28  29
ENDBRANCH  27  28
ENDBRANCH  26  27
ENDBRANCH  12  26
TORSDOF 10
ENDMDL
MODEL 2
REMARK VINA RESULT:      -6.0      3.738      8.779
REMARK  Name = 
REMARK  12 active torsions:
REMARK  status: ('A' for Active; 'I' for Inactive)
REMARK    1  A    between atoms: C_1  and  O_2
REMARK    2  A    between atoms: O_2  and  C_3
REMARK    3  A    between atoms: C_3  and  C_4
REMARK    4  A    between atoms: C_4  and  O_5
REMARK    5  A    between atoms: O_5  and  C_6
REMARK    6  A    between atoms: C_7  and  O_8
REMARK    7  A    between atoms: O_8  and  C_9
REMARK    8  A    between atoms: C_9  and  C_10
REMARK    9  A    between atoms: C_10  and  O_11
REMARK   10  A    between atoms: O_11  and  C_12
REMARK   11  A    between atoms: N_16  and  C_17
REMARK   12  A    between atoms: C_21  and  C_23
REMARK                            x       y       z     vdW  Elec       q    Type
REMARK                         _______ _______ _______ _____ _____    ______ ____
ROOT
ATOM      1  C   UNL     1       9.037   2.230  23.972  0.00  0.00    +0.164 A 
ATOM      2  C   UNL     1       9.285   1.334  25.029  0.00  0.00    +0.078 A 
ATOM      3  C   UNL     1       8.672   0.090  25.123  0.00  0.00    +0.080 A 
ATOM      4  C   UNL     1       7.797  -0.285  24.103  0.00  0.00    +0.044 A 
ATOM      5  C   UNL     1       7.261  -1.582  24.191  0.00  0.00    +0.134 A 
ATOM      6  N   UNL     1       7.540  -2.394  25.224  0.00  0.00    -0.220 NA
ATOM      7  C   UNL     1       8.364  -1.918  26.159  0.00  0.00    +0.223 A 
ATOM      8  N   UNL     1       6.414  -2.053  23.151  0.00  0.00    -0.299 N 
ATOM      9  H   UNL     1       5.586  -1.473  23.076  0.00  0.00    +0.154 HD
ATOM     10  C   UNL     1       7.530   0.604  23.047  0.00  0.00    +0.062 A 
ATOM     11  N   UNL     1       8.949  -0.713  26.154  0.00  0.00    -0.235 NA
ATOM     12  C   UNL     1       8.106   1.875  22.988  0.00  0.00    +0.163 A 
ENDROOT
BRANCH   8  13
ATOM     13  C   UNL     1       6.197  -3.396  22.789  0.00  0.00    +0.034 A 
ATOM     14  C   UNL     1       5.012  -4.057  23.135  0.00  0.00    +0.040 A 
ATOM     15  C   UNL     1       4.792  -5.384  22.764  0.00  0.00    +0.026 A 
ATOM     16  C   UNL     1       5.784  -6.090  22.087  0.00  0.00    +0.017 A 
ATOM     17  C   UNL     1       6.994  -5.465  21.787  0.00  0.00    +0.003 A 
ATOM     18  C   UNL     1       7.201  -4.128  22.144  0.00  0.00    +0.023 A 
BRANCH  15  19
ATOM     19  C   UNL     1       3.530  -5.988  23.056  0.00  0.00    -0.070 C 
ATOM     20  C   UNL     1       2.497  -6.554  23.286  0.00  0.00    +0.009 C 
ENDBRANCH  15  19
ENDBRANCH   8  13
BRANCH   1  21
ATOM     21  O   UNL     1       9.780   3.380  24.070  0.00  0.00    -0.486 OA
BRANCH  21  22
ATOM     22  C   UNL     1      11.015   3.443  23.361  0.00  0.00    +0.257 C 
BRANCH  22  23
ATOM     23  C   UNL     1      11.558   4.869  23.402  0.00  0.00    +0.200 C 
BRANCH  23  25
ATOM     24  C   UNL     1      13.403   5.661  22.163  0.00  0.00    +0.194 C 
ATOM     25  O   UNL     1      12.975   4.822  23.225  0.00  0.00    -0.380 OA
ENDBRANCH  23  25
ENDBRANCH  22  23
ENDBRANCH  21  22
ENDBRANCH   1  21
BRANCH  12  26
ATOM     26  O   UNL     1       7.822   2.729  21.958  0.00  0.00    -0.486 OA
BRANCH  26  27
ATOM     27  C   UNL     1       6.775   3.681  22.195  0.00  0.00    +0.257 C 
BRANCH  27  28
ATOM     28  C   UNL     1       7.348   5.094  22.199  0.00  0.00    +0.200 C 
BRANCH  28  29
ATOM     29  O   UNL     1       6.911   5.761  23.387  0.00  0.00    -0.380 OA
ATOM     30  C   UNL     1       6.298   4.865  24.301  0.00  0.00    +0.194 C 
ENDBRANCH  28  29
ENDBRANCH  27  28
ENDBRANCH  26  27
ENDBRANCH  12  26
TORSDOF 10
ENDMDL
MODEL 3
REMARK VINA RESULT:      -6.0      1.599      2.313
REMARK  Name = 
REMARK  12 active torsions:
REMARK  status: ('A' for Active; 'I' for Inactive)
REMARK    1  A    between atoms: C_1  and  O_2
REMARK    2  A    between atoms: O_2  and  C_3
REMARK    3  A    between atoms: C_3  and  C_4
REMARK    4  A    between atoms: C_4  and  O_5
REMARK    5  A    between atoms: O_5  and  C_6
REMARK    6  A    between atoms: C_7  and  O_8
REMARK    7  A    between atoms: O_8  and  C_9
REMARK    8  A    between atoms: C_9  and  C_10
REMARK    9  A    between atoms: C_10  and  O_11
REMARK   10  A    between atoms: O_11  and  C_12
REMARK   11  A    between atoms: N_16  and  C_17
REMARK   12  A    between atoms: C_21  and  C_23
REMARK                            x       y       z     vdW  Elec       q    Type
REMARK                         _______ _______ _______ _____ _____    ______ ____
ROOT
ATOM      1  C   UNL     1       8.520  -2.938  24.477  0.00  0.00    +0.164 A 
ATOM      2  C   UNL     1       8.889  -2.546  23.176  0.00  0.00    +0.078 A 
ATOM      3  C   UNL     1       8.917  -1.217  22.768  0.00  0.00    +0.080 A 
ATOM      4  C   UNL     1       8.592  -0.239  23.708  0.00  0.00    +0.044 A 
ATOM      5  C   UNL     1       8.711   1.096  23.280  0.00  0.00    +0.134 A 
ATOM      6  N   UNL     1       9.073   1.406  22.024  0.00  0.00    -0.220 NA
ATOM      7  C   UNL     1       9.330   0.388  21.202  0.00  0.00    +0.223 A 
ATOM      8  N   UNL     1       8.459   2.144  24.206  0.00  0.00    -0.299 N 
ATOM      9  H   UNL     1       7.503   2.101  24.541  0.00  0.00    +0.154 HD
ATOM     10  C   UNL     1       8.210  -0.615  25.008  0.00  0.00    +0.062 A 
ATOM     11  N   UNL     1       9.273  -0.912  21.518  0.00  0.00    -0.235 NA
ATOM     12  C   UNL     1       8.130  -1.954  25.395  0.00  0.00    +0.163 A 
ENDROOT
BRANCH   8  13
ATOM     13  C   UNL     1       8.981   3.451  24.158  0.00  0.00    +0.034 A 
ATOM     14  C   UNL     1      10.311   3.686  23.791  0.00  0.00    +0.040 A 
ATOM     15  C   UNL     1      10.824   4.983  23.731  0.00  0.00    +0.026 A 
ATOM     16  C   UNL     1      10.024   6.064  24.093  0.00  0.00    +0.017 A 
ATOM     17  C   UNL     1       8.715   5.842  24.519  0.00  0.00    +0.003 A 
ATOM     18  C   UNL     1       8.200   4.542  24.558  0.00  0.00    +0.023 A 
BRANCH  15  19
ATOM     19  C   UNL     1      12.159   5.182  23.260  0.00  0.00    -0.070 C 
ATOM     20  C   UNL     1      13.296   5.289  22.890  0.00  0.00    +0.009 C 
ENDBRANCH  15  19
ENDBRANCH   8  13
BRANCH   1  21
ATOM     21  O   UNL     1       8.600  -4.295  24.662  0.00  0.00    -0.486 OA
BRANCH  21  22
ATOM     22  C   UNL     1       7.980  -5.141  23.698  0.00  0.00    +0.257 C 
BRANCH  22  23
ATOM     23  C   UNL     1       6.464  -5.077  23.860  0.00  0.00    +0.200 C 
BRANCH  23  25
ATOM     24  C   UNL     1       6.017  -5.658  21.616  0.00  0.00    +0.194 C 
ATOM     25  O   UNL     1       5.871  -6.033  22.978  0.00  0.00    -0.380 OA
ENDBRANCH  23  25
ENDBRANCH  22  23
ENDBRANCH  21  22
ENDBRANCH   1  21
BRANCH  12  26
ATOM     26  O   UNL     1       7.743  -2.298  26.662  0.00  0.00    -0.486 OA
BRANCH  26  27
ATOM     27  C   UNL     1       6.331  -2.297  26.915  0.00  0.00    +0.257 C 
BRANCH  27  28
ATOM     28  C   UNL     1       5.856  -3.713  27.218  0.00  0.00    +0.200 C 
BRANCH  28  29
ATOM     29  O   UNL     1       6.987  -4.504  27.593  0.00  0.00    -0.380 OA
ATOM     30  C   UNL     1       6.612  -5.818  27.973  0.00  0.00    +0.194 C 
ENDBRANCH  28  29
ENDBRANCH  27  28
ENDBRANCH  26  27
ENDBRANCH  12  26
TORSDOF 10
ENDMDL
MODEL 4
REMARK VINA RESULT:      -6.0      2.066      2.800
REMARK  Name = 
REMARK  12 active torsions:
REMARK  status: ('A' for Active; 'I' for Inactive)
REMARK    1  A    between atoms: C_1  and  O_2
REMARK    2  A    between atoms: O_2  and  C_3
REMARK    3  A    between atoms: C_3  and  C_4
REMARK    4  A    between atoms: C_4  and  O_5
REMARK    5  A    between atoms: O_5  and  C_6
REMARK    6  A    between atoms: C_7  and  O_8
REMARK    7  A    between atoms: O_8  and  C_9
REMARK    8  A    between atoms: C_9  and  C_10
REMARK    9  A    between atoms: C_10  and  O_11
REMARK   10  A    between atoms: O_11  and  C_12
REMARK   11  A    between atoms: N_16  and  C_17
REMARK   12  A    between atoms: C_21  and  C_23
REMARK                            x       y       z     vdW  Elec       q    Type
REMARK                         _______ _______ _______ _____ _____    ______ ____
ROOT
ATOM      1  C   UNL     1       8.314  -3.449  23.708  0.00  0.00    +0.164 A 
ATOM      2  C   UNL     1       9.360  -2.631  23.238  0.00  0.00    +0.078 A 
ATOM      3  C   UNL     1       9.156  -1.331  22.789  0.00  0.00    +0.080 A 
ATOM      4  C   UNL     1       7.860  -0.818  22.840  0.00  0.00    +0.044 A 
ATOM      5  C   UNL     1       7.709   0.526  22.455  0.00  0.00    +0.134 A 
ATOM      6  N   UNL     1       8.749   1.258  22.018  0.00  0.00    -0.220 NA
ATOM      7  C   UNL     1       9.937   0.653  21.981  0.00  0.00    +0.223 A 
ATOM      8  N   UNL     1       6.428   1.133  22.546  0.00  0.00    -0.299 N 
ATOM      9  H   UNL     1       5.764   0.653  21.948  0.00  0.00    +0.154 HD
ATOM     10  C   UNL     1       6.804  -1.626  23.297  0.00  0.00    +0.062 A 
ATOM     11  N   UNL     1      10.191  -0.608  22.351  0.00  0.00    -0.235 NA
ATOM     12  C   UNL     1       7.006  -2.950  23.693  0.00  0.00    +0.163 A 
ENDROOT
BRANCH   8  13
ATOM     13  C   UNL     1       6.157   2.506  22.700  0.00  0.00    +0.034 A 
ATOM     14  C   UNL     1       7.189   3.429  22.906  0.00  0.00    +0.040 A 
ATOM     15  C   UNL     1       6.921   4.792  23.046  0.00  0.00    +0.026 A 
ATOM     16  C   UNL     1       5.604   5.245  23.039  0.00  0.00    +0.017 A 
ATOM     17  C   UNL     1       4.560   4.331  22.895  0.00  0.00    +0.003 A 
ATOM     18  C   UNL     1       4.836   2.969  22.734  0.00  0.00    +0.023 A 
BRANCH  15  19
ATOM     19  C   UNL     1       8.013   5.708  23.159  0.00  0.00    -0.070 C 
ATOM     20  C   UNL     1       8.965   6.428  23.283  0.00  0.00    +0.009 C 
ENDBRANCH  15  19
ENDBRANCH   8  13
BRANCH   1  21
ATOM     21  O   UNL     1       8.756  -4.678  24.131  0.00  0.00    -0.486 OA
BRANCH  21  22
ATOM     22  C   UNL     1       9.537  -4.736  25.322  0.00  0.00    +0.257 C 
BRANCH  22  23
ATOM     23  C   UNL     1       8.625  -4.614  26.540  0.00  0.00    +0.200 C 
BRANCH  23  25
ATOM     24  C   UNL     1       6.697  -5.550  27.528  0.00  0.00    +0.194 C 
ATOM     25  O   UNL     1       7.674  -5.680  26.505  0.00  0.00    -0.380 OA
ENDBRANCH  23  25
ENDBRANCH  22  23
ENDBRANCH  21  22
ENDBRANCH   1  21
BRANCH  12  26
ATOM     26  O   UNL     1       5.961  -3.723  24.122  0.00  0.00    -0.486 OA
BRANCH  26  27
ATOM     27  C   UNL     1       5.248  -4.443  23.106  0.00  0.00    +0.257 C 
BRANCH  27  28
ATOM     28  C   UNL     1       5.484  -5.940  23.269  0.00  0.00    +0.200 C 
BRANCH  28  29
ATOM     29  O   UNL     1       6.405  -6.369  22.262  0.00  0.00    -0.380 OA
ATOM     30  C   UNL     1       6.292  -5.597  21.077  0.00  0.00    +0.194 C 
ENDBRANCH  28  29
ENDBRANCH  27  28
ENDBRANCH  26  27
ENDBRANCH  12  26
TORSDOF 10
ENDMDL
MODEL 5
REMARK VINA RESULT:      -5.9      2.431      3.559
REMARK  Name = 
REMARK  12 active torsions:
REMARK  status: ('A' for Active; 'I' for Inactive)
REMARK    1  A    between atoms: C_1  and  O_2
REMARK    2  A    between atoms: O_2  and  C_3
REMARK    3  A    between atoms: C_3  and  C_4
REMARK    4  A    between atoms: C_4  and  O_5
REMARK    5  A    between atoms: O_5  and  C_6
REMARK    6  A    between atoms: C_7  and  O_8
REMARK    7  A    between atoms: O_8  and  C_9
REMARK    8  A    between atoms: C_9  and  C_10
REMARK    9  A    between atoms: C_10  and  O_11
REMARK   10  A    between atoms: O_11  and  C_12
REMARK   11  A    between atoms: N_16  and  C_17
REMARK   12  A    between atoms: C_21  and  C_23
REMARK                            x       y       z     vdW  Elec       q    Type
REMARK                         _______ _______ _______ _____ _____    ______ ____
ROOT
ATOM      1  C   UNL     1       8.860  -3.124  23.741  0.00  0.00    +0.164 A 
ATOM      2  C   UNL     1       9.716  -2.182  24.342  0.00  0.00    +0.078 A 
ATOM      3  C   UNL     1       9.604  -0.813  24.124  0.00  0.00    +0.080 A 
ATOM      4  C   UNL     1       8.575  -0.367  23.293  0.00  0.00    +0.044 A 
ATOM      5  C   UNL     1       8.445   1.027  23.163  0.00  0.00    +0.134 A 
ATOM      6  N   UNL     1       9.292   1.877  23.768  0.00  0.00    -0.220 NA
ATOM      7  C   UNL     1      10.258   1.336  24.512  0.00  0.00    +0.223 A 
ATOM      8  N   UNL     1       7.378   1.553  22.385  0.00  0.00    -0.299 N 
ATOM      9  H   UNL     1       7.453   1.244  21.423  0.00  0.00    +0.154 HD
ATOM     10  C   UNL     1       7.720  -1.296  22.677  0.00  0.00    +0.062 A 
ATOM     11  N   UNL     1      10.451   0.028  24.723  0.00  0.00    -0.235 NA
ATOM     12  C   UNL     1       7.873  -2.673  22.855  0.00  0.00    +0.163 A 
ENDROOT
BRANCH   8  13
ATOM     13  C   UNL     1       6.781   2.820  22.526  0.00  0.00    +0.034 A 
ATOM     14  C   UNL     1       5.439   2.951  22.901  0.00  0.00    +0.040 A 
ATOM     15  C   UNL     1       4.852   4.208  23.053  0.00  0.00    +0.026 A 
ATOM     16  C   UNL     1       5.588   5.357  22.774  0.00  0.00    +0.017 A 
ATOM     17  C   UNL     1       6.909   5.243  22.341  0.00  0.00    +0.003 A 
ATOM     18  C   UNL     1       7.499   3.980  22.211  0.00  0.00    +0.023 A 
BRANCH  15  19
ATOM     19  C   UNL     1       3.507   4.295  23.529  0.00  0.00    -0.070 C 
ATOM     20  C   UNL     1       2.368   4.305  23.910  0.00  0.00    +0.009 C 
ENDBRANCH  15  19
ENDBRANCH   8  13
BRANCH   1  21
ATOM     21  O   UNL     1       9.135  -4.411  24.130  0.00  0.00    -0.486 OA
BRANCH  21  22
ATOM     22  C   UNL     1       8.213  -5.061  25.000  0.00  0.00    +0.257 C 
BRANCH  22  23
ATOM     23  C   UNL     1       8.660  -4.879  26.448  0.00  0.00    +0.200 C 
BRANCH  23  25
ATOM     24  C   UNL     1       6.562  -4.897  27.528  0.00  0.00    +0.194 C 
ATOM     25  O   UNL     1       7.769  -5.608  27.295  0.00  0.00    -0.380 OA
ENDBRANCH  23  25
ENDBRANCH  22  23
ENDBRANCH  21  22
ENDBRANCH   1  21
BRANCH  12  26
ATOM     26  O   UNL     1       7.036  -3.560  22.234  0.00  0.00    -0.486 OA
BRANCH  26  27
ATOM     27  C   UNL     1       5.669  -3.149  22.094  0.00  0.00    +0.257 C 
BRANCH  27  28
ATOM     28  C   UNL     1       4.824  -3.764  23.205  0.00  0.00    +0.200 C 
BRANCH  28  29
ATOM     29  O   UNL     1       4.174  -4.930  22.691  0.00  0.00    -0.380 OA
ATOM     30  C   UNL     1       4.519  -6.094  23.425  0.00  0.00    +0.194 C 
ENDBRANCH  28  29
ENDBRANCH  27  28
ENDBRANCH  26  27
ENDBRANCH  12  26
TORSDOF 10
ENDMDL
MODEL 6
REMARK VINA RESULT:      -5.7      2.294      4.177
REMARK  Name = 
REMARK  12 active torsions:
REMARK  status: ('A' for Active; 'I' for Inactive)
REMARK    1  A    between atoms: C_1  and  O_2
REMARK    2  A    between atoms: O_2  and  C_3
REMARK    3  A    between atoms: C_3  and  C_4
REMARK    4  A    between atoms: C_4  and  O_5
REMARK    5  A    between atoms: O_5  and  C_6
REMARK    6  A    between atoms: C_7  and  O_8
REMARK    7  A    between atoms: O_8  and  C_9
REMARK    8  A    between atoms: C_9  and  C_10
REMARK    9  A    between atoms: C_10  and  O_11
REMARK   10  A    between atoms: O_11  and  C_12
REMARK   11  A    between atoms: N_16  and  C_17
REMARK   12  A    between atoms: C_21  and  C_23
REMARK                            x       y       z     vdW  Elec       q    Type
REMARK                         _______ _______ _______ _____ _____    ______ ____
ROOT
ATOM      1  C   UNL     1       5.416  -3.504  27.332  0.00  0.00    +0.164 A 
ATOM      2  C   UNL     1       4.680  -2.347  27.014  0.00  0.00    +0.078 A 
ATOM      3  C   UNL     1       5.252  -1.231  26.414  0.00  0.00    +0.080 A 
ATOM      4  C   UNL     1       6.607  -1.286  26.091  0.00  0.00    +0.044 A 
ATOM      5  C   UNL     1       7.129  -0.170  25.411  0.00  0.00    +0.134 A 
ATOM      6  N   UNL     1       6.372   0.905  25.132  0.00  0.00    -0.220 NA
ATOM      7  C   UNL     1       5.096   0.860  25.517  0.00  0.00    +0.223 A 
ATOM      8  N   UNL     1       8.486  -0.188  24.992  0.00  0.00    -0.299 N 
ATOM      9  H   UNL     1       9.104  -0.271  25.792  0.00  0.00    +0.154 HD
ATOM     10  C   UNL     1       7.358  -2.431  26.411  0.00  0.00    +0.062 A 
ATOM     11  N   UNL     1       4.498  -0.162  26.142  0.00  0.00    -0.235 NA
ATOM     12  C   UNL     1       6.790  -3.526  27.066  0.00  0.00    +0.163 A 
ENDROOT
BRANCH   8  13
ATOM     13  C   UNL     1       9.045   0.537  23.922  0.00  0.00    +0.034 A 
ATOM     14  C   UNL     1       9.747   1.727  24.142  0.00  0.00    +0.040 A 
ATOM     15  C   UNL     1      10.311   2.438  23.081  0.00  0.00    +0.026 A 
ATOM     16  C   UNL     1      10.131   1.994  21.773  0.00  0.00    +0.017 A 
ATOM     17  C   UNL     1       9.382   0.842  21.532  0.00  0.00    +0.003 A 
ATOM     18  C   UNL     1       8.837   0.122  22.601  0.00  0.00    +0.023 A 
BRANCH  15  19
ATOM     19  C   UNL     1      11.100   3.597  23.361  0.00  0.00    -0.070 C 
ATOM     20  C   UNL     1      11.706   4.605  23.602  0.00  0.00    +0.009 C 
ENDBRANCH  15  19
ENDBRANCH   8  13
BRANCH   1  21
ATOM     21  O   UNL     1       4.637  -4.490  27.885  0.00  0.00    -0.486 OA
BRANCH  21  22
ATOM     22  C   UNL     1       3.846  -5.290  27.011  0.00  0.00    +0.257 C 
BRANCH  22  23
ATOM     23  C   UNL     1       4.402  -6.711  26.973  0.00  0.00    +0.200 C 
BRANCH  23  25
ATOM     24  C   UNL     1       4.384  -6.010  24.719  0.00  0.00    +0.194 C 
ATOM     25  O   UNL     1       4.550  -7.105  25.607  0.00  0.00    -0.380 OA
ENDBRANCH  23  25
ENDBRANCH  22  23
ENDBRANCH  21  22
ENDBRANCH   1  21
BRANCH  12  26
ATOM     26  O   UNL     1       7.543  -4.625  27.380  0.00  0.00    -0.486 OA
BRANCH  26  27
ATOM     27  C   UNL     1       7.822  -5.530  26.303  0.00  0.00    +0.257 C 
BRANCH  27  28
ATOM     28  C   UNL     1       9.205  -5.243  25.727  0.00  0.00    +0.200 C 
BRANCH  28  29
ATOM     29  O   UNL     1       9.169  -5.475  24.316  0.00  0.00    -0.380 OA
ATOM     30  C   UNL     1       7.980  -4.972  23.728  0.00  0.00    +0.194 C 
ENDBRANCH  28  29
ENDBRANCH  27  28
ENDBRANCH  26  27
ENDBRANCH  12  26
TORSDOF 10
ENDMDL
MODEL 7
REMARK VINA RESULT:      -5.6      3.053      5.208
REMARK  Name = 
REMARK  12 active torsions:
REMARK  status: ('A' for Active; 'I' for Inactive)
REMARK    1  A    between atoms: C_1  and  O_2
REMARK    2  A    between atoms: O_2  and  C_3
REMARK    3  A    between atoms: C_3  and  C_4
REMARK    4  A    between atoms: C_4  and  O_5
REMARK    5  A    between atoms: O_5  and  C_6
REMARK    6  A    between atoms: C_7  and  O_8
REMARK    7  A    between atoms: O_8  and  C_9
REMARK    8  A    between atoms: C_9  and  C_10
REMARK    9  A    between atoms: C_10  and  O_11
REMARK   10  A    between atoms: O_11  and  C_12
REMARK   11  A    between atoms: N_16  and  C_17
REMARK   12  A    between atoms: C_21  and  C_23
REMARK                            x       y       z     vdW  Elec       q    Type
REMARK                         _______ _______ _______ _____ _____    ______ ____
ROOT
ATOM      1  C   UNL     1       4.773  -5.778  26.035  0.00  0.00    +0.164 A 
ATOM      2  C   UNL     1       6.137  -5.899  26.364  0.00  0.00    +0.078 A 
ATOM      3  C   UNL     1       7.134  -5.169  25.726  0.00  0.00    +0.080 A 
ATOM      4  C   UNL     1       6.748  -4.261  24.740  0.00  0.00    +0.044 A 
ATOM      5  C   UNL     1       7.777  -3.484  24.177  0.00  0.00    +0.134 A 
ATOM      6  N   UNL     1       9.061  -3.643  24.537  0.00  0.00    -0.220 NA
ATOM      7  C   UNL     1       9.317  -4.564  25.467  0.00  0.00    +0.223 A 
ATOM      8  N   UNL     1       7.447  -2.493  23.214  0.00  0.00    -0.299 N 
ATOM      9  H   UNL     1       7.015  -2.917  22.400  0.00  0.00    +0.154 HD
ATOM     10  C   UNL     1       5.392  -4.138  24.393  0.00  0.00    +0.062 A 
ATOM     11  N   UNL     1       8.410  -5.333  26.083  0.00  0.00    -0.235 NA
ATOM     12  C   UNL     1       4.401  -4.914  24.998  0.00  0.00    +0.163 A 
ENDROOT
BRANCH   8  13
ATOM     13  C   UNL     1       8.183  -1.330  22.920  0.00  0.00    +0.034 A 
ATOM     14  C   UNL     1       8.032  -0.165  23.680  0.00  0.00    +0.040 A 
ATOM     15  C   UNL     1       8.772   0.984  23.396  0.00  0.00    +0.026 A 
ATOM     16  C   UNL     1       9.638   1.000  22.305  0.00  0.00    +0.017 A 
ATOM     17  C   UNL     1       9.756  -0.133  21.500  0.00  0.00    +0.003 A 
ATOM     18  C   UNL     1       9.026  -1.288  21.802  0.00  0.00    +0.023 A 
BRANCH  15  19
ATOM     19  C   UNL     1       8.655   2.119  24.257  0.00  0.00    -0.070 C 
ATOM     20  C   UNL     1       8.528   3.105  24.930  0.00  0.00    +0.009 C 
ENDBRANCH  15  19
ENDBRANCH   8  13
BRANCH   1  21
ATOM     21  O   UNL     1       3.970  -6.568  26.819  0.00  0.00    -0.486 OA
BRANCH  21  22
ATOM     22  C   UNL     1       3.436  -6.005  28.014  0.00  0.00    +0.257 C 
BRANCH  22  23
ATOM     23  C   UNL     1       3.561  -7.009  29.155  0.00  0.00    +0.200 C 
BRANCH  23  25
ATOM     24  C   UNL     1       5.503  -5.984  30.019  0.00  0.00    +0.194 C 
ATOM     25  O   UNL     1       4.945  -7.169  29.472  0.00  0.00    -0.380 OA
ENDBRANCH  23  25
ENDBRANCH  22  23
ENDBRANCH  21  22
ENDBRANCH   1  21
BRANCH  12  26
ATOM     26  O   UNL     1       3.088  -4.787  24.635  0.00  0.00    -0.486 OA
BRANCH  26  27
ATOM     27  C   UNL     1       2.761  -5.183  23.295  0.00  0.00    +0.257 C 
BRANCH  27  28
ATOM     28  C   UNL     1       1.547  -6.105  23.307  0.00  0.00    +0.200 C 
BRANCH  28  29
ATOM     29  O   UNL     1       1.651  -6.982  24.432  0.00  0.00    -0.380 OA
ATOM     30  C   UNL     1       1.844  -8.331  24.035  0.00  0.00    +0.194 C 
ENDBRANCH  28  29
ENDBRANCH  27  28
ENDBRANCH  26  27
ENDBRANCH  12  26
TORSDOF 10
ENDMDL
MODEL 8
REMARK VINA RESULT:      -5.6      2.113      2.818
REMARK  Name = 
REMARK  12 active torsions:
REMARK  status: ('A' for Active; 'I' for Inactive)
REMARK    1  A    between atoms: C_1  and  O_2
REMARK    2  A    between atoms: O_2  and  C_3
REMARK    3  A    between atoms: C_3  and  C_4
REMARK    4  A    between atoms: C_4  and  O_5
REMARK    5  A    between atoms: O_5  and  C_6
REMARK    6  A    between atoms: C_7  and  O_8
REMARK    7  A    between atoms: O_8  and  C_9
REMARK    8  A    between atoms: C_9  and  C_10
REMARK    9  A    between atoms: C_10  and  O_11
REMARK   10  A    between atoms: O_11  and  C_12
REMARK   11  A    between atoms: N_16  and  C_17
REMARK   12  A    between atoms: C_21  and  C_23
REMARK                            x       y       z     vdW  Elec       q    Type
REMARK                         _______ _______ _______ _____ _____    ______ ____
ROOT
ATOM      1  C   UNL     1       6.794  -3.679  23.612  0.00  0.00    +0.164 A 
ATOM      2  C   UNL     1       7.969  -3.387  22.894  0.00  0.00    +0.078 A 
ATOM      3  C   UNL     1       8.338  -2.092  22.546  0.00  0.00    +0.080 A 
ATOM      4  C   UNL     1       7.513  -1.045  22.958  0.00  0.00    +0.044 A 
ATOM      5  C   UNL     1       7.962   0.253  22.658  0.00  0.00    +0.134 A 
ATOM      6  N   UNL     1       9.098   0.468  21.973  0.00  0.00    -0.220 NA
ATOM      7  C   UNL     1       9.790  -0.610  21.601  0.00  0.00    +0.223 A 
ATOM      8  N   UNL     1       7.204   1.369  23.106  0.00  0.00    -0.299 N 
ATOM      9  H   UNL     1       6.275   1.353  22.701  0.00  0.00    +0.154 HD
ATOM     10  C   UNL     1       6.330  -1.322  23.666  0.00  0.00    +0.062 A 
ATOM     11  N   UNL     1       9.465  -1.883  21.861  0.00  0.00    -0.235 NA
ATOM     12  C   UNL     1       5.937  -2.629  23.963  0.00  0.00    +0.163 A 
ENDROOT
BRANCH   8  13
ATOM     13  C   UNL     1       7.689   2.666  23.359  0.00  0.00    +0.034 A 
ATOM     14  C   UNL     1       7.264   3.759  22.595  0.00  0.00    +0.040 A 
ATOM     15  C   UNL     1       7.735   5.047  22.854  0.00  0.00    +0.026 A 
ATOM     16  C   UNL     1       8.685   5.252  23.852  0.00  0.00    +0.017 A 
ATOM     17  C   UNL     1       9.164   4.164  24.583  0.00  0.00    +0.003 A 
ATOM     18  C   UNL     1       8.673   2.879  24.332  0.00  0.00    +0.023 A 
BRANCH  15  19
ATOM     19  C   UNL     1       7.203   6.146  22.110  0.00  0.00    -0.070 C 
ATOM     20  C   UNL     1       6.817   7.094  21.484  0.00  0.00    +0.009 C 
ENDBRANCH  15  19
ENDBRANCH   8  13
BRANCH   1  21
ATOM     21  O   UNL     1       6.655  -5.020  23.872  0.00  0.00    -0.486 OA
BRANCH  21  22
ATOM     22  C   UNL     1       5.945  -5.816  22.927  0.00  0.00    +0.257 C 
BRANCH  22  23
ATOM     23  C   UNL     1       4.546  -6.116  23.457  0.00  0.00    +0.200 C 
BRANCH  23  25
ATOM     24  C   UNL     1       4.066  -7.136  25.531  0.00  0.00    +0.194 C 
ATOM     25  O   UNL     1       4.599  -7.319  24.228  0.00  0.00    -0.380 OA
ENDBRANCH  23  25
ENDBRANCH  22  23
ENDBRANCH  21  22
ENDBRANCH   1  21
BRANCH  12  26
ATOM     26  O   UNL     1       4.774  -2.876  24.642  0.00  0.00    -0.486 OA
BRANCH  26  27
ATOM     27  C   UNL     1       4.910  -3.206  26.031  0.00  0.00    +0.257 C 
BRANCH  27  28
ATOM     28  C   UNL     1       3.977  -2.336  26.866  0.00  0.00    +0.200 C 
BRANCH  28  29
ATOM     29  O   UNL     1       3.828  -1.071  26.215  0.00  0.00    -0.380 OA
ATOM     30  C   UNL     1       4.598  -0.059  26.844  0.00  0.00    +0.194 C 
ENDBRANCH  28  29
ENDBRANCH  27  28
ENDBRANCH  26  27
ENDBRANCH  12  26
TORSDOF 10
ENDMDL
MODEL 9
REMARK VINA RESULT:      -5.6      3.208      8.052
REMARK  Name = 
REMARK  12 active torsions:
REMARK  status: ('A' for Active; 'I' for Inactive)
REMARK    1  A    between atoms: C_1  and  O_2
REMARK    2  A    between atoms: O_2  and  C_3
REMARK    3  A    between atoms: C_3  and  C_4
REMARK    4  A    between atoms: C_4  and  O_5
REMARK    5  A    between atoms: O_5  and  C_6
REMARK    6  A    between atoms: C_7  and  O_8
REMARK    7  A    between atoms: O_8  and  C_9
REMARK    8  A    between atoms: C_9  and  C_10
REMARK    9  A    between atoms: C_10  and  O_11
REMARK   10  A    between atoms: O_11  and  C_12
REMARK   11  A    between atoms: N_16  and  C_17
REMARK   12  A    between atoms: C_21  and  C_23
REMARK                            x       y       z     vdW  Elec       q    Type
REMARK                         _______ _______ _______ _____ _____    ______ ____
ROOT
ATOM      1  C   UNL     1       8.566   3.727  23.992  0.00  0.00    +0.164 A 
ATOM      2  C   UNL     1       9.137   3.023  22.914  0.00  0.00    +0.078 A 
ATOM      3  C   UNL     1       9.401   1.659  22.961  0.00  0.00    +0.080 A 
ATOM      4  C   UNL     1       9.054   0.966  24.120  0.00  0.00    +0.044 A 
ATOM      5  C   UNL     1       9.261  -0.425  24.097  0.00  0.00    +0.134 A 
ATOM      6  N   UNL     1       9.806  -1.041  23.035  0.00  0.00    -0.220 NA
ATOM      7  C   UNL     1      10.129  -0.273  21.993  0.00  0.00    +0.223 A 
ATOM      8  N   UNL     1       8.868  -1.202  25.220  0.00  0.00    -0.299 N 
ATOM      9  H   UNL     1       9.377  -0.914  26.048  0.00  0.00    +0.154 HD
ATOM     10  C   UNL     1       8.494   1.657  25.209  0.00  0.00    +0.062 A 
ATOM     11  N   UNL     1       9.947   1.050  21.904  0.00  0.00    -0.235 NA
ATOM     12  C   UNL     1       8.283   3.038  25.177  0.00  0.00    +0.163 A 
ENDROOT
BRANCH   8  13
ATOM     13  C   UNL     1       8.523  -2.567  25.218  0.00  0.00    +0.034 A 
ATOM     14  C   UNL     1       8.053  -3.193  24.058  0.00  0.00    +0.040 A 
ATOM     15  C   UNL     1       7.723  -4.550  24.053  0.00  0.00    +0.026 A 
ATOM     16  C   UNL     1       7.806  -5.289  25.230  0.00  0.00    +0.017 A 
ATOM     17  C   UNL     1       8.215  -4.666  26.410  0.00  0.00    +0.003 A 
ATOM     18  C   UNL     1       8.564  -3.311  26.404  0.00  0.00    +0.023 A 
BRANCH  15  19
ATOM     19  C   UNL     1       7.339  -5.168  22.823  0.00  0.00    -0.070 C 
ATOM     20  C   UNL     1       7.079  -5.680  21.768  0.00  0.00    +0.009 C 
ENDBRANCH  15  19
ENDBRANCH   8  13
BRANCH   1  21
ATOM     21  O   UNL     1       8.365   5.055  23.706  0.00  0.00    -0.486 OA
BRANCH  21  22
ATOM     22  C   UNL     1       9.506   5.864  23.438  0.00  0.00    +0.257 C 
BRANCH  22  23
ATOM     23  C   UNL     1      10.100   6.365  24.752  0.00  0.00    +0.200 C 
BRANCH  23  25
ATOM     24  C   UNL     1      11.967   5.539  23.568  0.00  0.00    +0.194 C 
ATOM     25  O   UNL     1      11.524   6.358  24.640  0.00  0.00    -0.380 OA
ENDBRANCH  23  25
ENDBRANCH  22  23
ENDBRANCH  21  22
ENDBRANCH   1  21
BRANCH  12  26
ATOM     26  O   UNL     1       7.749   3.693  26.253  0.00  0.00    -0.486 OA
BRANCH  26  27
ATOM     27  C   UNL     1       6.642   3.049  26.900  0.00  0.00    +0.257 C 
BRANCH  27  28
ATOM     28  C   UNL     1       6.888   2.978  28.403  0.00  0.00    +0.200 C 
BRANCH  28  29
ATOM     29  O   UNL     1       7.211   1.628  28.750  0.00  0.00    -0.380 OA
ATOM     30  C   UNL     1       7.689   1.524  30.082  0.00  0.00    +0.194 C 
ENDBRANCH  28  29
ENDBRANCH  27  28
ENDBRANCH  26  27
ENDBRANCH  12  26
TORSDOF 10
ENDMDL
