MODEL 1
REMARK VINA RESULT:      -6.6      0.000      0.000
REMARK  Name = 
REMARK  5 active torsions:
REMARK  status: ('A' for Active; 'I' for Inactive)
REMARK    1  A    between atoms: C_1  and  O_2
REMARK    2  A    between atoms: O_2  and  C_3
REMARK    3  A    between atoms: C_4  and  O_5
REMARK    4  A    between atoms: O_5  and  C_6
REMARK    5  A    between atoms: C_11  and  C_13
REMARK                            x       y       z     vdW  Elec       q    Type
REMARK                         _______ _______ _______ _____ _____    ______ ____
ROOT
ATOM      1  C   UNL     1       9.036  -3.703  24.099  0.00  0.00    +0.162 A 
ATOM      2  C   UNL     1       9.546  -2.405  24.188  0.00  0.00    +0.059 A 
ATOM      3  C   UNL     1       8.948  -1.357  23.480  0.00  0.00    +0.006 A 
ATOM      4  C   UNL     1       7.823  -1.616  22.692  0.00  0.00    +0.014 A 
ATOM      5  C   UNL     1       7.289  -2.909  22.619  0.00  0.00    +0.050 A 
ATOM      6  C   UNL     1       7.887  -3.959  23.327  0.00  0.00    +0.168 A 
ENDROOT
BRANCH   3   7
ATOM      7  C   UNL     1       9.578  -0.004  23.454  0.00  0.00    +0.091 A 
ATOM      8  C   UNL     1       9.696   0.672  22.138  0.00  0.00    +0.035 A 
ATOM      9  C   UNL     1      10.119   1.939  22.141  0.00  0.00    +0.073 A 
ATOM     10  C   UNL     1      10.492   2.596  23.406  0.00  0.00    +0.265 A 
ATOM     11  O   UNL     1      10.842   3.770  23.424  0.00  0.00    -0.266 OA
ATOM     12  N   UNL     1      10.437   1.805  24.525  0.00  0.00    -0.243 N 
ATOM     13  H   UNL     1      10.677   2.234  25.412  0.00  0.00    +0.192 HD
ATOM     14  N   UNL     1       9.961   0.528  24.576  0.00  0.00    -0.171 NA
ENDBRANCH   3   7
BRANCH   1  16
ATOM     15  C   UNL     1       9.299  -4.875  26.147  0.00  0.00    +0.277 C 
ATOM     16  O   UNL     1       9.591  -4.774  24.757  0.00  0.00    -0.491 OA
ENDBRANCH   1  16
BRANCH   6  17
ATOM     17  O   UNL     1       7.476  -5.265  23.272  0.00  0.00    -0.431 OA
BRANCH  17  18
ATOM     18  C   UNL     1       6.676  -5.635  22.167  0.00  0.00    +0.541 C 
ATOM     19  F   UNL     1       6.048  -6.795  22.488  0.00  0.00    -0.166 F 
ATOM     20  F   UNL     1       7.479  -5.913  21.109  0.00  0.00    -0.166 F 
ENDBRANCH  17  18
ENDBRANCH   6  17
TORSDOF 4
ENDMDL
MODEL 2
REMARK VINA RESULT:      -6.3      3.998      6.732
REMARK  Name = 
REMARK  5 active torsions:
REMARK  status: ('A' for Active; 'I' for Inactive)
REMARK    1  A    between atoms: C_1  and  O_2
REMARK    2  A    between atoms: O_2  and  C_3
REMARK    3  A    between atoms: C_4  and  O_5
REMARK    4  A    between atoms: O_5  and  C_6
REMARK    5  A    between atoms: C_11  and  C_13
REMARK                            x       y       z     vdW  Elec       q    Type
REMARK                         _______ _______ _______ _____ _____    ______ ____
ROOT
ATOM      1  C   UNL     1       9.332  -0.457  24.994  0.00  0.00    +0.162 A 
ATOM      2  C   UNL     1       8.742  -1.408  25.832  0.00  0.00    +0.059 A 
ATOM      3  C   UNL     1       8.795  -2.768  25.510  0.00  0.00    +0.006 A 
ATOM      4  C   UNL     1       9.456  -3.173  24.346  0.00  0.00    +0.014 A 
ATOM      5  C   UNL     1      10.072  -2.228  23.515  0.00  0.00    +0.050 A 
ATOM      6  C   UNL     1      10.020  -0.867  23.836  0.00  0.00    +0.168 A 
ENDROOT
BRANCH   3   7
ATOM      7  C   UNL     1       8.041  -3.768  26.322  0.00  0.00    +0.091 A 
ATOM      8  C   UNL     1       6.660  -3.416  26.735  0.00  0.00    +0.035 A 
ATOM      9  C   UNL     1       5.939  -4.372  27.328  0.00  0.00    +0.073 A 
ATOM     10  C   UNL     1       6.532  -5.694  27.592  0.00  0.00    +0.265 A 
ATOM     11  O   UNL     1       5.866  -6.590  28.097  0.00  0.00    -0.266 OA
ATOM     12  N   UNL     1       7.854  -5.831  27.254  0.00  0.00    -0.243 N 
ATOM     13  H   UNL     1       8.286  -6.735  27.414  0.00  0.00    +0.192 HD
ATOM     14  N   UNL     1       8.610  -4.903  26.600  0.00  0.00    -0.171 NA
ENDBRANCH   3   7
BRANCH   1  16
ATOM     15  C   UNL     1       8.004   1.487  25.300  0.00  0.00    +0.277 C 
ATOM     16  O   UNL     1       9.297   0.893  25.249  0.00  0.00    -0.491 OA
ENDBRANCH   1  16
BRANCH   6  17
ATOM     17  O   UNL     1      10.538   0.135  23.058  0.00  0.00    -0.431 OA
BRANCH  17  18
ATOM     18  C   UNL     1       9.702   0.646  22.038  0.00  0.00    +0.541 C 
ATOM     19  F   UNL     1       9.708  -0.248  21.018  0.00  0.00    -0.166 F 
ATOM     20  F   UNL     1      10.244   1.791  21.550  0.00  0.00    -0.166 F 
ENDBRANCH  17  18
ENDBRANCH   6  17
TORSDOF 4
ENDMDL
MODEL 3
REMARK VINA RESULT:      -6.3      4.349      7.026
REMARK  Name = 
REMARK  5 active torsions:
REMARK  status: ('A' for Active; 'I' for Inactive)
REMARK    1  A    between atoms: C_1  and  O_2
REMARK    2  A    between atoms: O_2  and  C_3
REMARK    3  A    between atoms: C_4  and  O_5
REMARK    4  A    between atoms: O_5  and  C_6
REMARK    5  A    between atoms: C_11  and  C_13
REMARK                            x       y       z     vdW  Elec       q    Type
REMARK                         _______ _______ _______ _____ _____    ______ ____
ROOT
ATOM      1  C   UNL     1       9.883  -1.512  23.919  0.00  0.00    +0.162 A 
ATOM      2  C   UNL     1       9.137  -2.540  24.504  0.00  0.00    +0.059 A 
ATOM      3  C   UNL     1       8.591  -2.383  25.782  0.00  0.00    +0.006 A 
ATOM      4  C   UNL     1       8.784  -1.180  26.467  0.00  0.00    +0.014 A 
ATOM      5  C   UNL     1       9.507  -0.134  25.878  0.00  0.00    +0.050 A 
ATOM      6  C   UNL     1      10.054  -0.291  24.599  0.00  0.00    +0.168 A 
ENDROOT
BRANCH   3   7
ATOM      7  C   UNL     1       7.925  -3.529  26.468  0.00  0.00    +0.091 A 
ATOM      8  C   UNL     1       6.526  -3.337  26.924  0.00  0.00    +0.035 A 
ATOM      9  C   UNL     1       5.887  -4.411  27.397  0.00  0.00    +0.073 A 
ATOM     10  C   UNL     1       6.583  -5.706  27.498  0.00  0.00    +0.265 A 
ATOM     11  O   UNL     1       5.994  -6.705  27.893  0.00  0.00    -0.266 OA
ATOM     12  N   UNL     1       7.908  -5.697  27.144  0.00  0.00    -0.243 N 
ATOM     13  H   UNL     1       8.409  -6.578  27.192  0.00  0.00    +0.192 HD
ATOM     14  N   UNL     1       8.583  -4.641  26.605  0.00  0.00    -0.171 NA
ENDBRANCH   3   7
BRANCH   1  16
ATOM     15  C   UNL     1       9.589  -1.410  21.566  0.00  0.00    +0.277 C 
ATOM     16  O   UNL     1      10.458  -1.616  22.676  0.00  0.00    -0.491 OA
ENDBRANCH   1  16
BRANCH   6  17
ATOM     17  O   UNL     1      10.825   0.648  23.964  0.00  0.00    -0.431 OA
BRANCH  17  18
ATOM     18  C   UNL     1      10.184   1.852  23.591  0.00  0.00    +0.541 C 
ATOM     19  F   UNL     1       9.960   1.798  22.254  0.00  0.00    -0.166 F 
ATOM     20  F   UNL     1      11.033   2.890  23.798  0.00  0.00    -0.166 F 
ENDBRANCH  17  18
ENDBRANCH   6  17
TORSDOF 4
ENDMDL
MODEL 4
REMARK VINA RESULT:      -6.0      1.526      1.768
REMARK  Name = 
REMARK  5 active torsions:
REMARK  status: ('A' for Active; 'I' for Inactive)
REMARK    1  A    between atoms: C_1  and  O_2
REMARK    2  A    between atoms: O_2  and  C_3
REMARK    3  A    between atoms: C_4  and  O_5
REMARK    4  A    between atoms: O_5  and  C_6
REMARK    5  A    between atoms: C_11  and  C_13
REMARK                            x       y       z     vdW  Elec       q    Type
REMARK                         _______ _______ _______ _____ _____    ______ ____
ROOT
ATOM      1  C   UNL     1       8.316  -3.984  23.862  0.00  0.00    +0.162 A 
ATOM      2  C   UNL     1       8.925  -2.736  24.023  0.00  0.00    +0.059 A 
ATOM      3  C   UNL     1       8.243  -1.563  23.683  0.00  0.00    +0.006 A 
ATOM      4  C   UNL     1       6.936  -1.648  23.192  0.00  0.00    +0.014 A 
ATOM      5  C   UNL     1       6.309  -2.893  23.053  0.00  0.00    +0.050 A 
ATOM      6  C   UNL     1       6.991  -4.067  23.393  0.00  0.00    +0.168 A 
ENDROOT
BRANCH   3   7
ATOM      7  C   UNL     1       8.941  -0.244  23.713  0.00  0.00    +0.091 A 
ATOM      8  C   UNL     1      10.181  -0.142  24.523  0.00  0.00    +0.035 A 
ATOM      9  C   UNL     1      10.881   0.991  24.423  0.00  0.00    +0.073 A 
ATOM     10  C   UNL     1      10.394   2.094  23.576  0.00  0.00    +0.265 A 
ATOM     11  O   UNL     1      11.049   3.121  23.446  0.00  0.00    -0.266 OA
ATOM     12  N   UNL     1       9.175   1.892  22.980  0.00  0.00    -0.243 N 
ATOM     13  H   UNL     1       8.821   2.630  22.381  0.00  0.00    +0.192 HD
ATOM     14  N   UNL     1       8.455   0.734  23.010  0.00  0.00    -0.171 NA
ENDBRANCH   3   7
BRANCH   1  16
ATOM     15  C   UNL     1       9.559  -5.243  25.444  0.00  0.00    +0.277 C 
ATOM     16  O   UNL     1       8.943  -5.169  24.162  0.00  0.00    -0.491 OA
ENDBRANCH   1  16
BRANCH   6  17
ATOM     17  O   UNL     1       6.486  -5.331  23.236  0.00  0.00    -0.431 OA
BRANCH  17  18
ATOM     18  C   UNL     1       5.471  -5.728  24.137  0.00  0.00    +0.541 C 
ATOM     19  F   UNL     1       6.045  -5.877  25.358  0.00  0.00    -0.166 F 
ATOM     20  F   UNL     1       5.009  -6.952  23.776  0.00  0.00    -0.166 F 
ENDBRANCH  17  18
ENDBRANCH   6  17
TORSDOF 4
ENDMDL
MODEL 5
REMARK VINA RESULT:      -6.0      2.598      3.384
REMARK  Name = 
REMARK  5 active torsions:
REMARK  status: ('A' for Active; 'I' for Inactive)
REMARK    1  A    between atoms: C_1  and  O_2
REMARK    2  A    between atoms: O_2  and  C_3
REMARK    3  A    between atoms: C_4  and  O_5
REMARK    4  A    between atoms: O_5  and  C_6
REMARK    5  A    between atoms: C_11  and  C_13
REMARK                            x       y       z     vdW  Elec       q    Type
REMARK                         _______ _______ _______ _____ _____    ______ ____
ROOT
ATOM      1  C   UNL     1       7.579  -3.023  23.359  0.00  0.00    +0.162 A 
ATOM      2  C   UNL     1       7.332  -1.728  22.893  0.00  0.00    +0.059 A 
ATOM      3  C   UNL     1       8.351  -0.771  22.881  0.00  0.00    +0.006 A 
ATOM      4  C   UNL     1       9.629  -1.123  23.327  0.00  0.00    +0.014 A 
ATOM      5  C   UNL     1       9.892  -2.426  23.770  0.00  0.00    +0.050 A 
ATOM      6  C   UNL     1       8.872  -3.385  23.782  0.00  0.00    +0.168 A 
ENDROOT
BRANCH   3   7
ATOM      7  C   UNL     1       8.054   0.649  22.527  0.00  0.00    +0.091 A 
ATOM      8  C   UNL     1       6.683   1.150  22.795  0.00  0.00    +0.035 A 
ATOM      9  C   UNL     1       6.467   2.456  22.619  0.00  0.00    +0.073 A 
ATOM     10  C   UNL     1       7.549   3.329  22.131  0.00  0.00    +0.265 A 
ATOM     11  O   UNL     1       7.373   4.535  22.005  0.00  0.00    -0.266 OA
ATOM     12  N   UNL     1       8.727   2.699  21.820  0.00  0.00    -0.243 N 
ATOM     13  H   UNL     1       9.494   3.278  21.493  0.00  0.00    +0.192 HD
ATOM     14  N   UNL     1       9.007   1.381  22.035  0.00  0.00    -0.171 NA
ENDBRANCH   3   7
BRANCH   1  16
ATOM     15  C   UNL     1       5.836  -4.172  22.230  0.00  0.00    +0.277 C 
ATOM     16  O   UNL     1       6.614  -3.999  23.410  0.00  0.00    -0.491 OA
ENDBRANCH   1  16
BRANCH   6  17
ATOM     17  O   UNL     1       9.015  -4.665  24.252  0.00  0.00    -0.431 OA
BRANCH  17  18
ATOM     18  C   UNL     1       9.201  -4.814  25.646  0.00  0.00    +0.541 C 
ATOM     19  F   UNL     1      10.462  -5.274  25.842  0.00  0.00    -0.166 F 
ATOM     20  F   UNL     1       8.364  -5.778  26.105  0.00  0.00    -0.166 F 
ENDBRANCH  17  18
ENDBRANCH   6  17
TORSDOF 4
ENDMDL
MODEL 6
REMARK VINA RESULT:      -5.9      4.001      7.053
REMARK  Name = 
REMARK  5 active torsions:
REMARK  status: ('A' for Active; 'I' for Inactive)
REMARK    1  A    between atoms: C_1  and  O_2
REMARK    2  A    between atoms: O_2  and  C_3
REMARK    3  A    between atoms: C_4  and  O_5
REMARK    4  A    between atoms: O_5  and  C_6
REMARK    5  A    between atoms: C_11  and  C_13
REMARK                            x       y       z     vdW  Elec       q    Type
REMARK                         _______ _______ _______ _____ _____    ______ ____
ROOT
ATOM      1  C   UNL     1       8.079   0.764  23.727  0.00  0.00    +0.162 A 
ATOM      2  C   UNL     1       7.551  -0.509  23.489  0.00  0.00    +0.059 A 
ATOM      3  C   UNL     1       8.340  -1.650  23.669  0.00  0.00    +0.006 A 
ATOM      4  C   UNL     1       9.662  -1.508  24.102  0.00  0.00    +0.014 A 
ATOM      5  C   UNL     1      10.190  -0.238  24.368  0.00  0.00    +0.050 A 
ATOM      6  C   UNL     1       9.401   0.904  24.189  0.00  0.00    +0.168 A 
ENDROOT
BRANCH   3   7
ATOM      7  C   UNL     1       7.828  -2.995  23.273  0.00  0.00    +0.091 A 
ATOM      8  C   UNL     1       6.769  -3.049  22.235  0.00  0.00    +0.035 A 
ATOM      9  C   UNL     1       6.425  -4.256  21.779  0.00  0.00    +0.073 A 
ATOM     10  C   UNL     1       7.051  -5.468  22.335  0.00  0.00    +0.265 A 
ATOM     11  O   UNL     1       6.773  -6.577  21.895  0.00  0.00    -0.266 OA
ATOM     12  N   UNL     1       7.930  -5.262  23.369  0.00  0.00    -0.243 N 
ATOM     13  H   UNL     1       8.385  -6.078  23.764  0.00  0.00    +0.192 HD
ATOM     14  N   UNL     1       8.350  -4.048  23.828  0.00  0.00    -0.171 NA
ENDBRANCH   3   7
BRANCH   1  16
ATOM     15  C   UNL     1       7.008   2.242  22.208  0.00  0.00    +0.277 C 
ATOM     16  O   UNL     1       7.357   1.920  23.551  0.00  0.00    -0.491 OA
ENDBRANCH   1  16
BRANCH   6  17
ATOM     17  O   UNL     1       9.844   2.189  24.364  0.00  0.00    -0.431 OA
BRANCH  17  18
ATOM     18  C   UNL     1      10.888   2.624  23.515  0.00  0.00    +0.541 C 
ATOM     19  F   UNL     1      10.943   3.977  23.596  0.00  0.00    -0.166 F 
ATOM     20  F   UNL     1      10.568   2.328  22.230  0.00  0.00    -0.166 F 
ENDBRANCH  17  18
ENDBRANCH   6  17
TORSDOF 4
ENDMDL
MODEL 7
REMARK VINA RESULT:      -5.8      4.427      7.237
REMARK  Name = 
REMARK  5 active torsions:
REMARK  status: ('A' for Active; 'I' for Inactive)
REMARK    1  A    between atoms: C_1  and  O_2
REMARK    2  A    between atoms: O_2  and  C_3
REMARK    3  A    between atoms: C_4  and  O_5
REMARK    4  A    between atoms: O_5  and  C_6
REMARK    5  A    between atoms: C_11  and  C_13
REMARK                            x       y       z     vdW  Elec       q    Type
REMARK                         _______ _______ _______ _____ _____    ______ ____
ROOT
ATOM      1  C   UNL     1       9.025   0.827  22.784  0.00  0.00    +0.162 A 
ATOM      2  C   UNL     1       8.526  -0.340  23.371  0.00  0.00    +0.059 A 
ATOM      3  C   UNL     1       9.146  -0.890  24.497  0.00  0.00    +0.006 A 
ATOM      4  C   UNL     1      10.265  -0.254  25.043  0.00  0.00    +0.014 A 
ATOM      5  C   UNL     1      10.756   0.930  24.477  0.00  0.00    +0.050 A 
ATOM      6  C   UNL     1      10.136   1.481  23.349  0.00  0.00    +0.168 A 
ENDROOT
BRANCH   3   7
ATOM      7  C   UNL     1       8.707  -2.212  25.034  0.00  0.00    +0.091 A 
ATOM      8  C   UNL     1       9.393  -3.423  24.519  0.00  0.00    +0.035 A 
ATOM      9  C   UNL     1       9.103  -4.584  25.112  0.00  0.00    +0.073 A 
ATOM     10  C   UNL     1       8.106  -4.638  26.194  0.00  0.00    +0.265 A 
ATOM     11  O   UNL     1       7.863  -5.692  26.772  0.00  0.00    -0.266 OA
ATOM     12  N   UNL     1       7.475  -3.455  26.481  0.00  0.00    -0.243 N 
ATOM     13  H   UNL     1       6.792  -3.459  27.231  0.00  0.00    +0.192 HD
ATOM     14  N   UNL     1       7.778  -2.239  25.941  0.00  0.00    -0.171 NA
ENDBRANCH   3   7
BRANCH   1  16
ATOM     15  C   UNL     1       7.258   2.124  21.873  0.00  0.00    +0.277 C 
ATOM     16  O   UNL     1       8.469   1.403  21.667  0.00  0.00    -0.491 OA
ENDBRANCH   1  16
BRANCH   6  17
ATOM     17  O   UNL     1      10.576   2.599  22.690  0.00  0.00    -0.431 OA
BRANCH  17  18
ATOM     18  C   UNL     1      11.094   3.646  23.487  0.00  0.00    +0.541 C 
ATOM     19  F   UNL     1      10.119   4.581  23.615  0.00  0.00    -0.166 F 
ATOM     20  F   UNL     1      12.116   4.245  22.825  0.00  0.00    -0.166 F 
ENDBRANCH  17  18
ENDBRANCH   6  17
TORSDOF 4
ENDMDL
MODEL 8
REMARK VINA RESULT:      -5.8      4.060      6.771
REMARK  Name = 
REMARK  5 active torsions:
REMARK  status: ('A' for Active; 'I' for Inactive)
REMARK    1  A    between atoms: C_1  and  O_2
REMARK    2  A    between atoms: O_2  and  C_3
REMARK    3  A    between atoms: C_4  and  O_5
REMARK    4  A    between atoms: O_5  and  C_6
REMARK    5  A    between atoms: C_11  and  C_13
REMARK                            x       y       z     vdW  Elec       q    Type
REMARK                         _______ _______ _______ _____ _____    ______ ____
ROOT
ATOM      1  C   UNL     1       9.250  -1.129  24.582  0.00  0.00    +0.162 A 
ATOM      2  C   UNL     1       8.401  -2.240  24.628  0.00  0.00    +0.059 A 
ATOM      3  C   UNL     1       8.041  -2.906  23.452  0.00  0.00    +0.006 A 
ATOM      4  C   UNL     1       8.548  -2.460  22.227  0.00  0.00    +0.014 A 
ATOM      5  C   UNL     1       9.419  -1.365  22.176  0.00  0.00    +0.050 A 
ATOM      6  C   UNL     1       9.781  -0.697  23.352  0.00  0.00    +0.168 A 
ENDROOT
BRANCH   3   7
ATOM      7  C   UNL     1       7.021  -3.996  23.481  0.00  0.00    +0.091 A 
ATOM      8  C   UNL     1       7.037  -4.981  22.371  0.00  0.00    +0.035 A 
ATOM      9  C   UNL     1       6.225  -6.035  22.481  0.00  0.00    +0.073 A 
ATOM     10  C   UNL     1       5.326  -6.163  23.641  0.00  0.00    +0.265 A 
ATOM     11  O   UNL     1       4.607  -7.147  23.772  0.00  0.00    -0.266 OA
ATOM     12  N   UNL     1       5.344  -5.115  24.526  0.00  0.00    -0.243 N 
ATOM     13  H   UNL     1       4.744  -5.182  25.341  0.00  0.00    +0.192 HD
ATOM     14  N   UNL     1       6.194  -4.049  24.481  0.00  0.00    -0.171 NA
ENDBRANCH   3   7
BRANCH   1  16
ATOM     15  C   UNL     1       8.886  -0.699  26.888  0.00  0.00    +0.277 C 
ATOM     16  O   UNL     1       9.624  -0.425  25.701  0.00  0.00    -0.491 OA
ENDBRANCH   1  16
BRANCH   6  17
ATOM     17  O   UNL     1      10.577   0.418  23.399  0.00  0.00    -0.431 OA
BRANCH  17  18
ATOM     18  C   UNL     1      10.006   1.627  22.939  0.00  0.00    +0.541 C 
ATOM     19  F   UNL     1      10.307   1.744  21.621  0.00  0.00    -0.166 F 
ATOM     20  F   UNL     1      10.608   2.670  23.565  0.00  0.00    -0.166 F 
ENDBRANCH  17  18
ENDBRANCH   6  17
TORSDOF 4
ENDMDL
MODEL 9
REMARK VINA RESULT:      -5.8      4.195      7.077
REMARK  Name = 
REMARK  5 active torsions:
REMARK  status: ('A' for Active; 'I' for Inactive)
REMARK    1  A    between atoms: C_1  and  O_2
REMARK    2  A    between atoms: O_2  and  C_3
REMARK    3  A    between atoms: C_4  and  O_5
REMARK    4  A    between atoms: O_5  and  C_6
REMARK    5  A    between atoms: C_11  and  C_13
REMARK                            x       y       z     vdW  Elec       q    Type
REMARK                         _______ _______ _______ _____ _____    ______ ____
ROOT
ATOM      1  C   UNL     1       8.081  -0.934  23.249  0.00  0.00    +0.162 A 
ATOM      2  C   UNL     1       7.135  -1.931  23.508  0.00  0.00    +0.059 A 
ATOM      3  C   UNL     1       7.538  -3.191  23.962  0.00  0.00    +0.006 A 
ATOM      4  C   UNL     1       8.898  -3.443  24.167  0.00  0.00    +0.014 A 
ATOM      5  C   UNL     1       9.850  -2.442  23.935  0.00  0.00    +0.050 A 
ATOM      6  C   UNL     1       9.447  -1.180  23.482  0.00  0.00    +0.168 A 
ENDROOT
BRANCH   3   7
ATOM      7  C   UNL     1       6.549  -4.300  24.096  0.00  0.00    +0.091 A 
ATOM      8  C   UNL     1       5.792  -4.695  22.882  0.00  0.00    +0.035 A 
ATOM      9  C   UNL     1       5.023  -5.784  22.972  0.00  0.00    +0.073 A 
ATOM     10  C   UNL     1       4.911  -6.512  24.247  0.00  0.00    +0.265 A 
ATOM     11  O   UNL     1       4.240  -7.534  24.329  0.00  0.00    -0.266 OA
ATOM     12  N   UNL     1       5.581  -5.958  25.308  0.00  0.00    -0.243 N 
ATOM     13  H   UNL     1       5.531  -6.446  26.197  0.00  0.00    +0.192 HD
ATOM     14  N   UNL     1       6.419  -4.884  25.249  0.00  0.00    -0.171 NA
ENDBRANCH   3   7
BRANCH   1  16
ATOM     15  C   UNL     1       7.070   1.164  23.709  0.00  0.00    +0.277 C 
ATOM     16  O   UNL     1       7.746   0.316  22.786  0.00  0.00    -0.491 OA
ENDBRANCH   1  16
BRANCH   6  17
ATOM     17  O   UNL     1      10.304  -0.157  23.169  0.00  0.00    -0.431 OA
BRANCH  17  18
ATOM     18  C   UNL     1      10.900   0.528  24.254  0.00  0.00    +0.541 C 
ATOM     19  F   UNL     1      10.041   0.459  25.301  0.00  0.00    -0.166 F 
ATOM     20  F   UNL     1      11.019   1.842  23.938  0.00  0.00    -0.166 F 
ENDBRANCH  17  18
ENDBRANCH   6  17
TORSDOF 4
ENDMDL
