MODEL 1
REMARK VINA RESULT:      58.9      0.000      0.000
REMARK  Name = 
REMARK  20 active torsions:
REMARK  status: ('A' for Active; 'I' for Inactive)
REMARK    1  A    between atoms: O_1  and  C_2
REMARK    2  A    between atoms: C_5  and  C_6
REMARK    3  A    between atoms: C_8  and  C_9
REMARK    4  A    between atoms: C_10  and  C_11
REMARK    5  A    between atoms: C_14  and  C_15
REMARK    6  A    between atoms: C_15  and  C_16
REMARK    7  A    between atoms: C_17  and  C_18
REMARK    8  A    between atoms: C_19  and  C_20
REMARK    9  A    between atoms: C_21  and  C_22
REMARK   10  A    between atoms: C_23  and  C_24
REMARK   11  A    between atoms: C_23  and  C_25
REMARK   12  A    between atoms: C_28  and  C_29
REMARK   13  A    between atoms: C_28  and  C_30
REMARK   14  A    between atoms: C_32  and  O_34
REMARK   15  A    between atoms: O_34  and  C_35
REMARK   16  A    between atoms: C_35  and  C_36
REMARK   17  A    between atoms: C_39  and  O_40
REMARK   18  A    between atoms: C_39  and  C_41
REMARK   19  A    between atoms: C_45  and  C_46
REMARK   20  A    between atoms: C_45  and  C_47
REMARK                            x       y       z     vdW  Elec       q    Type
REMARK                         _______ _______ _______ _____ _____    ______ ____
ROOT
ATOM      1  C   UNL     1       7.679  -1.129  22.702  0.00  0.00    -0.047 C 
ATOM      2  C   UNL     1       7.994   0.145  23.070  0.00  0.00    +0.003 C 
ATOM      3  C   UNL     1       8.604  -1.870  21.766  0.00  0.00    +0.044 C 
ENDROOT
BRANCH   1   9
ATOM      4  C   UNL     1       5.199  -4.443  25.313  0.00  0.00    +0.063 C 
ATOM      5  C   UNL     1       6.678  -4.535  25.433  0.00  0.00    +0.345 C 
ATOM      6  O   UNL     1       7.298  -5.335  26.119  0.00  0.00    -0.245 OA
ATOM      7  O   UNL     1       7.296  -3.575  24.656  0.00  0.00    -0.422 OA
ATOM      8  C   UNL     1       6.282  -2.845  24.055  0.00  0.00    +0.133 C 
ATOM      9  C   UNL     1       6.451  -1.798  23.226  0.00  0.00    +0.049 C 
ATOM     10  C   UNL     1       5.028  -3.404  24.480  0.00  0.00    +0.061 C 
BRANCH   4  12
ATOM     11  C   UNL     1       4.062  -5.635  27.210  0.00  0.00    +0.012 C 
ATOM     12  C   UNL     1       4.150  -5.275  25.916  0.00  0.00    +0.014 C 
BRANCH  11  18
ATOM     13  C   UNL     1       0.713  -7.145  29.755  0.00  0.00    +0.118 C 
ATOM     14  C   UNL     1       0.703  -6.179  28.430  0.00  0.00    +0.041 C 
ATOM     15  C   UNL     1       1.634  -6.790  27.331  0.00  0.00    +0.003 C 
ATOM     16  C   UNL     1       0.753  -8.084  27.048  0.00  0.00    +0.014 C 
ATOM     17  C   UNL     1       1.945  -6.621  25.797  0.00  0.00    +0.014 C 
ATOM     18  C   UNL     1       3.127  -6.588  28.007  0.00  0.00    +0.122 C 
ATOM     19  C   UNL     1       3.192  -7.167  29.490  0.00  0.00    +0.103 C 
ATOM     20  C   UNL     1       4.412  -7.945  29.825  0.00  0.00    +0.045 C 
ATOM     21  O   UNL     1       3.253  -5.813  29.253  0.00  0.00    -0.357 OA
ATOM     22  C   UNL     1       2.049  -7.211  30.485  0.00  0.00    +0.069 C 
BRANCH  13  23
ATOM     23  O   UNL     1       0.443  -8.562  29.548  0.00  0.00    -0.392 OA
ATOM     24  H   UNL     1      -0.514  -8.718  29.425  0.00  0.00    +0.210 HD
ENDBRANCH  13  23
ENDBRANCH  11  18
ENDBRANCH   4  12
ENDBRANCH   1   9
BRANCH   2  25
ATOM     25  C   UNL     1       9.158   0.906  22.596  0.00  0.00    +0.000 C 
ATOM     26  C   UNL     1       9.899   1.752  23.339  0.00  0.00    +0.000 C 
BRANCH  26  27
ATOM     27  C   UNL     1      11.050   2.490  22.813  0.00  0.00    +0.000 C 
ATOM     28  C   UNL     1      11.009   3.202  21.672  0.00  0.00    +0.000 C 
BRANCH  28  29
ATOM     29  C   UNL     1      12.125   3.956  21.106  0.00  0.00    +0.004 C 
ATOM     30  C   UNL     1      13.037   4.680  21.793  0.00  0.00    -0.043 C 
ATOM     31  C   UNL     1      13.062   4.799  23.301  0.00  0.00    +0.044 C 
BRANCH  30  32
ATOM     32  C   UNL     1      14.165   5.384  21.170  0.00  0.00    +0.054 C 
ATOM     33  C   UNL     1      14.638   5.228  19.966  0.00  0.00    -0.117 C 
ATOM     34  C   UNL     1      15.176   5.188  18.761  0.00  0.00    +0.009 C 
ATOM     35  C   UNL     1      16.393   6.052  18.354  0.00  0.00    +0.095 C 
ATOM     36  C   UNL     1      16.817   7.107  19.389  0.00  0.00    +0.047 C 
ATOM     37  C   UNL     1      16.147   6.777  17.006  0.00  0.00    +0.084 C 
ATOM     38  C   UNL     1      15.689   5.822  15.891  0.00  0.00    +0.180 C 
ATOM     39  C   UNL     1      14.440   5.070  16.348  0.00  0.00    +0.056 C 
ATOM     40  C   UNL     1      14.645   4.255  17.645  0.00  0.00    -0.000 C 
ATOM     41  C   UNL     1      13.273   3.630  17.983  0.00  0.00    +0.016 C 
ATOM     42  C   UNL     1      15.612   3.075  17.402  0.00  0.00    +0.016 C 
BRANCH  35  43
ATOM     43  O   UNL     1      17.519   5.170  18.252  0.00  0.00    -0.384 OA
ATOM     44  H   UNL     1      18.068   5.242  19.049  0.00  0.00    +0.211 HD
ENDBRANCH  35  43
BRANCH  38  45
ATOM     45  O   UNL     1      15.387   6.590  14.699  0.00  0.00    -0.461 OA
BRANCH  45  46
ATOM     46  C   UNL     1      14.853   5.888  13.686  0.00  0.00    +0.304 C 
ATOM     47  O   UNL     1      13.688   5.499  13.579  0.00  0.00    -0.251 OA
ATOM     48  C   UNL     1      15.863   5.642  12.591  0.00  0.00    +0.136 C 
ENDBRANCH  45  46
ENDBRANCH  38  45
ENDBRANCH  30  32
ENDBRANCH  28  29
ENDBRANCH  26  27
ENDBRANCH   2  25
TORSDOF 11
ENDMDL
MODEL 2
REMARK VINA RESULT:      60.9      1.197      1.308
REMARK  Name = 
REMARK  20 active torsions:
REMARK  status: ('A' for Active; 'I' for Inactive)
REMARK    1  A    between atoms: O_1  and  C_2
REMARK    2  A    between atoms: C_5  and  C_6
REMARK    3  A    between atoms: C_8  and  C_9
REMARK    4  A    between atoms: C_10  and  C_11
REMARK    5  A    between atoms: C_14  and  C_15
REMARK    6  A    between atoms: C_15  and  C_16
REMARK    7  A    between atoms: C_17  and  C_18
REMARK    8  A    between atoms: C_19  and  C_20
REMARK    9  A    between atoms: C_21  and  C_22
REMARK   10  A    between atoms: C_23  and  C_24
REMARK   11  A    between atoms: C_23  and  C_25
REMARK   12  A    between atoms: C_28  and  C_29
REMARK   13  A    between atoms: C_28  and  C_30
REMARK   14  A    between atoms: C_32  and  O_34
REMARK   15  A    between atoms: O_34  and  C_35
REMARK   16  A    between atoms: C_35  and  C_36
REMARK   17  A    between atoms: C_39  and  O_40
REMARK   18  A    between atoms: C_39  and  C_41
REMARK   19  A    between atoms: C_45  and  C_46
REMARK   20  A    between atoms: C_45  and  C_47
REMARK                            x       y       z     vdW  Elec       q    Type
REMARK                         _______ _______ _______ _____ _____    ______ ____
ROOT
ATOM      1  C   UNL     1       7.341  -0.701  23.637  0.00  0.00    -0.047 C 
ATOM      2  C   UNL     1       8.469  -0.093  24.102  0.00  0.00    +0.003 C 
ATOM      3  C   UNL     1       7.022  -0.623  22.163  0.00  0.00    +0.044 C 
ENDROOT
BRANCH   1   9
ATOM      4  C   UNL     1       4.577  -4.489  25.037  0.00  0.00    +0.063 C 
ATOM      5  C   UNL     1       5.250  -4.661  23.724  0.00  0.00    +0.345 C 
ATOM      6  O   UNL     1       5.181  -5.644  23.000  0.00  0.00    -0.245 OA
ATOM      7  O   UNL     1       5.995  -3.543  23.402  0.00  0.00    -0.422 OA
ATOM      8  C   UNL     1       5.857  -2.662  24.462  0.00  0.00    +0.133 C 
ATOM      9  C   UNL     1       6.437  -1.451  24.561  0.00  0.00    +0.049 C 
ATOM     10  C   UNL     1       4.990  -3.274  25.431  0.00  0.00    +0.061 C 
BRANCH   4  12
ATOM     11  C   UNL     1       3.803  -5.832  27.015  0.00  0.00    +0.012 C 
ATOM     12  C   UNL     1       3.661  -5.387  25.753  0.00  0.00    +0.014 C 
BRANCH  11  18
ATOM     13  C   UNL     1       0.593  -7.788  29.433  0.00  0.00    +0.118 C 
ATOM     14  C   UNL     1       0.555  -7.126  27.933  0.00  0.00    +0.041 C 
ATOM     15  C   UNL     1       1.793  -7.619  27.113  0.00  0.00    +0.003 C 
ATOM     16  C   UNL     1       1.356  -9.146  27.027  0.00  0.00    +0.014 C 
ATOM     17  C   UNL     1       2.310  -7.646  25.626  0.00  0.00    +0.014 C 
ATOM     18  C   UNL     1       3.035  -6.861  27.893  0.00  0.00    +0.122 C 
ATOM     19  C   UNL     1       2.993  -7.113  29.465  0.00  0.00    +0.103 C 
ATOM     20  C   UNL     1       4.300  -7.416  30.104  0.00  0.00    +0.045 C 
ATOM     21  O   UNL     1       2.729  -5.870  28.939  0.00  0.00    -0.357 OA
ATOM     22  C   UNL     1       1.749  -7.316  30.307  0.00  0.00    +0.069 C 
BRANCH  13  23
ATOM     23  O   UNL     1       0.755  -9.233  29.519  0.00  0.00    -0.392 OA
ATOM     24  H   UNL     1       1.681  -9.489  29.341  0.00  0.00    +0.210 HD
ENDBRANCH  13  23
ENDBRANCH  11  18
ENDBRANCH   4  12
ENDBRANCH   1   9
BRANCH   2  25
ATOM     25  C   UNL     1       9.410   0.692  23.291  0.00  0.00    +0.000 C 
ATOM     26  C   UNL     1      10.744   0.749  23.472  0.00  0.00    +0.000 C 
BRANCH  26  27
ATOM     27  C   UNL     1      11.638   1.552  22.634  0.00  0.00    +0.000 C 
ATOM     28  C   UNL     1      11.457   2.868  22.417  0.00  0.00    +0.000 C 
BRANCH  28  29
ATOM     29  C   UNL     1      12.318   3.714  21.594  0.00  0.00    +0.004 C 
ATOM     30  C   UNL     1      13.407   4.401  22.009  0.00  0.00    -0.043 C 
ATOM     31  C   UNL     1      13.935   4.373  23.427  0.00  0.00    +0.044 C 
BRANCH  30  32
ATOM     32  C   UNL     1      14.260   5.203  21.123  0.00  0.00    +0.054 C 
ATOM     33  C   UNL     1      14.575   4.960  19.882  0.00  0.00    -0.117 C 
ATOM     34  C   UNL     1      14.929   4.842  18.616  0.00  0.00    +0.009 C 
ATOM     35  C   UNL     1      15.866   5.849  17.906  0.00  0.00    +0.095 C 
ATOM     36  C   UNL     1      16.204   7.108  18.722  0.00  0.00    +0.047 C 
ATOM     37  C   UNL     1      15.280   6.304  16.545  0.00  0.00    +0.084 C 
ATOM     38  C   UNL     1      14.875   5.125  15.646  0.00  0.00    +0.180 C 
ATOM     39  C   UNL     1      13.892   4.229  16.396  0.00  0.00    +0.056 C 
ATOM     40  C   UNL     1      14.449   3.670  17.725  0.00  0.00    -0.000 C 
ATOM     41  C   UNL     1      13.303   2.856  18.365  0.00  0.00    +0.016 C 
ATOM     42  C   UNL     1      15.597   2.670  17.460  0.00  0.00    +0.016 C 
BRANCH  35  43
ATOM     43  O   UNL     1      17.124   5.189  17.717  0.00  0.00    -0.384 OA
ATOM     44  H   UNL     1      17.529   4.997  18.577  0.00  0.00    +0.211 HD
ENDBRANCH  35  43
BRANCH  38  45
ATOM     45  O   UNL     1      14.250   5.635  14.442  0.00  0.00    -0.461 OA
BRANCH  45  46
ATOM     46  C   UNL     1      13.251   6.510  14.642  0.00  0.00    +0.304 C 
ATOM     47  O   UNL     1      12.770   6.859  15.722  0.00  0.00    -0.251 OA
ATOM     48  C   UNL     1      12.769   7.106  13.341  0.00  0.00    +0.136 C 
ENDBRANCH  45  46
ENDBRANCH  38  45
ENDBRANCH  30  32
ENDBRANCH  28  29
ENDBRANCH  26  27
ENDBRANCH   2  25
TORSDOF 11
ENDMDL
