MODEL 1
REMARK VINA RESULT:      -4.7      0.000      0.000
REMARK  Name = 
REMARK  6 active torsions:
REMARK  status: ('A' for Active; 'I' for Inactive)
REMARK    1  A    between atoms: O_1  and  C_2
REMARK    2  A    between atoms: C_2  and  C_3
REMARK    3  A    between atoms: C_6  and  O_8
REMARK    4  A    between atoms: C_9  and  O_11
REMARK    5  A    between atoms: C_12  and  O_14
REMARK    6  A    between atoms: C_15  and  S_17
REMARK                            x       y       z     vdW  Elec       q    Type
REMARK                         _______ _______ _______ _____ _____    ______ ____
ROOT
ATOM      1  C   UNL     1       9.400  -2.266  23.937  0.00  0.00    +0.162 C 
ATOM      2  C   UNL     1       7.994  -2.550  23.365  0.00  0.00    +0.105 C 
ATOM      3  C   UNL     1       7.242  -3.547  24.268  0.00  0.00    +0.163 C 
ATOM      4  C   UNL     1       8.098  -4.767  24.614  0.00  0.00    +0.200 C 
ATOM      5  C   UNL     1       9.483  -4.329  25.093  0.00  0.00    +0.279 C 
ATOM      6  O   UNL     1      10.107  -3.512  24.124  0.00  0.00    -0.342 OA
ENDROOT
BRANCH   2   7
ATOM      7  S   UNL     1       7.009  -1.004  23.185  0.00  0.00    -0.170 S 
ATOM      8  H   UNL     1       7.606  -0.315  24.169  0.00  0.00    +0.102 HD
ENDBRANCH   2   7
BRANCH   3   9
ATOM      9  O   UNL     1       6.040  -4.007  23.629  0.00  0.00    -0.388 OA
ATOM     10  H   UNL     1       5.580  -4.556  24.293  0.00  0.00    +0.210 HD
ENDBRANCH   3   9
BRANCH   4  11
ATOM     11  O   UNL     1       7.417  -5.529  25.626  0.00  0.00    -0.384 OA
ATOM     12  H   UNL     1       6.902  -6.204  25.137  0.00  0.00    +0.210 HD
ENDBRANCH   4  11
BRANCH   5  13
ATOM     13  O   UNL     1      10.278  -5.491  25.277  0.00  0.00    -0.365 OA
ATOM     14  H   UNL     1      10.592  -5.703  24.381  0.00  0.00    +0.213 HD
ENDBRANCH   5  13
BRANCH   1  15
ATOM     15  C   UNL     1      10.263  -1.391  23.014  0.00  0.00    +0.188 C 
BRANCH  15  16
ATOM     16  O   UNL     1      10.096  -1.817  21.659  0.00  0.00    -0.392 OA
ATOM     17  H   UNL     1       9.507  -2.591  21.679  0.00  0.00    +0.210 HD
ENDBRANCH  15  16
ENDBRANCH   1  15
TORSDOF 6
ENDMDL
MODEL 2
REMARK VINA RESULT:      -4.6      2.818      3.329
REMARK  Name = 
REMARK  6 active torsions:
REMARK  status: ('A' for Active; 'I' for Inactive)
REMARK    1  A    between atoms: O_1  and  C_2
REMARK    2  A    between atoms: C_2  and  C_3
REMARK    3  A    between atoms: C_6  and  O_8
REMARK    4  A    between atoms: C_9  and  O_11
REMARK    5  A    between atoms: C_12  and  O_14
REMARK    6  A    between atoms: C_15  and  S_17
REMARK                            x       y       z     vdW  Elec       q    Type
REMARK                         _______ _______ _______ _____ _____    ______ ____
ROOT
ATOM      1  C   UNL     1       7.326  -4.949  23.119  0.00  0.00    +0.162 C 
ATOM      2  C   UNL     1       6.138  -5.114  24.093  0.00  0.00    +0.105 C 
ATOM      3  C   UNL     1       6.541  -4.659  25.509  0.00  0.00    +0.163 C 
ATOM      4  C   UNL     1       7.874  -5.268  25.949  0.00  0.00    +0.200 C 
ATOM      5  C   UNL     1       8.928  -5.094  24.854  0.00  0.00    +0.279 C 
ATOM      6  O   UNL     1       8.476  -5.653  23.638  0.00  0.00    -0.342 OA
ENDROOT
BRANCH   2   7
ATOM      7  S   UNL     1       4.663  -4.166  23.528  0.00  0.00    -0.170 S 
ATOM      8  H   UNL     1       5.225  -2.949  23.571  0.00  0.00    +0.102 HD
ENDBRANCH   2   7
BRANCH   3   9
ATOM      9  O   UNL     1       5.538  -5.029  26.468  0.00  0.00    -0.388 OA
ATOM     10  H   UNL     1       5.280  -4.201  26.916  0.00  0.00    +0.210 HD
ENDBRANCH   3   9
BRANCH   4  11
ATOM     11  O   UNL     1       8.285  -4.630  27.171  0.00  0.00    -0.384 OA
ATOM     12  H   UNL     1       8.530  -3.717  26.914  0.00  0.00    +0.210 HD
ENDBRANCH   4  11
BRANCH   5  13
ATOM     13  O   UNL     1      10.103  -5.785  25.255  0.00  0.00    -0.365 OA
ATOM     14  H   UNL     1      10.150  -6.539  24.643  0.00  0.00    +0.213 HD
ENDBRANCH   5  13
BRANCH   1  15
ATOM     15  C   UNL     1       7.043  -5.517  21.719  0.00  0.00    +0.188 C 
BRANCH  15  16
ATOM     16  O   UNL     1       6.401  -6.789  21.840  0.00  0.00    -0.392 OA
ATOM     17  H   UNL     1       6.674  -7.316  21.069  0.00  0.00    +0.210 HD
ENDBRANCH  15  16
ENDBRANCH   1  15
TORSDOF 6
ENDMDL
MODEL 3
REMARK VINA RESULT:      -4.5      3.920      5.901
REMARK  Name = 
REMARK  6 active torsions:
REMARK  status: ('A' for Active; 'I' for Inactive)
REMARK    1  A    between atoms: O_1  and  C_2
REMARK    2  A    between atoms: C_2  and  C_3
REMARK    3  A    between atoms: C_6  and  O_8
REMARK    4  A    between atoms: C_9  and  O_11
REMARK    5  A    between atoms: C_12  and  O_14
REMARK    6  A    between atoms: C_15  and  S_17
REMARK                            x       y       z     vdW  Elec       q    Type
REMARK                         _______ _______ _______ _____ _____    ______ ____
ROOT
ATOM      1  C   UNL     1       9.338   0.134  24.952  0.00  0.00    +0.162 C 
ATOM      2  C   UNL     1       9.192  -0.603  23.602  0.00  0.00    +0.105 C 
ATOM      3  C   UNL     1       9.923   0.172  22.490  0.00  0.00    +0.163 C 
ATOM      4  C   UNL     1       9.566   1.660  22.497  0.00  0.00    +0.200 C 
ATOM      5  C   UNL     1       9.684   2.231  23.911  0.00  0.00    +0.279 C 
ATOM      6  O   UNL     1       8.878   1.497  24.810  0.00  0.00    -0.342 OA
ENDROOT
BRANCH   2   7
ATOM      7  S   UNL     1       9.842  -2.324  23.697  0.00  0.00    -0.170 S 
ATOM      8  H   UNL     1       9.648  -2.643  22.408  0.00  0.00    +0.102 HD
ENDBRANCH   2   7
BRANCH   3   9
ATOM      9  O   UNL     1       9.597  -0.363  21.197  0.00  0.00    -0.388 OA
ATOM     10  H   UNL     1       9.733   0.369  20.564  0.00  0.00    +0.210 HD
ENDBRANCH   3   9
BRANCH   4  11
ATOM     11  O   UNL     1      10.445   2.344  21.587  0.00  0.00    -0.384 OA
ATOM     12  H   UNL     1      10.549   1.738  20.824  0.00  0.00    +0.210 HD
ENDBRANCH   4  11
BRANCH   5  13
ATOM     13  O   UNL     1       9.220   3.573  23.889  0.00  0.00    -0.365 OA
ATOM     14  H   UNL     1       8.607   3.596  23.135  0.00  0.00    +0.213 HD
ENDBRANCH   5  13
BRANCH   1  15
ATOM     15  C   UNL     1       8.514  -0.504  26.082  0.00  0.00    +0.188 C 
BRANCH  15  16
ATOM     16  O   UNL     1       9.264  -0.466  27.300  0.00  0.00    -0.392 OA
ATOM     17  H   UNL     1      10.176  -0.227  27.060  0.00  0.00    +0.210 HD
ENDBRANCH  15  16
ENDBRANCH   1  15
TORSDOF 6
ENDMDL
MODEL 4
REMARK VINA RESULT:      -4.4      1.759      3.504
REMARK  Name = 
REMARK  6 active torsions:
REMARK  status: ('A' for Active; 'I' for Inactive)
REMARK    1  A    between atoms: O_1  and  C_2
REMARK    2  A    between atoms: C_2  and  C_3
REMARK    3  A    between atoms: C_6  and  O_8
REMARK    4  A    between atoms: C_9  and  O_11
REMARK    5  A    between atoms: C_12  and  O_14
REMARK    6  A    between atoms: C_15  and  S_17
REMARK                            x       y       z     vdW  Elec       q    Type
REMARK                         _______ _______ _______ _____ _____    ______ ____
ROOT
ATOM      1  C   UNL     1       6.616  -3.310  25.333  0.00  0.00    +0.162 C 
ATOM      2  C   UNL     1       7.880  -2.721  24.668  0.00  0.00    +0.105 C 
ATOM      3  C   UNL     1       8.912  -3.834  24.404  0.00  0.00    +0.163 C 
ATOM      4  C   UNL     1       9.136  -4.713  25.636  0.00  0.00    +0.200 C 
ATOM      5  C   UNL     1       7.796  -5.157  26.226  0.00  0.00    +0.279 C 
ATOM      6  O   UNL     1       6.991  -4.034  26.526  0.00  0.00    -0.342 OA
ENDROOT
BRANCH   2   7
ATOM      7  S   UNL     1       7.475  -1.856  23.093  0.00  0.00    -0.170 S 
ATOM      8  H   UNL     1       6.346  -1.268  23.514  0.00  0.00    +0.102 HD
ENDBRANCH   2   7
BRANCH   3   9
ATOM      9  O   UNL     1      10.176  -3.274  24.014  0.00  0.00    -0.388 OA
ATOM     10  H   UNL     1      10.412  -3.711  23.173  0.00  0.00    +0.210 HD
ENDBRANCH   3   9
BRANCH   4  11
ATOM     11  O   UNL     1       9.932  -5.847  25.248  0.00  0.00    -0.384 OA
ATOM     12  H   UNL     1      10.289  -5.620  24.365  0.00  0.00    +0.210 HD
ENDBRANCH   4  11
BRANCH   5  13
ATOM     13  O   UNL     1       8.053  -5.858  27.434  0.00  0.00    -0.365 OA
ATOM     14  H   UNL     1       7.948  -6.792  27.189  0.00  0.00    +0.213 HD
ENDBRANCH   5  13
BRANCH   1  15
ATOM     15  C   UNL     1       5.600  -2.238  25.758  0.00  0.00    +0.188 C 
BRANCH  15  16
ATOM     16  O   UNL     1       4.389  -2.406  25.014  0.00  0.00    -0.392 OA
ATOM     17  H   UNL     1       3.655  -2.256  25.636  0.00  0.00    +0.210 HD
ENDBRANCH  15  16
ENDBRANCH   1  15
TORSDOF 6
ENDMDL
MODEL 5
REMARK VINA RESULT:      -4.4      2.115      4.123
REMARK  Name = 
REMARK  6 active torsions:
REMARK  status: ('A' for Active; 'I' for Inactive)
REMARK    1  A    between atoms: O_1  and  C_2
REMARK    2  A    between atoms: C_2  and  C_3
REMARK    3  A    between atoms: C_6  and  O_8
REMARK    4  A    between atoms: C_9  and  O_11
REMARK    5  A    between atoms: C_12  and  O_14
REMARK    6  A    between atoms: C_15  and  S_17
REMARK                            x       y       z     vdW  Elec       q    Type
REMARK                         _______ _______ _______ _____ _____    ______ ____
ROOT
ATOM      1  C   UNL     1       8.589  -3.437  24.312  0.00  0.00    +0.162 C 
ATOM      2  C   UNL     1       8.640  -2.541  25.570  0.00  0.00    +0.105 C 
ATOM      3  C   UNL     1       8.772  -1.061  25.166  0.00  0.00    +0.163 C 
ATOM      4  C   UNL     1       9.876  -0.845  24.129  0.00  0.00    +0.200 C 
ATOM      5  C   UNL     1       9.737  -1.850  22.984  0.00  0.00    +0.279 C 
ATOM      6  O   UNL     1       9.742  -3.172  23.483  0.00  0.00    -0.342 OA
ENDROOT
BRANCH   2   7
ATOM      7  S   UNL     1       7.149  -2.771  26.627  0.00  0.00    -0.170 S 
ATOM      8  H   UNL     1       7.105  -1.525  27.120  0.00  0.00    +0.102 HD
ENDBRANCH   2   7
BRANCH   3   9
ATOM      9  O   UNL     1       9.064  -0.244  26.311  0.00  0.00    -0.388 OA
ATOM     10  H   UNL     1       9.880  -0.614  26.701  0.00  0.00    +0.210 HD
ENDBRANCH   3   9
BRANCH   4  11
ATOM     11  O   UNL     1       9.787   0.507  23.644  0.00  0.00    -0.384 OA
ATOM     12  H   UNL     1       9.502   1.039  24.415  0.00  0.00    +0.210 HD
ENDBRANCH   4  11
BRANCH   5  13
ATOM     13  O   UNL     1      10.852  -1.695  22.118  0.00  0.00    -0.365 OA
ATOM     14  H   UNL     1      10.508  -1.155  21.388  0.00  0.00    +0.213 HD
ENDBRANCH   5  13
BRANCH   1  15
ATOM     15  C   UNL     1       8.602  -4.939  24.638  0.00  0.00    +0.188 C 
BRANCH  15  16
ATOM     16  O   UNL     1       9.948  -5.365  24.869  0.00  0.00    -0.392 OA
ATOM     17  H   UNL     1       9.917  -6.329  25.003  0.00  0.00    +0.210 HD
ENDBRANCH  15  16
ENDBRANCH   1  15
TORSDOF 6
ENDMDL
MODEL 6
REMARK VINA RESULT:      -4.3      2.329      3.546
REMARK  Name = 
REMARK  6 active torsions:
REMARK  status: ('A' for Active; 'I' for Inactive)
REMARK    1  A    between atoms: O_1  and  C_2
REMARK    2  A    between atoms: C_2  and  C_3
REMARK    3  A    between atoms: C_6  and  O_8
REMARK    4  A    between atoms: C_9  and  O_11
REMARK    5  A    between atoms: C_12  and  O_14
REMARK    6  A    between atoms: C_15  and  S_17
REMARK                            x       y       z     vdW  Elec       q    Type
REMARK                         _______ _______ _______ _____ _____    ______ ____
ROOT
ATOM      1  C   UNL     1       7.967  -4.543  24.740  0.00  0.00    +0.162 C 
ATOM      2  C   UNL     1       7.581  -3.059  24.557  0.00  0.00    +0.105 C 
ATOM      3  C   UNL     1       6.385  -2.933  23.594  0.00  0.00    +0.163 C 
ATOM      4  C   UNL     1       6.591  -3.748  22.315  0.00  0.00    +0.200 C 
ATOM      5  C   UNL     1       7.043  -5.170  22.654  0.00  0.00    +0.279 C 
ATOM      6  O   UNL     1       8.211  -5.141  23.448  0.00  0.00    -0.342 OA
ENDROOT
BRANCH   2   7
ATOM      7  S   UNL     1       7.174  -2.261  26.166  0.00  0.00    -0.170 S 
ATOM      8  H   UNL     1       7.820  -1.107  25.945  0.00  0.00    +0.102 HD
ENDBRANCH   2   7
BRANCH   3   9
ATOM      9  O   UNL     1       6.170  -1.562  23.224  0.00  0.00    -0.388 OA
ATOM     10  H   UNL     1       5.726  -1.588  22.354  0.00  0.00    +0.210 HD
ENDBRANCH   3   9
BRANCH   4  11
ATOM     11  O   UNL     1       5.355  -3.760  21.578  0.00  0.00    -0.384 OA
ATOM     12  H   UNL     1       4.866  -2.967  21.883  0.00  0.00    +0.210 HD
ENDBRANCH   4  11
BRANCH   5  13
ATOM     13  O   UNL     1       7.343  -5.843  21.440  0.00  0.00    -0.365 OA
ATOM     14  H   UNL     1       6.657  -5.533  20.825  0.00  0.00    +0.213 HD
ENDBRANCH   5  13
BRANCH   1  15
ATOM     15  C   UNL     1       9.243  -4.737  25.575  0.00  0.00    +0.188 C 
BRANCH  15  16
ATOM     16  O   UNL     1       9.922  -5.920  25.142  0.00  0.00    -0.392 OA
ATOM     17  H   UNL     1       9.283  -6.651  25.209  0.00  0.00    +0.210 HD
ENDBRANCH  15  16
ENDBRANCH   1  15
TORSDOF 6
ENDMDL
MODEL 7
REMARK VINA RESULT:      -4.2      1.987      4.107
REMARK  Name = 
REMARK  6 active torsions:
REMARK  status: ('A' for Active; 'I' for Inactive)
REMARK    1  A    between atoms: O_1  and  C_2
REMARK    2  A    between atoms: C_2  and  C_3
REMARK    3  A    between atoms: C_6  and  O_8
REMARK    4  A    between atoms: C_9  and  O_11
REMARK    5  A    between atoms: C_12  and  O_14
REMARK    6  A    between atoms: C_15  and  S_17
REMARK                            x       y       z     vdW  Elec       q    Type
REMARK                         _______ _______ _______ _____ _____    ______ ____
ROOT
ATOM      1  C   UNL     1       6.657  -5.373  25.384  0.00  0.00    +0.162 C 
ATOM      2  C   UNL     1       6.505  -3.842  25.251  0.00  0.00    +0.105 C 
ATOM      3  C   UNL     1       7.692  -3.253  24.465  0.00  0.00    +0.163 C 
ATOM      4  C   UNL     1       9.036  -3.762  24.989  0.00  0.00    +0.200 C 
ATOM      5  C   UNL     1       9.009  -5.285  25.138  0.00  0.00    +0.279 C 
ATOM      6  O   UNL     1       7.940  -5.681  25.973  0.00  0.00    -0.342 OA
ENDROOT
BRANCH   2   7
ATOM      7  S   UNL     1       4.922  -3.388  24.426  0.00  0.00    -0.170 S 
ATOM      8  H   UNL     1       4.109  -4.078  25.241  0.00  0.00    +0.102 HD
ENDBRANCH   2   7
BRANCH   3   9
ATOM      9  O   UNL     1       7.693  -1.819  24.540  0.00  0.00    -0.388 OA
ATOM     10  H   UNL     1       7.621  -1.603  25.490  0.00  0.00    +0.210 HD
ENDBRANCH   3   9
BRANCH   4  11
ATOM     11  O   UNL     1      10.067  -3.350  24.074  0.00  0.00    -0.384 OA
ATOM     12  H   UNL     1      10.335  -4.166  23.603  0.00  0.00    +0.210 HD
ENDBRANCH   4  11
BRANCH   5  13
ATOM     13  O   UNL     1      10.226  -5.693  25.746  0.00  0.00    -0.365 OA
ATOM     14  H   UNL     1      10.450  -4.956  26.340  0.00  0.00    +0.213 HD
ENDBRANCH   5  13
BRANCH   1  15
ATOM     15  C   UNL     1       5.585  -6.013  26.280  0.00  0.00    +0.188 C 
BRANCH  15  16
ATOM     16  O   UNL     1       6.197  -6.528  27.465  0.00  0.00    -0.392 OA
ATOM     17  H   UNL     1       7.027  -6.035  27.589  0.00  0.00    +0.210 HD
ENDBRANCH  15  16
ENDBRANCH   1  15
TORSDOF 6
ENDMDL
MODEL 8
REMARK VINA RESULT:      -4.2      2.562      4.384
REMARK  Name = 
REMARK  6 active torsions:
REMARK  status: ('A' for Active; 'I' for Inactive)
REMARK    1  A    between atoms: O_1  and  C_2
REMARK    2  A    between atoms: C_2  and  C_3
REMARK    3  A    between atoms: C_6  and  O_8
REMARK    4  A    between atoms: C_9  and  O_11
REMARK    5  A    between atoms: C_12  and  O_14
REMARK    6  A    between atoms: C_15  and  S_17
REMARK                            x       y       z     vdW  Elec       q    Type
REMARK                         _______ _______ _______ _____ _____    ______ ____
ROOT
ATOM      1  C   UNL     1       8.300  -0.407  25.019  0.00  0.00    +0.162 C 
ATOM      2  C   UNL     1       8.941   0.733  24.196  0.00  0.00    +0.105 C 
ATOM      3  C   UNL     1       9.344   0.222  22.800  0.00  0.00    +0.163 C 
ATOM      4  C   UNL     1      10.127  -1.091  22.874  0.00  0.00    +0.200 C 
ATOM      5  C   UNL     1       9.409  -2.091  23.782  0.00  0.00    +0.279 C 
ATOM      6  O   UNL     1       9.202  -1.535  25.064  0.00  0.00    -0.342 OA
ENDROOT
BRANCH   2   7
ATOM      7  S   UNL     1       7.802   2.171  24.031  0.00  0.00    -0.170 S 
ATOM      8  H   UNL     1       7.988   2.377  22.718  0.00  0.00    +0.102 HD
ENDBRANCH   2   7
BRANCH   3   9
ATOM      9  O   UNL     1      10.153   1.191  22.116  0.00  0.00    -0.388 OA
ATOM     10  H   UNL     1       9.680   1.394  21.285  0.00  0.00    +0.210 HD
ENDBRANCH   3   9
BRANCH   4  11
ATOM     11  O   UNL     1      10.270  -1.611  21.540  0.00  0.00    -0.384 OA
ATOM     12  H   UNL     1       9.692  -2.401  21.509  0.00  0.00    +0.210 HD
ENDBRANCH   4  11
BRANCH   5  13
ATOM     13  O   UNL     1      10.235  -3.238  23.920  0.00  0.00    -0.365 OA
ATOM     14  H   UNL     1      10.977  -2.927  24.466  0.00  0.00    +0.213 HD
ENDBRANCH   5  13
BRANCH   1  15
ATOM     15  C   UNL     1       8.003  -0.009  26.474  0.00  0.00    +0.188 C 
BRANCH  15  16
ATOM     16  O   UNL     1       9.067  -0.457  27.318  0.00  0.00    -0.392 OA
ATOM     17  H   UNL     1       9.522   0.340  27.643  0.00  0.00    +0.210 HD
ENDBRANCH  15  16
ENDBRANCH   1  15
TORSDOF 6
ENDMDL
MODEL 9
REMARK VINA RESULT:      -4.2      2.665      5.072
REMARK  Name = 
REMARK  6 active torsions:
REMARK  status: ('A' for Active; 'I' for Inactive)
REMARK    1  A    between atoms: O_1  and  C_2
REMARK    2  A    between atoms: C_2  and  C_3
REMARK    3  A    between atoms: C_6  and  O_8
REMARK    4  A    between atoms: C_9  and  O_11
REMARK    5  A    between atoms: C_12  and  O_14
REMARK    6  A    between atoms: C_15  and  S_17
REMARK                            x       y       z     vdW  Elec       q    Type
REMARK                         _______ _______ _______ _____ _____    ______ ____
ROOT
ATOM      1  C   UNL     1       5.650  -5.212  24.469  0.00  0.00    +0.162 C 
ATOM      2  C   UNL     1       7.159  -5.205  24.799  0.00  0.00    +0.105 C 
ATOM      3  C   UNL     1       7.845  -3.997  24.135  0.00  0.00    +0.163 C 
ATOM      4  C   UNL     1       7.470  -3.864  22.658  0.00  0.00    +0.200 C 
ATOM      5  C   UNL     1       5.953  -3.965  22.480  0.00  0.00    +0.279 C 
ATOM      6  O   UNL     1       5.469  -5.171  23.035  0.00  0.00    -0.342 OA
ENDROOT
BRANCH   2   7
ATOM      7  S   UNL     1       7.453  -5.170  26.617  0.00  0.00    -0.170 S 
ATOM      8  H   UNL     1       8.744  -5.535  26.581  0.00  0.00    +0.102 HD
ENDBRANCH   2   7
BRANCH   3   9
ATOM      9  O   UNL     1       9.274  -4.108  24.228  0.00  0.00    -0.388 OA
ATOM     10  H   UNL     1       9.447  -4.674  25.005  0.00  0.00    +0.210 HD
ENDBRANCH   3   9
BRANCH   4  11
ATOM     11  O   UNL     1       7.965  -2.604  22.173  0.00  0.00    -0.384 OA
ATOM     12  H   UNL     1       8.426  -2.813  21.335  0.00  0.00    +0.210 HD
ENDBRANCH   4  11
BRANCH   5  13
ATOM     13  O   UNL     1       5.667  -3.967  21.089  0.00  0.00    -0.365 OA
ATOM     14  H   UNL     1       6.412  -3.479  20.698  0.00  0.00    +0.213 HD
ENDBRANCH   5  13
BRANCH   1  15
ATOM     15  C   UNL     1       4.924  -6.468  24.979  0.00  0.00    +0.188 C 
BRANCH  15  16
ATOM     16  O   UNL     1       4.622  -7.326  23.875  0.00  0.00    -0.392 OA
ATOM     17  H   UNL     1       3.765  -7.034  23.519  0.00  0.00    +0.210 HD
ENDBRANCH  15  16
ENDBRANCH   1  15
TORSDOF 6
ENDMDL
