MODEL 1
REMARK VINA RESULT:      -7.4      0.000      0.000
REMARK  Name = 
REMARK  25 active torsions:
REMARK  status: ('A' for Active; 'I' for Inactive)
REMARK    1  A    between atoms: C_4  and  O_5
REMARK    2  A    between atoms: C_8  and  C_9
REMARK    3  A    between atoms: C_9  and  C_10
REMARK    4  A    between atoms: C_10  and  O_11
REMARK    5  A    between atoms: C_10  and  C_12
REMARK    6  A    between atoms: C_10  and  C_35
REMARK    7  A    between atoms: C_12  and  N_13
REMARK    8  A    between atoms: N_13  and  C_14
REMARK    9  A    between atoms: C_14  and  C_15
REMARK   10  A    between atoms: N_17  and  C_18
REMARK   11  A    between atoms: C_21  and  C_23
REMARK   12  A    between atoms: C_23  and  O_24
REMARK   13  A    between atoms: O_24  and  P_25
REMARK   14  A    between atoms: P_25  and  O_26
REMARK   15  A    between atoms: P_25  and  O_27
REMARK   16  A    between atoms: C_29  and  O_31
REMARK   17  A    between atoms: C_32  and  O_34
REMARK   18  A    between atoms: C_38  and  C_41
REMARK   19  A    between atoms: N_43  and  CA_44
REMARK   20  A    between atoms: CA_44  and  CB_46
REMARK   21  A    between atoms: CA_44  and  C_51
REMARK   22  A    between atoms: CB_46  and  CG_47
REMARK   23  A    between atoms: CG_47  and  CD_48
REMARK   24  A    between atoms: CD_48  and  OE1_49
REMARK   25  A    between atoms: C_51  and  O_52
REMARK                            x       y       z     vdW  Elec       q    Type
REMARK                         _______ _______ _______ _____ _____    ______ ____
ROOT
ATOM      1  C   UNK A   0       8.916  -2.643  23.950  0.00  0.00    +0.107 C 
ENDROOT
BRANCH   1   2
ATOM      2  C   UNK A   0       8.775  -1.118  23.859  0.00  0.00    -0.015 A 
ATOM      3  C   UNK A   0       9.734  -0.292  24.467  0.00  0.00    +0.007 A 
ATOM      4  C   UNK A   0       9.645   1.096  24.391  0.00  0.00    +0.013 A 
ATOM      5  C   UNK A   0       8.605   1.699  23.675  0.00  0.00    +0.037 A 
ATOM      6  C   UNK A   0       7.611   0.890  23.115  0.00  0.00    +0.013 A 
ATOM      7  C   UNK A   0       7.692  -0.505  23.210  0.00  0.00    +0.007 A 
BRANCH   5   8
ATOM      8  C   UNK A   0       8.546   3.175  23.449  0.00  0.00    +0.245 C 
ATOM      9  N   GLU A   1       9.482   3.950  24.107  0.00  0.00    -0.298 N 
ATOM     10  H   GLU A   1      10.280   3.499  24.538  0.00  0.00    +0.150 HD
ATOM     11  O   UNK A   0       7.739   3.656  22.662  0.00  0.00    -0.270 OA
BRANCH   9  12
ATOM     12  CA  GLU A   1       9.688   5.372  23.776  0.00  0.00    +0.182 C 
BRANCH  12  13
ATOM     13  C   GLU A   1       8.843   6.212  24.749  0.00  0.00    +0.325 C 
ATOM     14  OXT GLU A   1       9.256   6.739  25.770  0.00  0.00    -0.249 OA
BRANCH  13  15
ATOM     15  O   GLU A   1       7.563   6.374  24.319  0.00  0.00    -0.479 OA
ATOM     16  H   GLU A   1       7.496   7.204  23.802  0.00  0.00    +0.295 HD
ENDBRANCH  13  15
ENDBRANCH  12  13
BRANCH  12  17
ATOM     17  CB  GLU A   1      11.169   5.755  23.872  0.00  0.00    +0.045 C 
BRANCH  17  18
ATOM     18  CG  GLU A   1      12.115   4.649  23.398  0.00  0.00    +0.123 C 
BRANCH  18  19
ATOM     19  CD  GLU A   1      13.280   5.205  22.615  0.00  0.00    +0.305 C 
ATOM     20  OE2 GLU A   1      13.194   5.789  21.548  0.00  0.00    -0.251 OA
BRANCH  19  21
ATOM     21  OE1 GLU A   1      14.461   5.017  23.247  0.00  0.00    -0.481 OA
ATOM     22  HE1 GLU A   1      14.575   5.567  24.047  0.00  0.00    +0.295 HD
ENDBRANCH  19  21
ENDBRANCH  18  19
ENDBRANCH  17  18
ENDBRANCH  12  17
ENDBRANCH   9  12
ENDBRANCH   5   8
ENDBRANCH   1   2
BRANCH   1  23
ATOM     23  O   UNK A   0      10.290  -3.025  23.762  0.00  0.00    -0.382 OA
ATOM     24  H   UNK A   0      10.689  -3.187  24.634  0.00  0.00    +0.211 HD
ENDBRANCH   1  23
BRANCH   1  25
ATOM     25  C   UNK A   0       8.060  -3.298  22.794  0.00  0.00    +0.121 C 
BRANCH  25  26
ATOM     26  N   UNK A   0       7.911  -4.786  22.825  0.00  0.00    -0.305 NA
ATOM     27  H   UNK A   0       7.550  -5.037  23.750  0.00  0.00    +0.122 HD
BRANCH  26  28
ATOM     28  C   UNK A   0       6.893  -5.210  21.839  0.00  0.00    +0.177 C 
BRANCH  28  29
ATOM     29  C   UNK A   0       5.463  -4.976  22.292  0.00  0.00    +0.229 C 
ATOM     30  N   UNK A   0       4.825  -6.017  22.906  0.00  0.00    -0.287 N 
ATOM     31  H   UNK A   0       5.190  -6.930  22.660  0.00  0.00    +0.151 HD
ATOM     32  O   UNK A   0       4.952  -3.856  22.145  0.00  0.00    -0.274 OA
BRANCH  30  33
ATOM     33  C   UNK A   0       3.457  -5.969  23.365  0.00  0.00    +0.237 C 
ATOM     34  C   UNK A   0       2.628  -7.275  23.332  0.00  0.00    +0.192 C 
ATOM     35  C   UNK A   0       2.482  -7.672  24.805  0.00  0.00    +0.178 C 
ATOM     36  C   UNK A   0       3.372  -6.681  25.555  0.00  0.00    +0.178 C 
ATOM     37  O   UNK A   0       3.462  -5.511  24.720  0.00  0.00    -0.348 OA
BRANCH  35  38
ATOM     38  O   UNK A   0       2.785  -9.043  25.044  0.00  0.00    -0.386 OA
ATOM     39  H   UNK A   0       2.074  -9.607  24.697  0.00  0.00    +0.210 HD
ENDBRANCH  35  38
BRANCH  34  40
ATOM     40  O   UNK A   0       1.321  -7.011  22.777  0.00  0.00    -0.385 OA
ATOM     41  H   UNK A   0       1.390  -7.052  21.806  0.00  0.00    +0.210 HD
ENDBRANCH  34  40
BRANCH  36  42
ATOM     42  C   UNK A   0       2.789  -6.316  26.915  0.00  0.00    +0.206 C 
BRANCH  42  43
ATOM     43  O   UNK A   0       3.686  -6.740  27.939  0.00  0.00    -0.284 OA
BRANCH  43  44
ATOM     44  P   UNK A   0       5.345  -6.375  27.615  0.00  0.00    +0.472 P 
ATOM     45  O   UNK A   0       6.831  -6.049  27.325  0.00  0.00    -0.228 OA
BRANCH  44  46
ATOM     46  O   UNK A   0       5.057  -5.012  28.462  0.00  0.00    -0.303 OA
ATOM     47  H   UNK A   0       5.600  -4.301  28.073  0.00  0.00    +0.222 HD
ENDBRANCH  44  46
BRANCH  44  48
ATOM     48  O   UNK A   0       5.701  -7.367  28.864  0.00  0.00    -0.303 OA
ATOM     49  H   UNK A   0       5.977  -6.794  29.606  0.00  0.00    +0.222 HD
ENDBRANCH  44  48
ENDBRANCH  43  44
ENDBRANCH  42  43
ENDBRANCH  36  42
ENDBRANCH  30  33
ENDBRANCH  28  29
ENDBRANCH  26  28
ENDBRANCH  25  26
ENDBRANCH   1  25
BRANCH   1  50
ATOM     50  C   UNK A   0       8.474  -3.191  25.348  0.00  0.00    +0.076 C 
BRANCH  50  59
ATOM     51  N   UNK A   0       2.519   1.336  27.489  0.00  0.00    -0.327 N 
ATOM     52  H   UNK A   0       1.720   0.741  27.313  0.00  0.00    +0.145 HD
ATOM     53  H   UNK A   0       2.525   1.876  28.333  0.00  0.00    +0.145 HD
ATOM     54  C   UNK A   0       3.690   0.616  27.347  0.00  0.00    +0.216 A 
ATOM     55  N   UNK A   0       3.631  -0.503  26.624  0.00  0.00    -0.214 NA
ATOM     56  C   UNK A   0       4.769  -1.183  26.434  0.00  0.00    +0.080 A 
ATOM     57  C   UNK A   0       5.983  -0.769  26.972  0.00  0.00    +0.062 A 
ATOM     58  C   UNK A   0       7.181  -1.472  26.694  0.00  0.00    +0.019 A 
ATOM     59  C   UNK A   0       7.172  -2.577  25.839  0.00  0.00    -0.043 A 
ATOM     60  C   UNK A   0       5.941  -3.027  25.356  0.00  0.00    +0.006 A 
ATOM     61  C   UNK A   0       5.896   0.378  27.740  0.00  0.00    +0.225 A 
ATOM     62  C   UNK A   0       4.762  -2.326  25.652  0.00  0.00    +0.029 A 
ATOM     63  N   UNK A   0       4.777   1.089  27.957  0.00  0.00    -0.179 NA
BRANCH  61  64
ATOM     64  O   UNK A   0       6.989   0.914  28.343  0.00  0.00    -0.492 OA
ATOM     65  H   UNK A   0       6.693   0.917  29.272  0.00  0.00    +0.294 HD
ENDBRANCH  61  64
ENDBRANCH  50  59
ENDBRANCH   1  50
TORSDOF 25
ENDMDL
MODEL 2
REMARK VINA RESULT:      -7.4      2.441      3.479
REMARK  Name = 
REMARK  25 active torsions:
REMARK  status: ('A' for Active; 'I' for Inactive)
REMARK    1  A    between atoms: C_4  and  O_5
REMARK    2  A    between atoms: C_8  and  C_9
REMARK    3  A    between atoms: C_9  and  C_10
REMARK    4  A    between atoms: C_10  and  O_11
REMARK    5  A    between atoms: C_10  and  C_12
REMARK    6  A    between atoms: C_10  and  C_35
REMARK    7  A    between atoms: C_12  and  N_13
REMARK    8  A    between atoms: N_13  and  C_14
REMARK    9  A    between atoms: C_14  and  C_15
REMARK   10  A    between atoms: N_17  and  C_18
REMARK   11  A    between atoms: C_21  and  C_23
REMARK   12  A    between atoms: C_23  and  O_24
REMARK   13  A    between atoms: O_24  and  P_25
REMARK   14  A    between atoms: P_25  and  O_26
REMARK   15  A    between atoms: P_25  and  O_27
REMARK   16  A    between atoms: C_29  and  O_31
REMARK   17  A    between atoms: C_32  and  O_34
REMARK   18  A    between atoms: C_38  and  C_41
REMARK   19  A    between atoms: N_43  and  CA_44
REMARK   20  A    between atoms: CA_44  and  CB_46
REMARK   21  A    between atoms: CA_44  and  C_51
REMARK   22  A    between atoms: CB_46  and  CG_47
REMARK   23  A    between atoms: CG_47  and  CD_48
REMARK   24  A    between atoms: CD_48  and  OE1_49
REMARK   25  A    between atoms: C_51  and  O_52
REMARK                            x       y       z     vdW  Elec       q    Type
REMARK                         _______ _______ _______ _____ _____    ______ ____
ROOT
ATOM      1  C   UNK A   0       9.001  -1.680  22.668  0.00  0.00    +0.107 C 
ENDROOT
BRANCH   1   2
ATOM      2  C   UNK A   0       8.718  -0.183  22.854  0.00  0.00    -0.015 A 
ATOM      3  C   UNK A   0       7.533   0.228  23.485  0.00  0.00    +0.007 A 
ATOM      4  C   UNK A   0       7.253   1.579  23.684  0.00  0.00    +0.013 A 
ATOM      5  C   UNK A   0       8.168   2.558  23.283  0.00  0.00    +0.037 A 
ATOM      6  C   UNK A   0       9.325   2.163  22.600  0.00  0.00    +0.013 A 
ATOM      7  C   UNK A   0       9.595   0.807  22.383  0.00  0.00    +0.007 A 
BRANCH   5   8
ATOM      8  C   UNK A   0       7.976   4.005  23.600  0.00  0.00    +0.245 C 
ATOM      9  N   GLU A   1       8.697   4.517  24.663  0.00  0.00    -0.298 N 
ATOM     10  H   GLU A   1       9.460   3.973  25.047  0.00  0.00    +0.150 HD
ATOM     11  O   UNK A   0       7.259   4.710  22.900  0.00  0.00    -0.270 OA
BRANCH   9  12
ATOM     12  CA  GLU A   1       8.789   5.966  24.916  0.00  0.00    +0.182 C 
BRANCH  12  13
ATOM     13  C   GLU A   1       8.305   6.227  26.354  0.00  0.00    +0.325 C 
ATOM     14  OXT GLU A   1       9.009   6.595  27.280  0.00  0.00    -0.249 OA
BRANCH  13  15
ATOM     15  O   GLU A   1       6.961   6.066  26.486  0.00  0.00    -0.479 OA
ATOM     16  H   GLU A   1       6.720   5.143  26.257  0.00  0.00    +0.295 HD
ENDBRANCH  13  15
ENDBRANCH  12  13
BRANCH  12  17
ATOM     17  CB  GLU A   1      10.223   6.472  24.727  0.00  0.00    +0.045 C 
BRANCH  17  18
ATOM     18  CG  GLU A   1      10.964   5.783  23.578  0.00  0.00    +0.123 C 
BRANCH  18  19
ATOM     19  CD  GLU A   1      12.447   5.688  23.844  0.00  0.00    +0.305 C 
ATOM     20  OE2 GLU A   1      13.226   4.979  23.230  0.00  0.00    -0.251 OA
BRANCH  19  21
ATOM     21  OE1 GLU A   1      12.846   6.517  24.834  0.00  0.00    -0.481 OA
ATOM     22  HE1 GLU A   1      12.170   7.171  25.102  0.00  0.00    +0.295 HD
ENDBRANCH  19  21
ENDBRANCH  18  19
ENDBRANCH  17  18
ENDBRANCH  12  17
ENDBRANCH   9  12
ENDBRANCH   5   8
ENDBRANCH   1   2
BRANCH   1  23
ATOM     23  O   UNK A   0       9.508  -1.927  21.345  0.00  0.00    -0.382 OA
ATOM     24  H   UNK A   0       9.587  -1.077  20.879  0.00  0.00    +0.211 HD
ENDBRANCH   1  23
BRANCH   1  25
ATOM     25  C   UNK A   0       7.644  -2.473  22.833  0.00  0.00    +0.121 C 
BRANCH  25  26
ATOM     26  N   UNK A   0       7.381  -3.571  21.852  0.00  0.00    -0.305 NA
ATOM     27  H   UNK A   0       8.190  -3.621  21.225  0.00  0.00    +0.122 HD
BRANCH  26  28
ATOM     28  C   UNK A   0       7.307  -4.869  22.557  0.00  0.00    +0.177 C 
BRANCH  28  29
ATOM     29  C   UNK A   0       5.918  -5.483  22.572  0.00  0.00    +0.229 C 
ATOM     30  N   UNK A   0       5.371  -5.755  23.794  0.00  0.00    -0.287 N 
ATOM     31  H   UNK A   0       6.052  -5.896  24.532  0.00  0.00    +0.151 HD
ATOM     32  O   UNK A   0       5.318  -5.661  21.502  0.00  0.00    -0.274 OA
BRANCH  30  33
ATOM     33  C   UNK A   0       4.076  -6.367  23.981  0.00  0.00    +0.237 C 
ATOM     34  C   UNK A   0       3.797  -7.092  25.320  0.00  0.00    +0.192 C 
ATOM     35  C   UNK A   0       2.809  -6.178  26.051  0.00  0.00    +0.178 C 
ATOM     36  C   UNK A   0       2.728  -4.929  25.174  0.00  0.00    +0.178 C 
ATOM     37  O   UNK A   0       3.082  -5.349  23.842  0.00  0.00    -0.348 OA
BRANCH  35  38
ATOM     38  O   UNK A   0       3.175  -5.932  27.404  0.00  0.00    -0.386 OA
ATOM     39  H   UNK A   0       3.335  -6.773  27.864  0.00  0.00    +0.210 HD
ENDBRANCH  35  38
BRANCH  34  40
ATOM     40  O   UNK A   0       3.169  -8.368  25.063  0.00  0.00    -0.385 OA
ATOM     41  H   UNK A   0       2.411  -8.218  24.470  0.00  0.00    +0.210 HD
ENDBRANCH  34  40
BRANCH  36  42
ATOM     42  C   UNK A   0       1.330  -4.322  25.183  0.00  0.00    +0.206 C 
BRANCH  42  43
ATOM     43  O   UNK A   0       1.432  -2.909  25.336  0.00  0.00    -0.284 OA
BRANCH  43  44
ATOM     44  P   UNK A   0       2.301  -2.415  26.748  0.00  0.00    +0.472 P 
ATOM     45  O   UNK A   0       3.079  -1.973  28.012  0.00  0.00    -0.228 OA
BRANCH  44  46
ATOM     46  O   UNK A   0       3.476  -1.995  25.697  0.00  0.00    -0.303 OA
ATOM     47  H   UNK A   0       3.077  -1.415  25.023  0.00  0.00    +0.222 HD
ENDBRANCH  44  46
BRANCH  44  48
ATOM     48  O   UNK A   0       1.418  -1.042  26.686  0.00  0.00    -0.303 OA
ATOM     49  H   UNK A   0       2.041  -0.317  26.487  0.00  0.00    +0.222 HD
ENDBRANCH  44  48
ENDBRANCH  43  44
ENDBRANCH  42  43
ENDBRANCH  36  42
ENDBRANCH  30  33
ENDBRANCH  28  29
ENDBRANCH  26  28
ENDBRANCH  25  26
ENDBRANCH   1  25
BRANCH   1  50
ATOM     50  C   UNK A   0      10.077  -2.204  23.677  0.00  0.00    +0.076 C 
BRANCH  50  59
ATOM     51  N   UNK A   0       5.724  -6.642  28.356  0.00  0.00    -0.327 N 
ATOM     52  H   UNK A   0       6.340  -7.421  28.551  0.00  0.00    +0.145 HD
ATOM     53  H   UNK A   0       5.189  -6.266  29.115  0.00  0.00    +0.145 HD
ATOM     54  C   UNK A   0       6.411  -5.647  27.688  0.00  0.00    +0.216 A 
ATOM     55  N   UNK A   0       7.528  -6.002  27.051  0.00  0.00    -0.214 NA
ATOM     56  C   UNK A   0       8.176  -5.058  26.356  0.00  0.00    +0.080 A 
ATOM     57  C   UNK A   0       7.731  -3.742  26.293  0.00  0.00    +0.062 A 
ATOM     58  C   UNK A   0       8.400  -2.784  25.491  0.00  0.00    +0.019 A 
ATOM     59  C   UNK A   0       9.501  -3.156  24.714  0.00  0.00    -0.043 A 
ATOM     60  C   UNK A   0       9.981  -4.462  24.833  0.00  0.00    +0.006 A 
ATOM     61  C   UNK A   0       6.591  -3.497  27.037  0.00  0.00    +0.225 A 
ATOM     62  C   UNK A   0       9.315  -5.394  25.642  0.00  0.00    +0.029 A 
ATOM     63  N   UNK A   0       5.912  -4.412  27.748  0.00  0.00    -0.179 NA
BRANCH  61  64
ATOM     64  O   UNK A   0       6.028  -2.262  27.088  0.00  0.00    -0.492 OA
ATOM     65  H   UNK A   0       6.804  -1.708  26.884  0.00  0.00    +0.294 HD
ENDBRANCH  61  64
ENDBRANCH  50  59
ENDBRANCH   1  50
TORSDOF 25
ENDMDL
MODEL 3
REMARK VINA RESULT:      -7.3      2.507      3.653
REMARK  Name = 
REMARK  25 active torsions:
REMARK  status: ('A' for Active; 'I' for Inactive)
REMARK    1  A    between atoms: C_4  and  O_5
REMARK    2  A    between atoms: C_8  and  C_9
REMARK    3  A    between atoms: C_9  and  C_10
REMARK    4  A    between atoms: C_10  and  O_11
REMARK    5  A    between atoms: C_10  and  C_12
REMARK    6  A    between atoms: C_10  and  C_35
REMARK    7  A    between atoms: C_12  and  N_13
REMARK    8  A    between atoms: N_13  and  C_14
REMARK    9  A    between atoms: C_14  and  C_15
REMARK   10  A    between atoms: N_17  and  C_18
REMARK   11  A    between atoms: C_21  and  C_23
REMARK   12  A    between atoms: C_23  and  O_24
REMARK   13  A    between atoms: O_24  and  P_25
REMARK   14  A    between atoms: P_25  and  O_26
REMARK   15  A    between atoms: P_25  and  O_27
REMARK   16  A    between atoms: C_29  and  O_31
REMARK   17  A    between atoms: C_32  and  O_34
REMARK   18  A    between atoms: C_38  and  C_41
REMARK   19  A    between atoms: N_43  and  CA_44
REMARK   20  A    between atoms: CA_44  and  CB_46
REMARK   21  A    between atoms: CA_44  and  C_51
REMARK   22  A    between atoms: CB_46  and  CG_47
REMARK   23  A    between atoms: CG_47  and  CD_48
REMARK   24  A    between atoms: CD_48  and  OE1_49
REMARK   25  A    between atoms: C_51  and  O_52
REMARK                            x       y       z     vdW  Elec       q    Type
REMARK                         _______ _______ _______ _____ _____    ______ ____
ROOT
ATOM      1  C   UNK A   0       8.727  -3.899  24.839  0.00  0.00    +0.107 C 
ENDROOT
BRANCH   1   2
ATOM      2  C   UNK A   0       8.738  -2.524  24.158  0.00  0.00    -0.015 A 
ATOM      3  C   UNK A   0       7.568  -1.748  24.136  0.00  0.00    +0.007 A 
ATOM      4  C   UNK A   0       7.547  -0.489  23.540  0.00  0.00    +0.013 A 
ATOM      5  C   UNK A   0       8.710   0.045  22.974  0.00  0.00    +0.037 A 
ATOM      6  C   UNK A   0       9.867  -0.742  22.937  0.00  0.00    +0.013 A 
ATOM      7  C   UNK A   0       9.880  -2.015  23.518  0.00  0.00    +0.007 A 
BRANCH   5   8
ATOM      8  C   UNK A   0       8.772   1.443  22.450  0.00  0.00    +0.245 C 
ATOM      9  N   GLU A   1       8.965   2.453  23.374  0.00  0.00    -0.298 N 
ATOM     10  H   GLU A   1       9.258   2.211  24.313  0.00  0.00    +0.150 HD
ATOM     11  O   UNK A   0       8.717   1.664  21.246  0.00  0.00    -0.270 OA
BRANCH   9  12
ATOM     12  CA  GLU A   1       9.293   3.830  22.965  0.00  0.00    +0.182 C 
BRANCH  12  13
ATOM     13  C   GLU A   1       8.018   4.681  23.101  0.00  0.00    +0.325 C 
ATOM     14  OXT GLU A   1       7.127   4.494  23.914  0.00  0.00    -0.249 OA
BRANCH  13  15
ATOM     15  O   GLU A   1       8.004   5.736  22.242  0.00  0.00    -0.479 OA
ATOM     16  H   GLU A   1       8.924   6.035  22.080  0.00  0.00    +0.295 HD
ENDBRANCH  13  15
ENDBRANCH  12  13
BRANCH  12  17
ATOM     17  CB  GLU A   1      10.425   4.409  23.823  0.00  0.00    +0.045 C 
BRANCH  17  18
ATOM     18  CG  GLU A   1      11.815   3.935  23.393  0.00  0.00    +0.123 C 
BRANCH  18  19
ATOM     19  CD  GLU A   1      12.715   5.092  23.030  0.00  0.00    +0.305 C 
ATOM     20  OE2 GLU A   1      12.336   6.165  22.593  0.00  0.00    -0.251 OA
BRANCH  19  21
ATOM     21  OE1 GLU A   1      14.018   4.827  23.278  0.00  0.00    -0.481 OA
ATOM     22  HE1 GLU A   1      14.433   4.229  22.626  0.00  0.00    +0.295 HD
ENDBRANCH  19  21
ENDBRANCH  18  19
ENDBRANCH  17  18
ENDBRANCH  12  17
ENDBRANCH   9  12
ENDBRANCH   5   8
ENDBRANCH   1   2
BRANCH   1  23
ATOM     23  O   UNK A   0       9.963  -4.588  24.581  0.00  0.00    -0.382 OA
ATOM     24  H   UNK A   0      10.573  -3.975  24.137  0.00  0.00    +0.211 HD
ENDBRANCH   1  23
BRANCH   1  25
ATOM     25  C   UNK A   0       7.548  -4.754  24.227  0.00  0.00    +0.121 C 
BRANCH  25  26
ATOM     26  N   UNK A   0       7.564  -4.966  22.747  0.00  0.00    -0.305 NA
ATOM     27  H   UNK A   0       8.496  -5.314  22.499  0.00  0.00    +0.122 HD
BRANCH  26  28
ATOM     28  C   UNK A   0       6.601  -6.026  22.379  0.00  0.00    +0.177 C 
BRANCH  28  29
ATOM     29  C   UNK A   0       5.153  -5.670  22.670  0.00  0.00    +0.229 C 
ATOM     30  N   UNK A   0       4.422  -6.577  23.385  0.00  0.00    -0.287 N 
ATOM     31  H   UNK A   0       4.759  -7.530  23.316  0.00  0.00    +0.151 HD
ATOM     32  O   UNK A   0       4.710  -4.571  22.309  0.00  0.00    -0.274 OA
BRANCH  30  33
ATOM     33  C   UNK A   0       3.027  -6.406  23.718  0.00  0.00    +0.237 C 
ATOM     34  C   UNK A   0       1.977  -6.628  22.603  0.00  0.00    +0.192 C 
ATOM     35  C   UNK A   0       1.291  -7.945  22.981  0.00  0.00    +0.178 C 
ATOM     36  C   UNK A   0       2.101  -8.467  24.168  0.00  0.00    +0.178 C 
ATOM     37  O   UNK A   0       2.711  -7.313  24.777  0.00  0.00    -0.348 OA
BRANCH  35  38
ATOM     38  O   UNK A   0       1.186  -8.851  21.888  0.00  0.00    -0.386 OA
ATOM     39  H   UNK A   0       0.322  -9.298  21.908  0.00  0.00    +0.210 HD
ENDBRANCH  35  38
BRANCH  34  40
ATOM     40  O   UNK A   0       1.005  -5.559  22.625  0.00  0.00    -0.385 OA
ATOM     41  H   UNK A   0       0.132  -5.948  22.814  0.00  0.00    +0.210 HD
ENDBRANCH  34  40
BRANCH  36  42
ATOM     42  C   UNK A   0       1.219  -9.194  25.177  0.00  0.00    +0.206 C 
BRANCH  42  43
ATOM     43  O   UNK A   0       0.490  -8.235  25.939  0.00  0.00    -0.284 OA
BRANCH  43  44
ATOM     44  P   UNK A   0       0.622  -8.449  27.650  0.00  0.00    +0.472 P 
ATOM     45  O   UNK A   0       0.741  -8.640  29.183  0.00  0.00    -0.228 OA
BRANCH  44  46
ATOM     46  O   UNK A   0       1.065  -9.973  27.276  0.00  0.00    -0.303 OA
ATOM     47  H   UNK A   0       0.579 -10.234  26.472  0.00  0.00    +0.222 HD
ENDBRANCH  44  46
BRANCH  44  48
ATOM     48  O   UNK A   0       2.085  -7.733  27.524  0.00  0.00    -0.303 OA
ATOM     49  H   UNK A   0       1.920  -6.777  27.410  0.00  0.00    +0.222 HD
ENDBRANCH  44  48
ENDBRANCH  43  44
ENDBRANCH  42  43
ENDBRANCH  36  42
ENDBRANCH  30  33
ENDBRANCH  28  29
ENDBRANCH  26  28
ENDBRANCH  25  26
ENDBRANCH   1  25
BRANCH   1  50
ATOM     50  C   UNK A   0       8.581  -3.782  26.394  0.00  0.00    +0.076 C 
BRANCH  50  59
ATOM     51  N   UNK A   0       2.285  -6.210  30.267  0.00  0.00    -0.327 N 
ATOM     52  H   UNK A   0       1.551  -5.634  29.871  0.00  0.00    +0.145 HD
ATOM     53  H   UNK A   0       2.086  -7.179  30.424  0.00  0.00    +0.145 HD
ATOM     54  C   UNK A   0       3.455  -6.049  29.550  0.00  0.00    +0.216 A 
ATOM     55  N   UNK A   0       3.573  -4.939  28.820  0.00  0.00    -0.214 NA
ATOM     56  C   UNK A   0       4.723  -4.745  28.162  0.00  0.00    +0.080 A 
ATOM     57  C   UNK A   0       5.771  -5.658  28.208  0.00  0.00    +0.062 A 
ATOM     58  C   UNK A   0       7.001  -5.391  27.558  0.00  0.00    +0.019 A 
ATOM     59  C   UNK A   0       7.199  -4.180  26.888  0.00  0.00    -0.043 A 
ATOM     60  C   UNK A   0       6.122  -3.296  26.790  0.00  0.00    +0.006 A 
ATOM     61  C   UNK A   0       5.500  -6.788  28.959  0.00  0.00    +0.225 A 
ATOM     62  C   UNK A   0       4.905  -3.584  27.429  0.00  0.00    +0.029 A 
ATOM     63  N   UNK A   0       4.362  -7.023  29.633  0.00  0.00    -0.179 NA
BRANCH  61  64
ATOM     64  O   UNK A   0       6.415  -7.782  29.102  0.00  0.00    -0.492 OA
ATOM     65  H   UNK A   0       7.192  -7.265  29.383  0.00  0.00    +0.294 HD
ENDBRANCH  61  64
ENDBRANCH  50  59
ENDBRANCH   1  50
TORSDOF 25
ENDMDL
MODEL 4
REMARK VINA RESULT:      -7.2      2.327      8.026
REMARK  Name = 
REMARK  25 active torsions:
REMARK  status: ('A' for Active; 'I' for Inactive)
REMARK    1  A    between atoms: C_4  and  O_5
REMARK    2  A    between atoms: C_8  and  C_9
REMARK    3  A    between atoms: C_9  and  C_10
REMARK    4  A    between atoms: C_10  and  O_11
REMARK    5  A    between atoms: C_10  and  C_12
REMARK    6  A    between atoms: C_10  and  C_35
REMARK    7  A    between atoms: C_12  and  N_13
REMARK    8  A    between atoms: N_13  and  C_14
REMARK    9  A    between atoms: C_14  and  C_15
REMARK   10  A    between atoms: N_17  and  C_18
REMARK   11  A    between atoms: C_21  and  C_23
REMARK   12  A    between atoms: C_23  and  O_24
REMARK   13  A    between atoms: O_24  and  P_25
REMARK   14  A    between atoms: P_25  and  O_26
REMARK   15  A    between atoms: P_25  and  O_27
REMARK   16  A    between atoms: C_29  and  O_31
REMARK   17  A    between atoms: C_32  and  O_34
REMARK   18  A    between atoms: C_38  and  C_41
REMARK   19  A    between atoms: N_43  and  CA_44
REMARK   20  A    between atoms: CA_44  and  CB_46
REMARK   21  A    between atoms: CA_44  and  C_51
REMARK   22  A    between atoms: CB_46  and  CG_47
REMARK   23  A    between atoms: CG_47  and  CD_48
REMARK   24  A    between atoms: CD_48  and  OE1_49
REMARK   25  A    between atoms: C_51  and  O_52
REMARK                            x       y       z     vdW  Elec       q    Type
REMARK                         _______ _______ _______ _____ _____    ______ ____
ROOT
ATOM      1  C   UNK A   0       5.705   2.985  25.218  0.00  0.00    +0.107 C 
ENDROOT
BRANCH   1   2
ATOM      2  C   UNK A   0       6.398   1.625  25.068  0.00  0.00    -0.015 A 
ATOM      3  C   UNK A   0       6.172   0.851  23.918  0.00  0.00    +0.007 A 
ATOM      4  C   UNK A   0       6.798  -0.382  23.743  0.00  0.00    +0.013 A 
ATOM      5  C   UNK A   0       7.694  -0.863  24.703  0.00  0.00    +0.037 A 
ATOM      6  C   UNK A   0       7.882  -0.130  25.880  0.00  0.00    +0.013 A 
ATOM      7  C   UNK A   0       7.237   1.099  26.063  0.00  0.00    +0.007 A 
BRANCH   5   8
ATOM      8  C   UNK A   0       8.492  -2.109  24.495  0.00  0.00    +0.245 C 
ATOM      9  N   GLU A   1       7.823  -3.312  24.622  0.00  0.00    -0.298 N 
ATOM     10  H   GLU A   1       6.811  -3.313  24.642  0.00  0.00    +0.150 HD
ATOM     11  O   UNK A   0       9.670  -2.051  24.164  0.00  0.00    -0.270 OA
BRANCH   9  12
ATOM     12  CA  GLU A   1       8.428  -4.588  24.199  0.00  0.00    +0.182 C 
BRANCH  12  13
ATOM     13  C   GLU A   1       8.948  -5.306  25.457  0.00  0.00    +0.325 C 
ATOM     14  OXT GLU A   1       8.267  -5.633  26.415  0.00  0.00    -0.249 OA
BRANCH  13  15
ATOM     15  O   GLU A   1      10.271  -5.613  25.371  0.00  0.00    -0.479 OA
ATOM     16  H   GLU A   1      10.786  -4.790  25.235  0.00  0.00    +0.295 HD
ENDBRANCH  13  15
ENDBRANCH  12  13
BRANCH  12  17
ATOM     17  CB  GLU A   1       7.414  -5.463  23.454  0.00  0.00    +0.045 C 
BRANCH  17  18
ATOM     18  CG  GLU A   1       7.424  -5.249  21.938  0.00  0.00    +0.123 C 
BRANCH  18  19
ATOM     19  CD  GLU A   1       6.033  -5.034  21.393  0.00  0.00    +0.305 C 
ATOM     20  OE2 GLU A   1       5.653  -4.030  20.813  0.00  0.00    -0.251 OA
BRANCH  19  21
ATOM     21  OE1 GLU A   1       5.234  -6.108  21.584  0.00  0.00    -0.481 OA
ATOM     22  HE1 GLU A   1       4.601  -6.266  20.856  0.00  0.00    +0.295 HD
ENDBRANCH  19  21
ENDBRANCH  18  19
ENDBRANCH  17  18
ENDBRANCH  12  17
ENDBRANCH   9  12
ENDBRANCH   5   8
ENDBRANCH   1   2
BRANCH   1  23
ATOM     23  O   UNK A   0       6.169   3.649  26.406  0.00  0.00    -0.382 OA
ATOM     24  H   UNK A   0       6.620   4.470  26.147  0.00  0.00    +0.211 HD
ENDBRANCH   1  23
BRANCH   1  25
ATOM     25  C   UNK A   0       4.150   2.745  25.362  0.00  0.00    +0.121 C 
BRANCH  25  26
ATOM     26  N   UNK A   0       3.715   1.384  25.801  0.00  0.00    -0.305 NA
ATOM     27  H   UNK A   0       4.408   0.715  25.451  0.00  0.00    +0.122 HD
BRANCH  26  28
ATOM     28  C   UNK A   0       3.744   1.297  27.277  0.00  0.00    +0.177 C 
BRANCH  28  29
ATOM     29  C   UNK A   0       4.264  -0.027  27.806  0.00  0.00    +0.229 C 
ATOM     30  N   UNK A   0       4.382  -1.052  26.910  0.00  0.00    -0.287 N 
ATOM     31  H   UNK A   0       3.769  -0.975  26.107  0.00  0.00    +0.151 HD
ATOM     32  O   UNK A   0       4.611  -0.116  28.992  0.00  0.00    -0.274 OA
BRANCH  30  33
ATOM     33  C   UNK A   0       4.830  -2.381  27.257  0.00  0.00    +0.237 C 
ATOM     34  C   UNK A   0       3.858  -3.299  28.037  0.00  0.00    +0.192 C 
ATOM     35  C   UNK A   0       3.429  -4.356  27.014  0.00  0.00    +0.178 C 
ATOM     36  C   UNK A   0       4.034  -3.876  25.695  0.00  0.00    +0.178 C 
ATOM     37  O   UNK A   0       5.170  -3.063  26.047  0.00  0.00    -0.348 OA
BRANCH  35  38
ATOM     38  O   UNK A   0       2.020  -4.559  26.983  0.00  0.00    -0.386 OA
ATOM     39  H   UNK A   0       1.700  -4.534  26.065  0.00  0.00    +0.210 HD
ENDBRANCH  35  38
BRANCH  34  40
ATOM     40  O   UNK A   0       4.559  -3.943  29.124  0.00  0.00    -0.385 OA
ATOM     41  H   UNK A   0       4.996  -3.252  29.653  0.00  0.00    +0.210 HD
ENDBRANCH  34  40
BRANCH  36  42
ATOM     42  C   UNK A   0       4.471  -5.043  24.818  0.00  0.00    +0.206 C 
BRANCH  42  43
ATOM     43  O   UNK A   0       3.363  -5.485  24.038  0.00  0.00    -0.284 OA
BRANCH  43  44
ATOM     44  P   UNK A   0       2.949  -7.147  24.282  0.00  0.00    +0.472 P 
ATOM     45  O   UNK A   0       2.578  -8.634  24.500  0.00  0.00    -0.228 OA
BRANCH  44  46
ATOM     46  O   UNK A   0       2.522  -7.117  22.708  0.00  0.00    -0.303 OA
ATOM     47  H   UNK A   0       2.140  -6.240  22.521  0.00  0.00    +0.222 HD
ENDBRANCH  44  46
BRANCH  44  48
ATOM     48  O   UNK A   0       4.540  -7.464  24.096  0.00  0.00    -0.303 OA
ATOM     49  H   UNK A   0       4.905  -7.599  24.992  0.00  0.00    +0.222 HD
ENDBRANCH  44  48
ENDBRANCH  43  44
ENDBRANCH  42  43
ENDBRANCH  36  42
ENDBRANCH  30  33
ENDBRANCH  28  29
ENDBRANCH  26  28
ENDBRANCH  25  26
ENDBRANCH   1  25
BRANCH   1  50
ATOM     50  C   UNK A   0       6.011   3.935  24.011  0.00  0.00    +0.076 C 
BRANCH  50  59
ATOM     51  N   UNK A   0      13.462   5.937  23.006  0.00  0.00    -0.327 N 
ATOM     52  H   UNK A   0      13.474   6.898  23.326  0.00  0.00    +0.145 HD
ATOM     53  H   UNK A   0      14.223   5.344  23.275  0.00  0.00    +0.145 HD
ATOM     54  C   UNK A   0      12.245   5.352  23.298  0.00  0.00    +0.216 A 
ATOM     55  N   UNK A   0      11.212   6.170  23.508  0.00  0.00    -0.214 NA
ATOM     56  C   UNK A   0      10.015   5.617  23.740  0.00  0.00    +0.080 A 
ATOM     57  C   UNK A   0       9.827   4.239  23.781  0.00  0.00    +0.062 A 
ATOM     58  C   UNK A   0       8.536   3.685  23.959  0.00  0.00    +0.019 A 
ATOM     59  C   UNK A   0       7.416   4.516  24.058  0.00  0.00    -0.043 A 
ATOM     60  C   UNK A   0       7.620   5.897  24.083  0.00  0.00    +0.006 A 
ATOM     61  C   UNK A   0      10.986   3.507  23.597  0.00  0.00    +0.225 A 
ATOM     62  C   UNK A   0       8.908   6.429  23.919  0.00  0.00    +0.029 A 
ATOM     63  N   UNK A   0      12.205   4.022  23.362  0.00  0.00    -0.179 NA
BRANCH  61  64
ATOM     64  O   UNK A   0      10.979   2.149  23.613  0.00  0.00    -0.492 OA
ATOM     65  H   UNK A   0      10.055   1.976  23.355  0.00  0.00    +0.294 HD
ENDBRANCH  61  64
ENDBRANCH  50  59
ENDBRANCH   1  50
TORSDOF 25
ENDMDL
MODEL 5
REMARK VINA RESULT:      -7.2      3.492      8.040
REMARK  Name = 
REMARK  25 active torsions:
REMARK  status: ('A' for Active; 'I' for Inactive)
REMARK    1  A    between atoms: C_4  and  O_5
REMARK    2  A    between atoms: C_8  and  C_9
REMARK    3  A    between atoms: C_9  and  C_10
REMARK    4  A    between atoms: C_10  and  O_11
REMARK    5  A    between atoms: C_10  and  C_12
REMARK    6  A    between atoms: C_10  and  C_35
REMARK    7  A    between atoms: C_12  and  N_13
REMARK    8  A    between atoms: N_13  and  C_14
REMARK    9  A    between atoms: C_14  and  C_15
REMARK   10  A    between atoms: N_17  and  C_18
REMARK   11  A    between atoms: C_21  and  C_23
REMARK   12  A    between atoms: C_23  and  O_24
REMARK   13  A    between atoms: O_24  and  P_25
REMARK   14  A    between atoms: P_25  and  O_26
REMARK   15  A    between atoms: P_25  and  O_27
REMARK   16  A    between atoms: C_29  and  O_31
REMARK   17  A    between atoms: C_32  and  O_34
REMARK   18  A    between atoms: C_38  and  C_41
REMARK   19  A    between atoms: N_43  and  CA_44
REMARK   20  A    between atoms: CA_44  and  CB_46
REMARK   21  A    between atoms: CA_44  and  C_51
REMARK   22  A    between atoms: CB_46  and  CG_47
REMARK   23  A    between atoms: CG_47  and  CD_48
REMARK   24  A    between atoms: CD_48  and  OE1_49
REMARK   25  A    between atoms: C_51  and  O_52
REMARK                            x       y       z     vdW  Elec       q    Type
REMARK                         _______ _______ _______ _____ _____    ______ ____
ROOT
ATOM      1  C   UNK A   0       8.363  -2.721  23.306  0.00  0.00    +0.107 C 
ENDROOT
BRANCH   1   2
ATOM      2  C   UNK A   0       7.831  -1.689  24.309  0.00  0.00    -0.015 A 
ATOM      3  C   UNK A   0       8.379  -1.627  25.601  0.00  0.00    +0.007 A 
ATOM      4  C   UNK A   0       7.931  -0.691  26.531  0.00  0.00    +0.013 A 
ATOM      5  C   UNK A   0       6.939   0.232  26.184  0.00  0.00    +0.037 A 
ATOM      6  C   UNK A   0       6.344   0.142  24.920  0.00  0.00    +0.013 A 
ATOM      7  C   UNK A   0       6.782  -0.812  23.994  0.00  0.00    +0.007 A 
BRANCH   5   8
ATOM      8  C   UNK A   0       6.526   1.339  27.098  0.00  0.00    +0.245 C 
ATOM      9  N   GLU A   1       5.997   2.474  26.511  0.00  0.00    -0.298 N 
ATOM     10  H   GLU A   1       5.719   2.441  25.538  0.00  0.00    +0.150 HD
ATOM     11  O   UNK A   0       6.598   1.209  28.314  0.00  0.00    -0.270 OA
BRANCH   9  12
ATOM     12  CA  GLU A   1       5.327   3.520  27.304  0.00  0.00    +0.182 C 
BRANCH  12  13
ATOM     13  C   GLU A   1       5.871   4.884  26.845  0.00  0.00    +0.325 C 
ATOM     14  OXT GLU A   1       5.385   5.969  27.122  0.00  0.00    -0.249 OA
BRANCH  13  15
ATOM     15  O   GLU A   1       7.022   4.769  26.128  0.00  0.00    -0.479 OA
ATOM     16  H   GLU A   1       7.264   3.823  26.052  0.00  0.00    +0.295 HD
ENDBRANCH  13  15
ENDBRANCH  12  13
BRANCH  12  17
ATOM     17  CB  GLU A   1       3.805   3.458  27.132  0.00  0.00    +0.045 C 
BRANCH  17  18
ATOM     18  CG  GLU A   1       3.112   2.568  28.167  0.00  0.00    +0.123 C 
BRANCH  18  19
ATOM     19  CD  GLU A   1       2.787   1.205  27.606  0.00  0.00    +0.305 C 
ATOM     20  OE2 GLU A   1       2.266   0.295  28.230  0.00  0.00    -0.251 OA
BRANCH  19  21
ATOM     21  OE1 GLU A   1       3.106   1.097  26.297  0.00  0.00    -0.481 OA
ATOM     22  HE1 GLU A   1       3.242   0.177  25.995  0.00  0.00    +0.295 HD
ENDBRANCH  19  21
ENDBRANCH  18  19
ENDBRANCH  17  18
ENDBRANCH  12  17
ENDBRANCH   9  12
ENDBRANCH   5   8
ENDBRANCH   1   2
BRANCH   1  23
ATOM     23  O   UNK A   0       9.547  -3.352  23.825  0.00  0.00    -0.382 OA
ATOM     24  H   UNK A   0      10.307  -2.769  23.659  0.00  0.00    +0.211 HD
ENDBRANCH   1  23
BRANCH   1  25
ATOM     25  C   UNK A   0       8.748  -1.973  21.969  0.00  0.00    +0.121 C 
BRANCH  25  26
ATOM     26  N   UNK A   0      10.041  -1.221  21.964  0.00  0.00    -0.305 NA
ATOM     27  H   UNK A   0      10.641  -1.651  21.254  0.00  0.00    +0.122 HD
BRANCH  26  28
ATOM     28  C   UNK A   0       9.809   0.176  21.538  0.00  0.00    +0.177 C 
BRANCH  28  29
ATOM     29  C   UNK A   0       9.512   1.128  22.682  0.00  0.00    +0.229 C 
ATOM     30  N   UNK A   0       8.648   2.157  22.428  0.00  0.00    -0.287 N 
ATOM     31  H   UNK A   0       8.598   2.425  21.452  0.00  0.00    +0.151 HD
ATOM     32  O   UNK A   0      10.005   0.913  23.799  0.00  0.00    -0.274 OA
BRANCH  30  33
ATOM     33  C   UNK A   0       8.287   3.165  23.397  0.00  0.00    +0.237 C 
ATOM     34  C   UNK A   0       8.794   4.610  23.172  0.00  0.00    +0.192 C 
ATOM     35  C   UNK A   0       7.541   5.396  22.770  0.00  0.00    +0.178 C 
ATOM     36  C   UNK A   0       6.455   4.330  22.624  0.00  0.00    +0.178 C 
ATOM     37  O   UNK A   0       6.860   3.227  23.458  0.00  0.00    -0.348 OA
BRANCH  35  38
ATOM     38  O   UNK A   0       7.738   6.206  21.616  0.00  0.00    -0.386 OA
ATOM     39  H   UNK A   0       8.665   6.152  21.326  0.00  0.00    +0.210 HD
ENDBRANCH  35  38
BRANCH  34  40
ATOM     40  O   UNK A   0       9.317   5.144  24.408  0.00  0.00    -0.385 OA
ATOM     41  H   UNK A   0       9.053   4.547  25.131  0.00  0.00    +0.210 HD
ENDBRANCH  34  40
BRANCH  36  42
ATOM     42  C   UNK A   0       5.091   4.850  23.060  0.00  0.00    +0.206 C 
BRANCH  42  43
ATOM     43  O   UNK A   0       4.072   4.148  22.352  0.00  0.00    -0.284 OA
BRANCH  43  44
ATOM     44  P   UNK A   0       2.866   3.443  23.371  0.00  0.00    +0.472 P 
ATOM     45  O   UNK A   0       1.785   2.811  24.284  0.00  0.00    -0.228 OA
BRANCH  44  46
ATOM     46  O   UNK A   0       2.404   2.648  22.024  0.00  0.00    -0.303 OA
ATOM     47  H   UNK A   0       2.819   1.766  22.043  0.00  0.00    +0.222 HD
ENDBRANCH  44  46
BRANCH  44  48
ATOM     48  O   UNK A   0       4.033   2.416  23.871  0.00  0.00    -0.303 OA
ATOM     49  H   UNK A   0       4.785   2.526  23.256  0.00  0.00    +0.222 HD
ENDBRANCH  44  48
ENDBRANCH  43  44
ENDBRANCH  42  43
ENDBRANCH  36  42
ENDBRANCH  30  33
ENDBRANCH  28  29
ENDBRANCH  26  28
ENDBRANCH  25  26
ENDBRANCH   1  25
BRANCH   1  50
ATOM     50  C   UNK A   0       7.322  -3.858  23.027  0.00  0.00    +0.076 C 
BRANCH  50  59
ATOM     51  N   UNK A   0       4.128  -4.934  30.039  0.00  0.00    -0.327 N 
ATOM     52  H   UNK A   0       3.142  -4.807  29.850  0.00  0.00    +0.145 HD
ATOM     53  H   UNK A   0       4.396  -5.684  30.647  0.00  0.00    +0.145 HD
ATOM     54  C   UNK A   0       4.839  -4.971  28.855  0.00  0.00    +0.216 A 
ATOM     55  N   UNK A   0       4.263  -4.427  27.783  0.00  0.00    -0.214 NA
ATOM     56  C   UNK A   0       4.962  -4.409  26.641  0.00  0.00    +0.080 A 
ATOM     57  C   UNK A   0       6.241  -4.945  26.542  0.00  0.00    +0.062 A 
ATOM     58  C   UNK A   0       6.982  -4.847  25.339  0.00  0.00    +0.019 A 
ATOM     59  C   UNK A   0       6.453  -4.173  24.234  0.00  0.00    -0.043 A 
ATOM     60  C   UNK A   0       5.143  -3.696  24.318  0.00  0.00    +0.006 A 
ATOM     61  C   UNK A   0       6.702  -5.522  27.712  0.00  0.00    +0.225 A 
ATOM     62  C   UNK A   0       4.419  -3.813  25.514  0.00  0.00    +0.029 A 
ATOM     63  N   UNK A   0       6.034  -5.563  28.877  0.00  0.00    -0.179 NA
BRANCH  61  64
ATOM     64  O   UNK A   0       7.931  -6.096  27.786  0.00  0.00    -0.492 OA
ATOM     65  H   UNK A   0       8.192  -6.070  26.847  0.00  0.00    +0.294 HD
ENDBRANCH  61  64
ENDBRANCH  50  59
ENDBRANCH   1  50
TORSDOF 25
ENDMDL
MODEL 6
REMARK VINA RESULT:      -7.2      3.001      8.289
REMARK  Name = 
REMARK  25 active torsions:
REMARK  status: ('A' for Active; 'I' for Inactive)
REMARK    1  A    between atoms: C_4  and  O_5
REMARK    2  A    between atoms: C_8  and  C_9
REMARK    3  A    between atoms: C_9  and  C_10
REMARK    4  A    between atoms: C_10  and  O_11
REMARK    5  A    between atoms: C_10  and  C_12
REMARK    6  A    between atoms: C_10  and  C_35
REMARK    7  A    between atoms: C_12  and  N_13
REMARK    8  A    between atoms: N_13  and  C_14
REMARK    9  A    between atoms: C_14  and  C_15
REMARK   10  A    between atoms: N_17  and  C_18
REMARK   11  A    between atoms: C_21  and  C_23
REMARK   12  A    between atoms: C_23  and  O_24
REMARK   13  A    between atoms: O_24  and  P_25
REMARK   14  A    between atoms: P_25  and  O_26
REMARK   15  A    between atoms: P_25  and  O_27
REMARK   16  A    between atoms: C_29  and  O_31
REMARK   17  A    between atoms: C_32  and  O_34
REMARK   18  A    between atoms: C_38  and  C_41
REMARK   19  A    between atoms: N_43  and  CA_44
REMARK   20  A    between atoms: CA_44  and  CB_46
REMARK   21  A    between atoms: CA_44  and  C_51
REMARK   22  A    between atoms: CB_46  and  CG_47
REMARK   23  A    between atoms: CG_47  and  CD_48
REMARK   24  A    between atoms: CD_48  and  OE1_49
REMARK   25  A    between atoms: C_51  and  O_52
REMARK                            x       y       z     vdW  Elec       q    Type
REMARK                         _______ _______ _______ _____ _____    ______ ____
ROOT
ATOM      1  C   UNK A   0       9.391  -1.630  22.998  0.00  0.00    +0.107 C 
ENDROOT
BRANCH   1   2
ATOM      2  C   UNK A   0       8.189  -2.584  22.950  0.00  0.00    -0.015 A 
ATOM      3  C   UNK A   0       6.924  -2.092  22.591  0.00  0.00    +0.007 A 
ATOM      4  C   UNK A   0       5.815  -2.933  22.523  0.00  0.00    +0.013 A 
ATOM      5  C   UNK A   0       5.948  -4.301  22.784  0.00  0.00    +0.037 A 
ATOM      6  C   UNK A   0       7.191  -4.793  23.200  0.00  0.00    +0.013 A 
ATOM      7  C   UNK A   0       8.299  -3.942  23.287  0.00  0.00    +0.007 A 
BRANCH   5   8
ATOM      8  C   UNK A   0       4.822  -5.263  22.588  0.00  0.00    +0.245 C 
ATOM      9  N   GLU A   1       3.781  -5.205  23.497  0.00  0.00    -0.298 N 
ATOM     10  H   GLU A   1       3.713  -4.408  24.117  0.00  0.00    +0.150 HD
ATOM     11  O   UNK A   0       4.803  -6.019  21.624  0.00  0.00    -0.270 OA
BRANCH   9  12
ATOM     12  CA  GLU A   1       2.510  -5.917  23.271  0.00  0.00    +0.182 C 
BRANCH  12  13
ATOM     13  C   GLU A   1       2.698  -7.376  23.723  0.00  0.00    +0.325 C 
ATOM     14  OXT GLU A   1       3.329  -7.737  24.703  0.00  0.00    -0.249 OA
BRANCH  13  15
ATOM     15  O   GLU A   1       2.017  -8.254  22.937  0.00  0.00    -0.479 OA
ATOM     16  H   GLU A   1       2.091  -7.975  22.000  0.00  0.00    +0.295 HD
ENDBRANCH  13  15
ENDBRANCH  12  13
BRANCH  12  17
ATOM     17  CB  GLU A   1       1.360  -5.255  24.039  0.00  0.00    +0.045 C 
BRANCH  17  18
ATOM     18  CG  GLU A   1       1.833  -4.274  25.114  0.00  0.00    +0.123 C 
BRANCH  18  19
ATOM     19  CD  GLU A   1       1.651  -4.833  26.504  0.00  0.00    +0.305 C 
ATOM     20  OE2 GLU A   1       1.304  -5.974  26.763  0.00  0.00    -0.251 OA
BRANCH  19  21
ATOM     21  OE1 GLU A   1       1.954  -3.931  27.465  0.00  0.00    -0.481 OA
ATOM     22  HE1 GLU A   1       2.021  -3.012  27.140  0.00  0.00    +0.295 HD
ENDBRANCH  19  21
ENDBRANCH  18  19
ENDBRANCH  17  18
ENDBRANCH  12  17
ENDBRANCH   9  12
ENDBRANCH   5   8
ENDBRANCH   1   2
BRANCH   1  23
ATOM     23  O   UNK A   0      10.618  -2.378  22.946  0.00  0.00    -0.382 OA
ATOM     24  H   UNK A   0      10.845  -2.665  23.847  0.00  0.00    +0.211 HD
ENDBRANCH   1  23
BRANCH   1  25
ATOM     25  C   UNK A   0       9.352  -0.838  24.364  0.00  0.00    +0.121 C 
BRANCH  25  26
ATOM     26  N   UNK A   0       8.112  -0.977  25.190  0.00  0.00    -0.305 NA
ATOM     27  H   UNK A   0       7.467  -1.581  24.671  0.00  0.00    +0.122 HD
BRANCH  26  28
ATOM     28  C   UNK A   0       8.426  -1.674  26.456  0.00  0.00    +0.177 C 
BRANCH  28  29
ATOM     29  C   UNK A   0       7.697  -2.995  26.628  0.00  0.00    +0.229 C 
ATOM     30  N   UNK A   0       6.349  -2.996  26.401  0.00  0.00    -0.287 N 
ATOM     31  H   UNK A   0       5.906  -2.093  26.528  0.00  0.00    +0.151 HD
ATOM     32  O   UNK A   0       8.341  -4.016  26.905  0.00  0.00    -0.274 OA
BRANCH  30  33
ATOM     33  C   UNK A   0       5.506  -4.158  26.552  0.00  0.00    +0.237 C 
ATOM     34  C   UNK A   0       6.182  -5.549  26.609  0.00  0.00    +0.192 C 
ATOM     35  C   UNK A   0       6.032  -5.988  28.069  0.00  0.00    +0.178 C 
ATOM     36  C   UNK A   0       5.448  -4.764  28.775  0.00  0.00    +0.178 C 
ATOM     37  O   UNK A   0       4.758  -4.007  27.761  0.00  0.00    -0.348 OA
BRANCH  35  38
ATOM     38  O   UNK A   0       7.245  -6.476  28.631  0.00  0.00    -0.386 OA
ATOM     39  H   UNK A   0       7.171  -6.517  29.600  0.00  0.00    +0.210 HD
ENDBRANCH  35  38
BRANCH  34  40
ATOM     40  O   UNK A   0       5.471  -6.474  25.756  0.00  0.00    -0.385 OA
ATOM     41  H   UNK A   0       5.672  -6.249  24.831  0.00  0.00    +0.210 HD
ENDBRANCH  34  40
BRANCH  36  42
ATOM     42  C   UNK A   0       4.484  -5.160  29.887  0.00  0.00    +0.206 C 
BRANCH  42  43
ATOM     43  O   UNK A   0       4.418  -6.582  29.966  0.00  0.00    -0.284 OA
BRANCH  43  44
ATOM     44  P   UNK A   0       2.807  -7.212  29.961  0.00  0.00    +0.472 P 
ATOM     45  O   UNK A   0       1.365  -7.777  29.957  0.00  0.00    -0.228 OA
BRANCH  44  46
ATOM     46  O   UNK A   0       2.357  -5.657  29.768  0.00  0.00    -0.303 OA
ATOM     47  H   UNK A   0       3.165  -5.131  29.616  0.00  0.00    +0.222 HD
ENDBRANCH  44  46
BRANCH  44  48
ATOM     48  O   UNK A   0       3.068  -7.586  28.393  0.00  0.00    -0.303 OA
ATOM     49  H   UNK A   0       4.017  -7.432  28.222  0.00  0.00    +0.222 HD
ENDBRANCH  44  48
ENDBRANCH  43  44
ENDBRANCH  42  43
ENDBRANCH  36  42
ENDBRANCH  30  33
ENDBRANCH  28  29
ENDBRANCH  26  28
ENDBRANCH  25  26
ENDBRANCH   1  25
BRANCH   1  50
ATOM     50  C   UNK A   0       9.404  -0.642  21.783  0.00  0.00    +0.076 C 
BRANCH  50  59
ATOM     51  N   UNK A   0       8.135   6.520  24.545  0.00  0.00    -0.327 N 
ATOM     52  H   UNK A   0       9.071   6.834  24.774  0.00  0.00    +0.145 HD
ATOM     53  H   UNK A   0       7.519   7.172  24.099  0.00  0.00    +0.145 HD
ATOM     54  C   UNK A   0       8.189   5.326  23.852  0.00  0.00    +0.216 A 
ATOM     55  N   UNK A   0       9.300   4.600  23.977  0.00  0.00    -0.214 NA
ATOM     56  C   UNK A   0       9.345   3.416  23.353  0.00  0.00    +0.080 A 
ATOM     57  C   UNK A   0       8.290   2.940  22.582  0.00  0.00    +0.062 A 
ATOM     58  C   UNK A   0       8.341   1.653  21.993  0.00  0.00    +0.019 A 
ATOM     59  C   UNK A   0       9.440   0.817  22.209  0.00  0.00    -0.043 A 
ATOM     60  C   UNK A   0      10.524   1.326  22.929  0.00  0.00    +0.006 A 
ATOM     61  C   UNK A   0       7.220   3.811  22.494  0.00  0.00    +0.225 A 
ATOM     62  C   UNK A   0      10.463   2.609  23.494  0.00  0.00    +0.029 A 
ATOM     63  N   UNK A   0       7.134   5.007  23.102  0.00  0.00    -0.179 NA
BRANCH  61  64
ATOM     64  O   UNK A   0       6.109   3.502  21.775  0.00  0.00    -0.492 OA
ATOM     65  H   UNK A   0       5.881   2.640  22.167  0.00  0.00    +0.294 HD
ENDBRANCH  61  64
ENDBRANCH  50  59
ENDBRANCH   1  50
TORSDOF 25
ENDMDL
MODEL 7
REMARK VINA RESULT:      -7.2      3.181      8.835
REMARK  Name = 
REMARK  25 active torsions:
REMARK  status: ('A' for Active; 'I' for Inactive)
REMARK    1  A    between atoms: C_4  and  O_5
REMARK    2  A    between atoms: C_8  and  C_9
REMARK    3  A    between atoms: C_9  and  C_10
REMARK    4  A    between atoms: C_10  and  O_11
REMARK    5  A    between atoms: C_10  and  C_12
REMARK    6  A    between atoms: C_10  and  C_35
REMARK    7  A    between atoms: C_12  and  N_13
REMARK    8  A    between atoms: N_13  and  C_14
REMARK    9  A    between atoms: C_14  and  C_15
REMARK   10  A    between atoms: N_17  and  C_18
REMARK   11  A    between atoms: C_21  and  C_23
REMARK   12  A    between atoms: C_23  and  O_24
REMARK   13  A    between atoms: O_24  and  P_25
REMARK   14  A    between atoms: P_25  and  O_26
REMARK   15  A    between atoms: P_25  and  O_27
REMARK   16  A    between atoms: C_29  and  O_31
REMARK   17  A    between atoms: C_32  and  O_34
REMARK   18  A    between atoms: C_38  and  C_41
REMARK   19  A    between atoms: N_43  and  CA_44
REMARK   20  A    between atoms: CA_44  and  CB_46
REMARK   21  A    between atoms: CA_44  and  C_51
REMARK   22  A    between atoms: CB_46  and  CG_47
REMARK   23  A    between atoms: CG_47  and  CD_48
REMARK   24  A    between atoms: CD_48  and  OE1_49
REMARK   25  A    between atoms: C_51  and  O_52
REMARK                            x       y       z     vdW  Elec       q    Type
REMARK                         _______ _______ _______ _____ _____    ______ ____
ROOT
ATOM      1  C   UNK A   0       9.355  -1.560  23.838  0.00  0.00    +0.107 C 
ENDROOT
BRANCH   1   2
ATOM      2  C   UNK A   0       8.266  -1.054  24.792  0.00  0.00    -0.015 A 
ATOM      3  C   UNK A   0       7.037  -0.612  24.276  0.00  0.00    +0.007 A 
ATOM      4  C   UNK A   0       6.021  -0.161  25.116  0.00  0.00    +0.013 A 
ATOM      5  C   UNK A   0       6.196  -0.167  26.504  0.00  0.00    +0.037 A 
ATOM      6  C   UNK A   0       7.436  -0.549  27.028  0.00  0.00    +0.013 A 
ATOM      7  C   UNK A   0       8.463  -0.983  26.181  0.00  0.00    +0.007 A 
BRANCH   5   8
ATOM      8  C   UNK A   0       5.089   0.174  27.448  0.00  0.00    +0.245 C 
ATOM      9  N   GLU A   1       3.845  -0.368  27.180  0.00  0.00    -0.298 N 
ATOM     10  H   GLU A   1       3.770  -1.118  26.504  0.00  0.00    +0.150 HD
ATOM     11  O   UNK A   0       5.302   0.852  28.445  0.00  0.00    -0.270 OA
BRANCH   9  12
ATOM     12  CA  GLU A   1       2.746  -0.315  28.160  0.00  0.00    +0.182 C 
BRANCH  12  13
ATOM     13  C   GLU A   1       1.586   0.477  27.529  0.00  0.00    +0.325 C 
ATOM     14  OXT GLU A   1       1.539   0.857  26.370  0.00  0.00    -0.249 OA
BRANCH  13  15
ATOM     15  O   GLU A   1       0.554   0.666  28.395  0.00  0.00    -0.479 OA
ATOM     16  H   GLU A   1       0.328   1.619  28.428  0.00  0.00    +0.295 HD
ENDBRANCH  13  15
ENDBRANCH  12  13
BRANCH  12  17
ATOM     17  CB  GLU A   1       2.288  -1.723  28.557  0.00  0.00    +0.045 C 
BRANCH  17  18
ATOM     18  CG  GLU A   1       3.361  -2.523  29.300  0.00  0.00    +0.123 C 
BRANCH  18  19
ATOM     19  CD  GLU A   1       4.051  -3.513  28.392  0.00  0.00    +0.305 C 
ATOM     20  OE2 GLU A   1       5.060  -3.287  27.745  0.00  0.00    -0.251 OA
BRANCH  19  21
ATOM     21  OE1 GLU A   1       3.444  -4.721  28.394  0.00  0.00    -0.481 OA
ATOM     22  HE1 GLU A   1       2.487  -4.686  28.202  0.00  0.00    +0.295 HD
ENDBRANCH  19  21
ENDBRANCH  18  19
ENDBRANCH  17  18
ENDBRANCH  12  17
ENDBRANCH   9  12
ENDBRANCH   5   8
ENDBRANCH   1   2
BRANCH   1  23
ATOM     23  O   UNK A   0      10.524  -0.729  23.936  0.00  0.00    -0.382 OA
ATOM     24  H   UNK A   0      11.305  -1.301  24.022  0.00  0.00    +0.211 HD
ENDBRANCH   1  23
BRANCH   1  25
ATOM     25  C   UNK A   0       8.809  -1.472  22.358  0.00  0.00    +0.121 C 
BRANCH  25  26
ATOM     26  N   UNK A   0       9.647  -0.721  21.373  0.00  0.00    -0.305 NA
ATOM     27  H   UNK A   0       9.756  -1.318  20.547  0.00  0.00    +0.122 HD
BRANCH  26  28
ATOM     28  C   UNK A   0       8.933   0.496  20.928  0.00  0.00    +0.177 C 
BRANCH  28  29
ATOM     29  C   UNK A   0       9.101   1.683  21.859  0.00  0.00    +0.229 C 
ATOM     30  N   UNK A   0       8.058   2.562  21.941  0.00  0.00    -0.287 N 
ATOM     31  H   UNK A   0       7.461   2.575  21.123  0.00  0.00    +0.151 HD
ATOM     32  O   UNK A   0      10.131   1.783  22.541  0.00  0.00    -0.274 OA
BRANCH  30  33
ATOM     33  C   UNK A   0       8.071   3.756  22.753  0.00  0.00    +0.237 C 
ATOM     34  C   UNK A   0       7.389   5.028  22.194  0.00  0.00    +0.192 C 
ATOM     35  C   UNK A   0       6.120   5.184  23.039  0.00  0.00    +0.178 C 
ATOM     36  C   UNK A   0       6.074   3.915  23.891  0.00  0.00    +0.178 C 
ATOM     37  O   UNK A   0       7.433   3.452  23.996  0.00  0.00    -0.348 OA
BRANCH  35  38
ATOM     38  O   UNK A   0       4.955   5.418  22.256  0.00  0.00    -0.386 OA
ATOM     39  H   UNK A   0       4.612   6.311  22.428  0.00  0.00    +0.210 HD
ENDBRANCH  35  38
BRANCH  34  40
ATOM     40  O   UNK A   0       8.244   6.174  22.400  0.00  0.00    -0.385 OA
ATOM     41  H   UNK A   0       7.828   6.943  21.973  0.00  0.00    +0.210 HD
ENDBRANCH  34  40
BRANCH  36  42
ATOM     42  C   UNK A   0       5.498   4.186  25.276  0.00  0.00    +0.206 C 
BRANCH  42  43
ATOM     43  O   UNK A   0       6.199   3.401  26.237  0.00  0.00    -0.284 OA
BRANCH  43  44
ATOM     44  P   UNK A   0       6.800   4.307  27.583  0.00  0.00    +0.472 P 
ATOM     45  O   UNK A   0       7.337   5.118  28.787  0.00  0.00    -0.228 OA
BRANCH  44  46
ATOM     46  O   UNK A   0       7.430   2.884  28.069  0.00  0.00    -0.303 OA
ATOM     47  H   UNK A   0       6.789   2.184  27.846  0.00  0.00    +0.222 HD
ENDBRANCH  44  46
BRANCH  44  48
ATOM     48  O   UNK A   0       8.008   4.782  26.592  0.00  0.00    -0.303 OA
ATOM     49  H   UNK A   0       7.990   4.184  25.821  0.00  0.00    +0.222 HD
ENDBRANCH  44  48
ENDBRANCH  43  44
ENDBRANCH  42  43
ENDBRANCH  36  42
ENDBRANCH  30  33
ENDBRANCH  28  29
ENDBRANCH  26  28
ENDBRANCH  25  26
ENDBRANCH   1  25
BRANCH   1  50
ATOM     50  C   UNK A   0       9.801  -3.022  24.179  0.00  0.00    +0.076 C 
BRANCH  50  59
ATOM     51  N   UNK A   0       3.526  -7.156  26.200  0.00  0.00    -0.327 N 
ATOM     52  H   UNK A   0       3.139  -7.416  25.301  0.00  0.00    +0.145 HD
ATOM     53  H   UNK A   0       3.545  -7.850  26.921  0.00  0.00    +0.145 HD
ATOM     54  C   UNK A   0       4.769  -6.574  26.033  0.00  0.00    +0.216 A 
ATOM     55  N   UNK A   0       5.046  -6.067  24.831  0.00  0.00    -0.214 NA
ATOM     56  C   UNK A   0       6.226  -5.454  24.670  0.00  0.00    +0.080 A 
ATOM     57  C   UNK A   0       7.156  -5.347  25.698  0.00  0.00    +0.062 A 
ATOM     58  C   UNK A   0       8.364  -4.631  25.516  0.00  0.00    +0.019 A 
ATOM     59  C   UNK A   0       8.628  -3.982  24.307  0.00  0.00    -0.043 A 
ATOM     60  C   UNK A   0       7.722  -4.150  23.257  0.00  0.00    +0.006 A 
ATOM     61  C   UNK A   0       6.765  -5.957  26.877  0.00  0.00    +0.225 A 
ATOM     62  C   UNK A   0       6.535  -4.874  23.451  0.00  0.00    +0.029 A 
ATOM     63  N   UNK A   0       5.593  -6.583  27.080  0.00  0.00    -0.179 NA
BRANCH  61  64
ATOM     64  O   UNK A   0       7.560  -5.950  27.978  0.00  0.00    -0.492 OA
ATOM     65  H   UNK A   0       6.914  -6.209  28.661  0.00  0.00    +0.294 HD
ENDBRANCH  61  64
ENDBRANCH  50  59
ENDBRANCH   1  50
TORSDOF 25
ENDMDL
MODEL 8
REMARK VINA RESULT:      -7.2      2.212      3.153
REMARK  Name = 
REMARK  25 active torsions:
REMARK  status: ('A' for Active; 'I' for Inactive)
REMARK    1  A    between atoms: C_4  and  O_5
REMARK    2  A    between atoms: C_8  and  C_9
REMARK    3  A    between atoms: C_9  and  C_10
REMARK    4  A    between atoms: C_10  and  O_11
REMARK    5  A    between atoms: C_10  and  C_12
REMARK    6  A    between atoms: C_10  and  C_35
REMARK    7  A    between atoms: C_12  and  N_13
REMARK    8  A    between atoms: N_13  and  C_14
REMARK    9  A    between atoms: C_14  and  C_15
REMARK   10  A    between atoms: N_17  and  C_18
REMARK   11  A    between atoms: C_21  and  C_23
REMARK   12  A    between atoms: C_23  and  O_24
REMARK   13  A    between atoms: O_24  and  P_25
REMARK   14  A    between atoms: P_25  and  O_26
REMARK   15  A    between atoms: P_25  and  O_27
REMARK   16  A    between atoms: C_29  and  O_31
REMARK   17  A    between atoms: C_32  and  O_34
REMARK   18  A    between atoms: C_38  and  C_41
REMARK   19  A    between atoms: N_43  and  CA_44
REMARK   20  A    between atoms: CA_44  and  CB_46
REMARK   21  A    between atoms: CA_44  and  C_51
REMARK   22  A    between atoms: CB_46  and  CG_47
REMARK   23  A    between atoms: CG_47  and  CD_48
REMARK   24  A    between atoms: CD_48  and  OE1_49
REMARK   25  A    between atoms: C_51  and  O_52
REMARK                            x       y       z     vdW  Elec       q    Type
REMARK                         _______ _______ _______ _____ _____    ______ ____
ROOT
ATOM      1  C   UNK A   0       8.828  -2.244  23.800  0.00  0.00    +0.107 C 
ENDROOT
BRANCH   1   2
ATOM      2  C   UNK A   0       8.819  -0.712  23.709  0.00  0.00    -0.015 A 
ATOM      3  C   UNK A   0       7.904  -0.070  22.859  0.00  0.00    +0.007 A 
ATOM      4  C   UNK A   0       7.858   1.319  22.765  0.00  0.00    +0.013 A 
ATOM      5  C   UNK A   0       8.709   2.109  23.544  0.00  0.00    +0.037 A 
ATOM      6  C   UNK A   0       9.665   1.481  24.351  0.00  0.00    +0.013 A 
ATOM      7  C   UNK A   0       9.723   0.084  24.429  0.00  0.00    +0.007 A 
BRANCH   5   8
ATOM      8  C   UNK A   0       8.601   3.599  23.581  0.00  0.00    +0.245 C 
ATOM      9  N   GLU A   1       9.364   4.261  24.527  0.00  0.00    -0.298 N 
ATOM     10  H   GLU A   1      10.101   3.758  25.004  0.00  0.00    +0.150 HD
ATOM     11  O   UNK A   0       7.915   4.199  22.763  0.00  0.00    -0.270 OA
BRANCH   9  12
ATOM     12  CA  GLU A   1       9.538   5.724  24.500  0.00  0.00    +0.182 C 
BRANCH  12  13
ATOM     13  C   GLU A   1       8.584   6.334  25.542  0.00  0.00    +0.325 C 
ATOM     14  OXT GLU A   1       7.442   6.705  25.323  0.00  0.00    -0.249 OA
BRANCH  13  15
ATOM     15  O   GLU A   1       9.128   6.364  26.789  0.00  0.00    -0.479 OA
ATOM     16  H   GLU A   1       8.749   5.637  27.326  0.00  0.00    +0.295 HD
ENDBRANCH  13  15
ENDBRANCH  12  13
BRANCH  12  17
ATOM     17  CB  GLU A   1      10.990   6.115  24.800  0.00  0.00    +0.045 C 
BRANCH  17  18
ATOM     18  CG  GLU A   1      11.882   6.137  23.556  0.00  0.00    +0.123 C 
BRANCH  18  19
ATOM     19  CD  GLU A   1      12.630   4.838  23.379  0.00  0.00    +0.305 C 
ATOM     20  OE2 GLU A   1      12.122   3.729  23.376  0.00  0.00    -0.251 OA
BRANCH  19  21
ATOM     21  OE1 GLU A   1      13.954   5.030  23.183  0.00  0.00    -0.481 OA
ATOM     22  HE1 GLU A   1      14.432   5.343  23.975  0.00  0.00    +0.295 HD
ENDBRANCH  19  21
ENDBRANCH  18  19
ENDBRANCH  17  18
ENDBRANCH  12  17
ENDBRANCH   9  12
ENDBRANCH   5   8
ENDBRANCH   1   2
BRANCH   1  23
ATOM     23  O   UNK A   0       9.969  -2.774  23.104  0.00  0.00    -0.382 OA
ATOM     24  H   UNK A   0      10.460  -3.355  23.709  0.00  0.00    +0.211 HD
ENDBRANCH   1  23
BRANCH   1  25
ATOM     25  C   UNK A   0       7.523  -2.798  23.102  0.00  0.00    +0.121 C 
BRANCH  25  26
ATOM     26  N   UNK A   0       7.674  -4.032  22.271  0.00  0.00    -0.305 NA
ATOM     27  H   UNK A   0       8.675  -4.156  22.089  0.00  0.00    +0.122 HD
BRANCH  26  28
ATOM     28  C   UNK A   0       7.230  -5.215  23.041  0.00  0.00    +0.177 C 
BRANCH  28  29
ATOM     29  C   UNK A   0       5.802  -5.639  22.749  0.00  0.00    +0.229 C 
ATOM     30  N   UNK A   0       5.026  -5.989  23.819  0.00  0.00    -0.287 N 
ATOM     31  H   UNK A   0       5.550  -6.311  24.624  0.00  0.00    +0.151 HD
ATOM     32  O   UNK A   0       5.379  -5.599  21.585  0.00  0.00    -0.274 OA
BRANCH  30  33
ATOM     33  C   UNK A   0       3.660  -6.445  23.710  0.00  0.00    +0.237 C 
ATOM     34  C   UNK A   0       3.214  -7.634  24.595  0.00  0.00    +0.192 C 
ATOM     35  C   UNK A   0       2.292  -7.002  25.644  0.00  0.00    +0.178 C 
ATOM     36  C   UNK A   0       2.413  -5.498  25.400  0.00  0.00    +0.178 C 
ATOM     37  O   UNK A   0       2.801  -5.345  24.021  0.00  0.00    -0.348 OA
BRANCH  35  38
ATOM     38  O   UNK A   0       2.597  -7.416  26.973  0.00  0.00    -0.386 OA
ATOM     39  H   UNK A   0       3.317  -6.872  27.334  0.00  0.00    +0.210 HD
ENDBRANCH  35  38
BRANCH  34  40
ATOM     40  O   UNK A   0       2.460  -8.578  23.803  0.00  0.00    -0.385 OA
ATOM     41  H   UNK A   0       3.067  -9.280  23.510  0.00  0.00    +0.210 HD
ENDBRANCH  34  40
BRANCH  36  42
ATOM     42  C   UNK A   0       1.096  -4.777  25.662  0.00  0.00    +0.206 C 
BRANCH  42  43
ATOM     43  O   UNK A   0       1.238  -3.944  26.810  0.00  0.00    -0.284 OA
BRANCH  43  44
ATOM     44  P   UNK A   0       0.878  -2.277  26.520  0.00  0.00    +0.472 P 
ATOM     45  O   UNK A   0       0.555  -0.785  26.260  0.00  0.00    -0.228 OA
BRANCH  44  46
ATOM     46  O   UNK A   0       1.221  -2.081  28.102  0.00  0.00    -0.303 OA
ATOM     47  H   UNK A   0       2.016  -1.520  28.165  0.00  0.00    +0.222 HD
ENDBRANCH  44  46
BRANCH  44  48
ATOM     48  O   UNK A   0       2.394  -2.159  25.925  0.00  0.00    -0.303 OA
ATOM     49  H   UNK A   0       2.341  -1.587  25.134  0.00  0.00    +0.222 HD
ENDBRANCH  44  48
ENDBRANCH  43  44
ENDBRANCH  42  43
ENDBRANCH  36  42
ENDBRANCH  30  33
ENDBRANCH  28  29
ENDBRANCH  26  28
ENDBRANCH  25  26
ENDBRANCH   1  25
BRANCH   1  50
ATOM     50  C   UNK A   0       8.920  -2.743  25.281  0.00  0.00    +0.076 C 
BRANCH  50  59
ATOM     51  N   UNK A   0       2.695  -4.310  29.677  0.00  0.00    -0.327 N 
ATOM     52  H   UNK A   0       2.192  -3.431  29.663  0.00  0.00    +0.145 HD
ATOM     53  H   UNK A   0       2.164  -5.155  29.583  0.00  0.00    +0.145 HD
ATOM     54  C   UNK A   0       3.743  -4.275  28.777  0.00  0.00    +0.216 A 
ATOM     55  N   UNK A   0       4.183  -3.072  28.404  0.00  0.00    -0.214 NA
ATOM     56  C   UNK A   0       5.232  -3.023  27.573  0.00  0.00    +0.080 A 
ATOM     57  C   UNK A   0       5.852  -4.169  27.087  0.00  0.00    +0.062 A 
ATOM     58  C   UNK A   0       7.002  -4.082  26.265  0.00  0.00    +0.019 A 
ATOM     59  C   UNK A   0       7.562  -2.839  25.959  0.00  0.00    -0.043 A 
ATOM     60  C   UNK A   0       6.897  -1.691  26.394  0.00  0.00    +0.006 A 
ATOM     61  C   UNK A   0       5.266  -5.348  27.510  0.00  0.00    +0.225 A 
ATOM     62  C   UNK A   0       5.750  -1.794  27.196  0.00  0.00    +0.029 A 
ATOM     63  N   UNK A   0       4.215  -5.443  28.342  0.00  0.00    -0.179 NA
BRANCH  61  64
ATOM     64  O   UNK A   0       5.746  -6.559  27.123  0.00  0.00    -0.492 OA
ATOM     65  H   UNK A   0       5.557  -6.524  26.168  0.00  0.00    +0.294 HD
ENDBRANCH  61  64
ENDBRANCH  50  59
ENDBRANCH   1  50
TORSDOF 25
ENDMDL
MODEL 9
REMARK VINA RESULT:      -7.1      2.861      5.765
REMARK  Name = 
REMARK  25 active torsions:
REMARK  status: ('A' for Active; 'I' for Inactive)
REMARK    1  A    between atoms: C_4  and  O_5
REMARK    2  A    between atoms: C_8  and  C_9
REMARK    3  A    between atoms: C_9  and  C_10
REMARK    4  A    between atoms: C_10  and  O_11
REMARK    5  A    between atoms: C_10  and  C_12
REMARK    6  A    between atoms: C_10  and  C_35
REMARK    7  A    between atoms: C_12  and  N_13
REMARK    8  A    between atoms: N_13  and  C_14
REMARK    9  A    between atoms: C_14  and  C_15
REMARK   10  A    between atoms: N_17  and  C_18
REMARK   11  A    between atoms: C_21  and  C_23
REMARK   12  A    between atoms: C_23  and  O_24
REMARK   13  A    between atoms: O_24  and  P_25
REMARK   14  A    between atoms: P_25  and  O_26
REMARK   15  A    between atoms: P_25  and  O_27
REMARK   16  A    between atoms: C_29  and  O_31
REMARK   17  A    between atoms: C_32  and  O_34
REMARK   18  A    between atoms: C_38  and  C_41
REMARK   19  A    between atoms: N_43  and  CA_44
REMARK   20  A    between atoms: CA_44  and  CB_46
REMARK   21  A    between atoms: CA_44  and  C_51
REMARK   22  A    between atoms: CB_46  and  CG_47
REMARK   23  A    between atoms: CG_47  and  CD_48
REMARK   24  A    between atoms: CD_48  and  OE1_49
REMARK   25  A    between atoms: C_51  and  O_52
REMARK                            x       y       z     vdW  Elec       q    Type
REMARK                         _______ _______ _______ _____ _____    ______ ____
ROOT
ATOM      1  C   UNK A   0       5.862  -4.156  22.306  0.00  0.00    +0.107 C 
ENDROOT
BRANCH   1   2
ATOM      2  C   UNK A   0       6.671  -2.944  22.787  0.00  0.00    -0.015 A 
ATOM      3  C   UNK A   0       6.120  -2.072  23.740  0.00  0.00    +0.007 A 
ATOM      4  C   UNK A   0       6.833  -0.972  24.210  0.00  0.00    +0.013 A 
ATOM      5  C   UNK A   0       8.135  -0.728  23.760  0.00  0.00    +0.037 A 
ATOM      6  C   UNK A   0       8.673  -1.555  22.767  0.00  0.00    +0.013 A 
ATOM      7  C   UNK A   0       7.947  -2.649  22.282  0.00  0.00    +0.007 A 
BRANCH   5   8
ATOM      8  C   UNK A   0       8.988   0.354  24.337  0.00  0.00    +0.245 C 
ATOM      9  N   GLU A   1       9.203   1.471  23.550  0.00  0.00    -0.298 N 
ATOM     10  H   GLU A   1       8.629   1.612  22.728  0.00  0.00    +0.150 HD
ATOM     11  O   UNK A   0       9.418   0.272  25.481  0.00  0.00    -0.270 OA
BRANCH   9  12
ATOM     12  CA  GLU A   1       9.808   2.701  24.093  0.00  0.00    +0.182 C 
BRANCH  12  13
ATOM     13  C   GLU A   1      10.779   3.257  23.036  0.00  0.00    +0.325 C 
ATOM     14  OXT GLU A   1      11.628   4.110  23.237  0.00  0.00    -0.249 OA
BRANCH  13  15
ATOM     15  O   GLU A   1      10.640   2.644  21.830  0.00  0.00    -0.479 OA
ATOM     16  H   GLU A   1      10.059   1.860  21.929  0.00  0.00    +0.295 HD
ENDBRANCH  13  15
ENDBRANCH  12  13
BRANCH  12  17
ATOM     17  CB  GLU A   1       8.735   3.739  24.444  0.00  0.00    +0.045 C 
BRANCH  17  18
ATOM     18  CG  GLU A   1       7.956   4.242  23.227  0.00  0.00    +0.123 C 
BRANCH  18  19
ATOM     19  CD  GLU A   1       6.780   3.351  22.906  0.00  0.00    +0.305 C 
ATOM     20  OE2 GLU A   1       6.170   2.674  23.717  0.00  0.00    -0.251 OA
BRANCH  19  21
ATOM     21  OE1 GLU A   1       6.434   3.406  21.600  0.00  0.00    -0.481 OA
ATOM     22  HE1 GLU A   1       5.693   2.815  21.360  0.00  0.00    +0.295 HD
ENDBRANCH  19  21
ENDBRANCH  18  19
ENDBRANCH  17  18
ENDBRANCH  12  17
ENDBRANCH   9  12
ENDBRANCH   5   8
ENDBRANCH   1   2
BRANCH   1  23
ATOM     23  O   UNK A   0       5.906  -4.242  20.872  0.00  0.00    -0.382 OA
ATOM     24  H   UNK A   0       6.527  -4.948  20.623  0.00  0.00    +0.211 HD
ENDBRANCH   1  23
BRANCH   1  25
ATOM     25  C   UNK A   0       4.355  -3.961  22.743  0.00  0.00    +0.121 C 
BRANCH  25  26
ATOM     26  N   UNK A   0       3.518  -5.196  22.847  0.00  0.00    -0.305 NA
ATOM     27  H   UNK A   0       3.976  -5.819  23.520  0.00  0.00    +0.122 HD
BRANCH  26  28
ATOM     28  C   UNK A   0       2.193  -4.859  23.411  0.00  0.00    +0.177 C 
BRANCH  28  29
ATOM     29  C   UNK A   0       2.216  -4.551  24.897  0.00  0.00    +0.229 C 
ATOM     30  N   UNK A   0       2.686  -3.324  25.271  0.00  0.00    -0.287 N 
ATOM     31  H   UNK A   0       3.321  -2.901  24.604  0.00  0.00    +0.151 HD
ATOM     32  O   UNK A   0       1.765  -5.381  25.699  0.00  0.00    -0.274 OA
BRANCH  30  33
ATOM     33  C   UNK A   0       2.803  -2.888  26.643  0.00  0.00    +0.237 C 
ATOM     34  C   UNK A   0       4.045  -3.337  27.450  0.00  0.00    +0.192 C 
ATOM     35  C   UNK A   0       4.884  -2.064  27.598  0.00  0.00    +0.178 C 
ATOM     36  C   UNK A   0       4.165  -1.031  26.730  0.00  0.00    +0.178 C 
ATOM     37  O   UNK A   0       2.791  -1.458  26.655  0.00  0.00    -0.348 OA
BRANCH  35  38
ATOM     38  O   UNK A   0       6.257  -2.261  27.273  0.00  0.00    -0.386 OA
ATOM     39  H   UNK A   0       6.391  -2.155  26.316  0.00  0.00    +0.210 HD
ENDBRANCH  35  38
BRANCH  34  40
ATOM     40  O   UNK A   0       3.639  -3.797  28.757  0.00  0.00    -0.385 OA
ATOM     41  H   UNK A   0       3.895  -3.121  29.409  0.00  0.00    +0.210 HD
ENDBRANCH  34  40
BRANCH  36  42
ATOM     42  C   UNK A   0       4.252   0.368  27.329  0.00  0.00    +0.206 C 
BRANCH  42  43
ATOM     43  O   UNK A   0       5.371   0.433  28.209  0.00  0.00    -0.284 OA
BRANCH  43  44
ATOM     44  P   UNK A   0       6.439   1.756  27.893  0.00  0.00    +0.472 P 
ATOM     45  O   UNK A   0       7.395   2.941  27.611  0.00  0.00    -0.228 OA
BRANCH  44  46
ATOM     46  O   UNK A   0       7.568   0.599  27.674  0.00  0.00    -0.303 OA
ATOM     47  H   UNK A   0       7.124  -0.178  27.287  0.00  0.00    +0.222 HD
ENDBRANCH  44  46
BRANCH  44  48
ATOM     48  O   UNK A   0       5.810   1.771  26.386  0.00  0.00    -0.303 OA
ATOM     49  H   UNK A   0       6.126   0.961  25.942  0.00  0.00    +0.222 HD
ENDBRANCH  44  48
ENDBRANCH  43  44
ENDBRANCH  42  43
ENDBRANCH  36  42
ENDBRANCH  30  33
ENDBRANCH  28  29
ENDBRANCH  26  28
ENDBRANCH  25  26
ENDBRANCH   1  25
BRANCH   1  50
ATOM     50  C   UNK A   0       6.433  -5.502  22.866  0.00  0.00    +0.076 C 
BRANCH  50  59
ATOM     51  N   UNK A   0       6.426  -7.083  30.485  0.00  0.00    -0.327 N 
ATOM     52  H   UNK A   0       7.170  -6.489  30.830  0.00  0.00    +0.145 HD
ATOM     53  H   UNK A   0       5.585  -7.141  31.025  0.00  0.00    +0.145 HD
ATOM     54  C   UNK A   0       6.153  -6.784  29.163  0.00  0.00    +0.216 A 
ATOM     55  N   UNK A   0       7.108  -6.161  28.471  0.00  0.00    -0.214 NA
ATOM     56  C   UNK A   0       6.877  -5.913  27.176  0.00  0.00    +0.080 A 
ATOM     57  C   UNK A   0       5.687  -6.267  26.550  0.00  0.00    +0.062 A 
ATOM     58  C   UNK A   0       5.501  -6.053  25.162  0.00  0.00    +0.019 A 
ATOM     59  C   UNK A   0       6.531  -5.516  24.384  0.00  0.00    -0.043 A 
ATOM     60  C   UNK A   0       7.698  -5.102  25.030  0.00  0.00    +0.006 A 
ATOM     61  C   UNK A   0       4.763  -6.860  27.391  0.00  0.00    +0.225 A 
ATOM     62  C   UNK A   0       7.860  -5.309  26.408  0.00  0.00    +0.029 A 
ATOM     63  N   UNK A   0       4.953  -7.126  28.695  0.00  0.00    -0.179 NA
BRANCH  61  64
ATOM     64  O   UNK A   0       3.546  -7.261  26.941  0.00  0.00    -0.492 OA
ATOM     65  H   UNK A   0       3.470  -6.719  26.134  0.00  0.00    +0.294 HD
ENDBRANCH  61  64
ENDBRANCH  50  59
ENDBRANCH   1  50
TORSDOF 25
ENDMDL
