MODEL 1
REMARK VINA RESULT:      -7.5      0.000      0.000
REMARK  Name = 
REMARK  5 active torsions:
REMARK  status: ('A' for Active; 'I' for Inactive)
REMARK    1  A    between atoms: C_5  and  C_7
REMARK    2  A    between atoms: C_8  and  S_9
REMARK    3  A    between atoms: S_9  and  N_12
REMARK    4  A    between atoms: N_15  and  C_16
REMARK    5  A    between atoms: C_16  and  C_17
REMARK                            x       y       z     vdW  Elec       q    Type
REMARK                         _______ _______ _______ _____ _____    ______ ____
ROOT
ATOM      1  N   UNL     1       8.795  -2.437  23.963  0.00  0.00    -0.167 NA
ATOM      2  C   UNL     1       7.822  -1.377  24.310  0.00  0.00    +0.205 C 
ATOM      3  C   UNL     1       7.605  -0.314  23.231  0.00  0.00    +0.232 C 
ATOM      4  O   UNL     1       6.585   0.376  23.224  0.00  0.00    -0.274 OA
ATOM      5  N   UNL     1       8.681  -0.067  22.383  0.00  0.00    -0.293 N 
ATOM      6  C   UNL     1       9.661  -1.121  22.122  0.00  0.00    +0.125 C 
ATOM      7  C   UNL     1      10.041  -1.893  23.386  0.00  0.00    +0.129 C 
ENDROOT
BRANCH   1   8
ATOM      8  S   UNL     1       8.896  -3.759  25.007  0.00  0.00    +0.055 S 
ATOM      9  O   UNL     1      10.121  -4.452  24.665  0.00  0.00    -0.153 OA
ATOM     10  O   UNL     1       8.702  -3.252  26.350  0.00  0.00    -0.153 OA
BRANCH   8  12
ATOM     11  C   UNL     1       6.336  -4.544  24.986  0.00  0.00    +0.035 C 
ATOM     12  C   UNL     1       7.590  -4.822  24.600  0.00  0.00    +0.154 C 
BRANCH  11  16
ATOM     13 CL   UNL     1       1.820  -6.673  22.733  0.00  0.00    -0.076 Cl
ATOM     14  C   UNL     1       3.215  -6.387  23.692  0.00  0.00    +0.079 A 
ATOM     15  S   UNL     1       4.132  -4.990  23.452  0.00  0.00    -0.077 S 
ATOM     16  C   UNL     1       5.253  -5.426  24.704  0.00  0.00    +0.015 A 
ATOM     17  C   UNL     1       4.881  -6.634  25.266  0.00  0.00    +0.017 A 
ATOM     18  C   UNL     1       3.703  -7.195  24.683  0.00  0.00    +0.028 A 
ENDBRANCH  11  16
ENDBRANCH   8  12
ENDBRANCH   1   8
BRANCH   5  19
ATOM     19  C   UNL     1       8.676   1.101  21.516  0.00  0.00    +0.161 C 
BRANCH  19  20
ATOM     20  C   UNL     1       9.223   2.242  22.312  0.00  0.00    +0.035 A 
ATOM     21  N   UNL     1      10.568   2.544  22.320  0.00  0.00    -0.357 N 
ATOM     22  H   UNL     1      11.281   2.021  21.827  0.00  0.00    +0.166 HD
ATOM     23  C   UNL     1      10.796   3.689  23.050  0.00  0.00    +0.050 A 
ATOM     24  C   UNL     1      11.973   4.396  23.296  0.00  0.00    +0.046 A 
ATOM     25  C   UNL     1      11.822   5.538  24.073  0.00  0.00    +0.113 A 
ATOM     26  N   UNL     1      10.655   5.975  24.592  0.00  0.00    -0.263 NA
ATOM     27  C   UNL     1       9.526   5.262  24.353  0.00  0.00    +0.120 A 
ATOM     28  C   UNL     1       9.569   4.103  23.567  0.00  0.00    +0.018 A 
ATOM     29  C   UNL     1       8.594   3.171  23.119  0.00  0.00    +0.034 A 
ENDBRANCH  19  20
ENDBRANCH   5  19
TORSDOF 5
ENDMDL
MODEL 2
REMARK VINA RESULT:      -7.4      2.144      2.830
REMARK  Name = 
REMARK  5 active torsions:
REMARK  status: ('A' for Active; 'I' for Inactive)
REMARK    1  A    between atoms: C_5  and  C_7
REMARK    2  A    between atoms: C_8  and  S_9
REMARK    3  A    between atoms: S_9  and  N_12
REMARK    4  A    between atoms: N_15  and  C_16
REMARK    5  A    between atoms: C_16  and  C_17
REMARK                            x       y       z     vdW  Elec       q    Type
REMARK                         _______ _______ _______ _____ _____    ______ ____
ROOT
ATOM      1  N   UNL     1       9.344  -2.324  24.242  0.00  0.00    -0.167 NA
ATOM      2  C   UNL     1       8.865  -2.193  22.848  0.00  0.00    +0.205 C 
ATOM      3  C   UNL     1       9.384  -0.968  22.093  0.00  0.00    +0.232 C 
ATOM      4  O   UNL     1       9.381  -0.939  20.862  0.00  0.00    -0.274 OA
ATOM      5  N   UNL     1       9.693   0.148  22.866  0.00  0.00    -0.293 N 
ATOM      6  C   UNL     1      10.095  -0.020  24.262  0.00  0.00    +0.125 C 
ATOM      7  C   UNL     1       9.244  -1.058  24.996  0.00  0.00    +0.129 C 
ENDROOT
BRANCH   1   8
ATOM      8  S   UNL     1       9.000  -3.770  25.041  0.00  0.00    +0.055 S 
ATOM      9  O   UNL     1      10.090  -4.671  24.732  0.00  0.00    -0.153 OA
ATOM     10  O   UNL     1       8.707  -3.433  26.419  0.00  0.00    -0.153 OA
BRANCH   8  12
ATOM     11  C   UNL     1       6.518  -4.775  25.037  0.00  0.00    +0.035 C 
ATOM     12  C   UNL     1       7.581  -4.430  24.296  0.00  0.00    +0.154 C 
BRANCH  11  16
ATOM     13 CL   UNL     1       2.235  -8.084  24.191  0.00  0.00    -0.076 Cl
ATOM     14  C   UNL     1       3.429  -6.855  24.068  0.00  0.00    +0.079 A 
ATOM     15  S   UNL     1       4.626  -6.721  25.250  0.00  0.00    -0.077 S 
ATOM     16  C   UNL     1       5.358  -5.364  24.453  0.00  0.00    +0.015 A 
ATOM     17  C   UNL     1       4.654  -5.060  23.301  0.00  0.00    +0.017 A 
ATOM     18  C   UNL     1       3.536  -5.921  23.074  0.00  0.00    +0.028 A 
ENDBRANCH  11  16
ENDBRANCH   8  12
ENDBRANCH   1   8
BRANCH   5  19
ATOM     19  C   UNL     1       9.925   1.436  22.231  0.00  0.00    +0.161 C 
BRANCH  19  20
ATOM     20  C   UNL     1       8.683   2.248  22.416  0.00  0.00    +0.035 A 
ATOM     21  N   UNL     1       8.725   3.618  22.560  0.00  0.00    -0.357 N 
ATOM     22  H   UNL     1       9.573   4.172  22.582  0.00  0.00    +0.166 HD
ATOM     23  C   UNL     1       7.448   4.131  22.619  0.00  0.00    +0.050 A 
ATOM     24  C   UNL     1       6.997   5.448  22.713  0.00  0.00    +0.046 A 
ATOM     25  C   UNL     1       5.616   5.597  22.729  0.00  0.00    +0.113 A 
ATOM     26  N   UNL     1       4.726   4.583  22.674  0.00  0.00    -0.263 NA
ATOM     27  C   UNL     1       5.188   3.311  22.599  0.00  0.00    +0.120 A 
ATOM     28  C   UNL     1       6.565   3.054  22.562  0.00  0.00    +0.018 A 
ATOM     29  C   UNL     1       7.353   1.875  22.461  0.00  0.00    +0.034 A 
ENDBRANCH  19  20
ENDBRANCH   5  19
TORSDOF 5
ENDMDL
MODEL 3
REMARK VINA RESULT:      -7.3      1.478      1.733
REMARK  Name = 
REMARK  5 active torsions:
REMARK  status: ('A' for Active; 'I' for Inactive)
REMARK    1  A    between atoms: C_5  and  C_7
REMARK    2  A    between atoms: C_8  and  S_9
REMARK    3  A    between atoms: S_9  and  N_12
REMARK    4  A    between atoms: N_15  and  C_16
REMARK    5  A    between atoms: C_16  and  C_17
REMARK                            x       y       z     vdW  Elec       q    Type
REMARK                         _______ _______ _______ _____ _____    ______ ____
ROOT
ATOM      1  N   UNL     1       9.378  -2.167  24.133  0.00  0.00    -0.167 NA
ATOM      2  C   UNL     1       8.700  -1.948  22.835  0.00  0.00    +0.205 C 
ATOM      3  C   UNL     1       9.271  -0.811  21.986  0.00  0.00    +0.232 C 
ATOM      4  O   UNL     1       9.068  -0.770  20.772  0.00  0.00    -0.274 OA
ATOM      5  N   UNL     1       9.872   0.235  22.679  0.00  0.00    -0.293 N 
ATOM      6  C   UNL     1      10.469  -0.008  23.992  0.00  0.00    +0.125 C 
ATOM      7  C   UNL     1       9.601  -0.909  24.872  0.00  0.00    +0.129 C 
ENDROOT
BRANCH   1   8
ATOM      8  S   UNL     1       8.951  -3.550  24.999  0.00  0.00    +0.055 S 
ATOM      9  O   UNL     1       9.998  -4.520  24.754  0.00  0.00    -0.153 OA
ATOM     10  O   UNL     1       8.658  -3.127  26.353  0.00  0.00    -0.153 OA
BRANCH   8  12
ATOM     11  C   UNL     1       6.634  -4.893  24.988  0.00  0.00    +0.035 C 
ATOM     12  C   UNL     1       7.510  -4.176  24.268  0.00  0.00    +0.154 C 
BRANCH  11  16
ATOM     13 CL   UNL     1       2.199  -8.011  24.200  0.00  0.00    -0.076 Cl
ATOM     14  C   UNL     1       3.468  -6.865  24.039  0.00  0.00    +0.079 A 
ATOM     15  S   UNL     1       4.623  -6.708  25.261  0.00  0.00    -0.077 S 
ATOM     16  C   UNL     1       5.465  -5.459  24.399  0.00  0.00    +0.015 A 
ATOM     17  C   UNL     1       4.828  -5.206  23.197  0.00  0.00    +0.017 A 
ATOM     18  C   UNL     1       3.671  -6.017  22.985  0.00  0.00    +0.028 A 
ENDBRANCH  11  16
ENDBRANCH   8  12
ENDBRANCH   1   8
BRANCH   5  19
ATOM     19  C   UNL     1      10.193   1.478  21.995  0.00  0.00    +0.161 C 
BRANCH  19  20
ATOM     20  C   UNL     1       9.908   2.592  22.950  0.00  0.00    +0.035 A 
ATOM     21  N   UNL     1      10.679   3.734  22.985  0.00  0.00    -0.357 N 
ATOM     22  H   UNL     1      11.494   3.900  22.407  0.00  0.00    +0.166 HD
ATOM     23  C   UNL     1      10.153   4.638  23.881  0.00  0.00    +0.050 A 
ATOM     24  C   UNL     1      10.555   5.931  24.216  0.00  0.00    +0.046 A 
ATOM     25  C   UNL     1       9.762   6.567  25.163  0.00  0.00    +0.113 A 
ATOM     26  N   UNL     1       8.680   6.023  25.760  0.00  0.00    -0.263 NA
ATOM     27  C   UNL     1       8.317   4.759  25.430  0.00  0.00    +0.120 A 
ATOM     28  C   UNL     1       9.043   4.037  24.473  0.00  0.00    +0.018 A 
ATOM     29  C   UNL     1       8.916   2.742  23.900  0.00  0.00    +0.034 A 
ENDBRANCH  19  20
ENDBRANCH   5  19
TORSDOF 5
ENDMDL
MODEL 4
REMARK VINA RESULT:      -7.2      1.940      2.782
REMARK  Name = 
REMARK  5 active torsions:
REMARK  status: ('A' for Active; 'I' for Inactive)
REMARK    1  A    between atoms: C_5  and  C_7
REMARK    2  A    between atoms: C_8  and  S_9
REMARK    3  A    between atoms: S_9  and  N_12
REMARK    4  A    between atoms: N_15  and  C_16
REMARK    5  A    between atoms: C_16  and  C_17
REMARK                            x       y       z     vdW  Elec       q    Type
REMARK                         _______ _______ _______ _____ _____    ______ ____
ROOT
ATOM      1  N   UNL     1       7.636  -3.930  25.159  0.00  0.00    -0.167 NA
ATOM      2  C   UNL     1       6.926  -3.271  24.040  0.00  0.00    +0.205 C 
ATOM      3  C   UNL     1       7.823  -2.758  22.912  0.00  0.00    +0.232 C 
ATOM      4  O   UNL     1       7.363  -2.547  21.789  0.00  0.00    -0.274 OA
ATOM      5  N   UNL     1       9.117  -2.393  23.270  0.00  0.00    -0.293 N 
ATOM      6  C   UNL     1       9.758  -3.019  24.427  0.00  0.00    +0.125 C 
ATOM      7  C   UNL     1       8.808  -3.159  25.617  0.00  0.00    +0.129 C 
ENDROOT
BRANCH   1   8
ATOM      8  S   UNL     1       6.689  -4.723  26.309  0.00  0.00    +0.055 S 
ATOM      9  O   UNL     1       7.384  -5.954  26.625  0.00  0.00    -0.153 OA
ATOM     10  O   UNL     1       6.402  -3.763  27.355  0.00  0.00    -0.153 OA
BRANCH   8  12
ATOM     11  C   UNL     1       4.883  -6.464  25.372  0.00  0.00    +0.035 C 
ATOM     12  C   UNL     1       5.213  -5.173  25.520  0.00  0.00    +0.154 C 
BRANCH  11  16
ATOM     13 CL   UNL     1       0.590  -6.429  21.970  0.00  0.00    -0.076 Cl
ATOM     14  C   UNL     1       1.760  -6.846  23.156  0.00  0.00    +0.079 A 
ATOM     15  S   UNL     1       3.041  -5.796  23.483  0.00  0.00    -0.077 S 
ATOM     16  C   UNL     1       3.698  -6.860  24.686  0.00  0.00    +0.015 A 
ATOM     17  C   UNL     1       2.906  -7.990  24.795  0.00  0.00    +0.017 A 
ATOM     18  C   UNL     1       1.784  -7.986  23.911  0.00  0.00    +0.028 A 
ENDBRANCH  11  16
ENDBRANCH   8  12
ENDBRANCH   1   8
BRANCH   5  19
ATOM     19  C   UNL     1       9.949  -1.643  22.342  0.00  0.00    +0.161 C 
BRANCH  19  20
ATOM     20  C   UNL     1       9.653  -0.193  22.558  0.00  0.00    +0.035 A 
ATOM     21  N   UNL     1       8.609   0.438  21.917  0.00  0.00    -0.357 N 
ATOM     22  H   UNL     1       7.991  -0.001  21.246  0.00  0.00    +0.166 HD
ATOM     23  C   UNL     1       8.495   1.738  22.357  0.00  0.00    +0.050 A 
ATOM     24  C   UNL     1       7.572   2.733  22.036  0.00  0.00    +0.046 A 
ATOM     25  C   UNL     1       7.752   3.940  22.700  0.00  0.00    +0.113 A 
ATOM     26  N   UNL     1       8.736   4.197  23.589  0.00  0.00    -0.263 NA
ATOM     27  C   UNL     1       9.631   3.219  23.874  0.00  0.00    +0.120 A 
ATOM     28  C   UNL     1       9.527   1.960  23.269  0.00  0.00    +0.018 A 
ATOM     29  C   UNL     1      10.263   0.748  23.365  0.00  0.00    +0.034 A 
ENDBRANCH  19  20
ENDBRANCH   5  19
TORSDOF 5
ENDMDL
MODEL 5
REMARK VINA RESULT:      -6.9      3.890      9.287
REMARK  Name = 
REMARK  5 active torsions:
REMARK  status: ('A' for Active; 'I' for Inactive)
REMARK    1  A    between atoms: C_5  and  C_7
REMARK    2  A    between atoms: C_8  and  S_9
REMARK    3  A    between atoms: S_9  and  N_12
REMARK    4  A    between atoms: N_15  and  C_16
REMARK    5  A    between atoms: C_16  and  C_17
REMARK                            x       y       z     vdW  Elec       q    Type
REMARK                         _______ _______ _______ _____ _____    ______ ____
ROOT
ATOM      1  N   UNL     1       9.281   0.170  23.018  0.00  0.00    -0.167 NA
ATOM      2  C   UNL     1       8.580  -0.078  24.298  0.00  0.00    +0.205 C 
ATOM      3  C   UNL     1       8.972  -1.371  25.015  0.00  0.00    +0.232 C 
ATOM      4  O   UNL     1       8.767  -1.508  26.222  0.00  0.00    -0.274 OA
ATOM      5  N   UNL     1       9.408  -2.417  24.208  0.00  0.00    -0.293 N 
ATOM      6  C   UNL     1      10.033  -2.131  22.917  0.00  0.00    +0.125 C 
ATOM      7  C   UNL     1       9.311  -1.023  22.149  0.00  0.00    +0.129 C 
ENDROOT
BRANCH   1   8
ATOM      8  S   UNL     1       9.068   1.685  22.306  0.00  0.00    +0.055 S 
ATOM      9  O   UNL     1      10.392   2.161  21.964  0.00  0.00    -0.153 OA
ATOM     10  O   UNL     1       8.065   1.529  21.273  0.00  0.00    -0.153 OA
BRANCH   8  12
ATOM     11  C   UNL     1       9.193   3.779  23.971  0.00  0.00    +0.035 C 
ATOM     12  C   UNL     1       8.463   2.740  23.541  0.00  0.00    +0.154 C 
BRANCH  11  16
ATOM     13 CL   UNL     1       6.357   5.703  28.244  0.00  0.00    -0.076 Cl
ATOM     14  C   UNL     1       7.458   5.504  26.941  0.00  0.00    +0.079 A 
ATOM     15  S   UNL     1       7.448   4.077  26.039  0.00  0.00    -0.077 S 
ATOM     16  C   UNL     1       8.737   4.633  25.018  0.00  0.00    +0.015 A 
ATOM     17  C   UNL     1       9.131   5.900  25.407  0.00  0.00    +0.017 A 
ATOM     18  C   UNL     1       8.394   6.408  26.521  0.00  0.00    +0.028 A 
ENDBRANCH  11  16
ENDBRANCH   8  12
ENDBRANCH   1   8
BRANCH   5  19
ATOM     19  C   UNL     1       9.537  -3.759  24.754  0.00  0.00    +0.161 C 
BRANCH  19  20
ATOM     20  C   UNL     1       8.178  -4.382  24.720  0.00  0.00    +0.035 A 
ATOM     21  N   UNL     1       7.454  -4.482  23.552  0.00  0.00    -0.357 N 
ATOM     22  H   UNL     1       7.756  -4.129  22.652  0.00  0.00    +0.166 HD
ATOM     23  C   UNL     1       6.285  -5.175  23.773  0.00  0.00    +0.050 A 
ATOM     24  C   UNL     1       5.272  -5.560  22.895  0.00  0.00    +0.046 A 
ATOM     25  C   UNL     1       4.233  -6.278  23.473  0.00  0.00    +0.113 A 
ATOM     26  N   UNL     1       4.146  -6.599  24.782  0.00  0.00    -0.263 NA
ATOM     27  C   UNL     1       5.135  -6.200  25.619  0.00  0.00    +0.120 A 
ATOM     28  C   UNL     1       6.235  -5.483  25.132  0.00  0.00    +0.018 A 
ATOM     29  C   UNL     1       7.417  -4.956  25.720  0.00  0.00    +0.034 A 
ENDBRANCH  19  20
ENDBRANCH   5  19
TORSDOF 5
ENDMDL
MODEL 6
REMARK VINA RESULT:      -6.8      4.325      9.927
REMARK  Name = 
REMARK  5 active torsions:
REMARK  status: ('A' for Active; 'I' for Inactive)
REMARK    1  A    between atoms: C_5  and  C_7
REMARK    2  A    between atoms: C_8  and  S_9
REMARK    3  A    between atoms: S_9  and  N_12
REMARK    4  A    between atoms: N_15  and  C_16
REMARK    5  A    between atoms: C_16  and  C_17
REMARK                            x       y       z     vdW  Elec       q    Type
REMARK                         _______ _______ _______ _____ _____    ______ ____
ROOT
ATOM      1  N   UNL     1       8.619  -0.321  23.345  0.00  0.00    -0.167 NA
ATOM      2  C   UNL     1       7.724  -0.464  24.515  0.00  0.00    +0.205 C 
ATOM      3  C   UNL     1       8.076  -1.607  25.468  0.00  0.00    +0.232 C 
ATOM      4  O   UNL     1       7.672  -1.603  26.632  0.00  0.00    -0.274 OA
ATOM      5  N   UNL     1       8.721  -2.705  24.905  0.00  0.00    -0.293 N 
ATOM      6  C   UNL     1       9.541  -2.533  23.706  0.00  0.00    +0.125 C 
ATOM      7  C   UNL     1       8.887  -1.610  22.677  0.00  0.00    +0.129 C 
ENDROOT
BRANCH   1   8
ATOM      8  S   UNL     1       8.426   1.059  22.393  0.00  0.00    +0.055 S 
ATOM      9  O   UNL     1       9.176   0.820  21.178  0.00  0.00    -0.153 OA
ATOM     10  O   UNL     1       7.005   1.330  22.326  0.00  0.00    -0.153 OA
BRANCH   8  12
ATOM     11  C   UNL     1       8.582   3.513  23.452  0.00  0.00    +0.035 C 
ATOM     12  C   UNL     1       9.221   2.356  23.223  0.00  0.00    +0.154 C 
BRANCH  11  16
ATOM     13 CL   UNL     1      12.423   7.108  24.981  0.00  0.00    -0.076 Cl
ATOM     14  C   UNL     1      10.959   6.231  24.784  0.00  0.00    +0.079 A 
ATOM     15  S   UNL     1      10.906   4.899  23.748  0.00  0.00    -0.077 S 
ATOM     16  C   UNL     1       9.230   4.612  24.091  0.00  0.00    +0.015 A 
ATOM     17  C   UNL     1       8.767   5.552  24.994  0.00  0.00    +0.017 A 
ATOM     18  C   UNL     1       9.765   6.493  25.397  0.00  0.00    +0.028 A 
ENDBRANCH  11  16
ENDBRANCH   8  12
ENDBRANCH   1   8
BRANCH   5  19
ATOM     19  C   UNL     1       8.848  -3.944  25.656  0.00  0.00    +0.161 C 
BRANCH  19  20
ATOM     20  C   UNL     1       7.633  -4.763  25.364  0.00  0.00    +0.035 A 
ATOM     21  N   UNL     1       6.940  -5.418  26.358  0.00  0.00    -0.357 N 
ATOM     22  H   UNL     1       7.201  -5.424  27.337  0.00  0.00    +0.166 HD
ATOM     23  C   UNL     1       5.814  -6.020  25.841  0.00  0.00    +0.050 A 
ATOM     24  C   UNL     1       4.798  -6.743  26.464  0.00  0.00    +0.046 A 
ATOM     25  C   UNL     1       3.792  -7.192  25.617  0.00  0.00    +0.113 A 
ATOM     26  N   UNL     1       3.751  -6.988  24.283  0.00  0.00    -0.263 NA
ATOM     27  C   UNL     1       4.759  -6.295  23.698  0.00  0.00    +0.120 A 
ATOM     28  C   UNL     1       5.814  -5.786  24.466  0.00  0.00    +0.018 A 
ATOM     29  C   UNL     1       6.975  -5.019  24.175  0.00  0.00    +0.034 A 
ENDBRANCH  19  20
ENDBRANCH   5  19
TORSDOF 5
ENDMDL
MODEL 7
REMARK VINA RESULT:      -6.8      3.943      9.693
REMARK  Name = 
REMARK  5 active torsions:
REMARK  status: ('A' for Active; 'I' for Inactive)
REMARK    1  A    between atoms: C_5  and  C_7
REMARK    2  A    between atoms: C_8  and  S_9
REMARK    3  A    between atoms: S_9  and  N_12
REMARK    4  A    between atoms: N_15  and  C_16
REMARK    5  A    between atoms: C_16  and  C_17
REMARK                            x       y       z     vdW  Elec       q    Type
REMARK                         _______ _______ _______ _____ _____    ______ ____
ROOT
ATOM      1  N   UNL     1       8.773  -2.568  23.955  0.00  0.00    -0.167 NA
ATOM      2  C   UNL     1       7.837  -1.819  24.823  0.00  0.00    +0.205 C 
ATOM      3  C   UNL     1       7.277  -2.605  26.009  0.00  0.00    +0.232 C 
ATOM      4  O   UNL     1       6.814  -2.021  26.990  0.00  0.00    -0.274 OA
ATOM      5  N   UNL     1       7.171  -3.983  25.842  0.00  0.00    -0.293 N 
ATOM      6  C   UNL     1       8.071  -4.677  24.920  0.00  0.00    +0.125 C 
ATOM      7  C   UNL     1       8.270  -3.913  23.611  0.00  0.00    +0.129 C 
ENDROOT
BRANCH   1   8
ATOM      8  S   UNL     1       9.603  -1.688  22.779  0.00  0.00    +0.055 S 
ATOM      9  O   UNL     1      10.940  -2.241  22.728  0.00  0.00    -0.153 OA
ATOM     10  O   UNL     1       8.774  -1.686  21.591  0.00  0.00    -0.153 OA
BRANCH   8  12
ATOM     11  C   UNL     1       9.620   0.980  22.552  0.00  0.00    +0.035 C 
ATOM     12  C   UNL     1       9.755  -0.069  23.377  0.00  0.00    +0.154 C 
BRANCH  11  16
ATOM     13 CL   UNL     1       8.514   6.093  24.177  0.00  0.00    -0.076 Cl
ATOM     14  C   UNL     1       9.292   4.626  23.740  0.00  0.00    +0.079 A 
ATOM     15  S   UNL     1       8.373   3.297  23.251  0.00  0.00    -0.077 S 
ATOM     16  C   UNL     1       9.788   2.320  23.011  0.00  0.00    +0.015 A 
ATOM     17  C   UNL     1      10.921   3.052  23.316  0.00  0.00    +0.017 A 
ATOM     18  C   UNL     1      10.639   4.387  23.740  0.00  0.00    +0.028 A 
ENDBRANCH  11  16
ENDBRANCH   8  12
ENDBRANCH   1   8
BRANCH   5  19
ATOM     19  C   UNL     1       6.404  -4.779  26.788  0.00  0.00    +0.161 C 
BRANCH  19  20
ATOM     20  C   UNL     1       5.292  -5.421  26.023  0.00  0.00    +0.035 A 
ATOM     21  N   UNL     1       4.593  -4.743  25.048  0.00  0.00    -0.357 N 
ATOM     22  H   UNL     1       4.748  -3.775  24.792  0.00  0.00    +0.166 HD
ATOM     23  C   UNL     1       3.690  -5.583  24.435  0.00  0.00    +0.050 A 
ATOM     24  C   UNL     1       2.810  -5.361  23.376  0.00  0.00    +0.046 A 
ATOM     25  C   UNL     1       2.051  -6.462  23.002  0.00  0.00    +0.113 A 
ATOM     26  N   UNL     1       2.104  -7.678  23.588  0.00  0.00    -0.263 NA
ATOM     27  C   UNL     1       2.956  -7.865  24.627  0.00  0.00    +0.120 A 
ATOM     28  C   UNL     1       3.778  -6.821  25.071  0.00  0.00    +0.018 A 
ATOM     29  C   UNL     1       4.768  -6.698  26.084  0.00  0.00    +0.034 A 
ENDBRANCH  19  20
ENDBRANCH   5  19
TORSDOF 5
ENDMDL
MODEL 8
REMARK VINA RESULT:      -6.8      2.655      3.286
REMARK  Name = 
REMARK  5 active torsions:
REMARK  status: ('A' for Active; 'I' for Inactive)
REMARK    1  A    between atoms: C_5  and  C_7
REMARK    2  A    between atoms: C_8  and  S_9
REMARK    3  A    between atoms: S_9  and  N_12
REMARK    4  A    between atoms: N_15  and  C_16
REMARK    5  A    between atoms: C_16  and  C_17
REMARK                            x       y       z     vdW  Elec       q    Type
REMARK                         _______ _______ _______ _____ _____    ______ ____
ROOT
ATOM      1  N   UNL     1       7.794  -3.056  22.858  0.00  0.00    -0.167 NA
ATOM      2  C   UNL     1       8.042  -1.899  21.970  0.00  0.00    +0.205 C 
ATOM      3  C   UNL     1       9.300  -1.090  22.291  0.00  0.00    +0.232 C 
ATOM      4  O   UNL     1       9.818  -0.368  21.439  0.00  0.00    -0.274 OA
ATOM      5  N   UNL     1       9.711  -1.090  23.621  0.00  0.00    -0.293 N 
ATOM      6  C   UNL     1       9.383  -2.223  24.486  0.00  0.00    +0.125 C 
ATOM      7  C   UNL     1       7.950  -2.717  24.286  0.00  0.00    +0.129 C 
ENDROOT
BRANCH   1   8
ATOM      8  S   UNL     1       6.563  -4.120  22.409  0.00  0.00    +0.055 S 
ATOM      9  O   UNL     1       5.718  -3.392  21.484  0.00  0.00    -0.153 OA
ATOM     10  O   UNL     1       7.200  -5.352  21.992  0.00  0.00    -0.153 OA
BRANCH   8  12
ATOM     11  C   UNL     1       5.598  -5.626  24.401  0.00  0.00    +0.035 C 
ATOM     12  C   UNL     1       5.611  -4.415  23.826  0.00  0.00    +0.154 C 
BRANCH  11  16
ATOM     13 CL   UNL     1       3.365  -5.319  29.394  0.00  0.00    -0.076 Cl
ATOM     14  C   UNL     1       3.782  -5.772  27.790  0.00  0.00    +0.079 A 
ATOM     15  S   UNL     1       4.942  -4.891  26.938  0.00  0.00    -0.077 S 
ATOM     16  C   UNL     1       4.787  -5.907  25.540  0.00  0.00    +0.015 A 
ATOM     17  C   UNL     1       3.846  -6.893  25.778  0.00  0.00    +0.017 A 
ATOM     18  C   UNL     1       3.261  -6.819  27.079  0.00  0.00    +0.028 A 
ENDBRANCH  11  16
ENDBRANCH   8  12
ENDBRANCH   1   8
BRANCH   5  19
ATOM     19  C   UNL     1      10.716  -0.142  24.076  0.00  0.00    +0.161 C 
BRANCH  19  20
ATOM     20  C   UNL     1      10.048   1.190  24.186  0.00  0.00    +0.035 A 
ATOM     21  N   UNL     1       8.955   1.391  25.002  0.00  0.00    -0.357 N 
ATOM     22  H   UNL     1       8.508   0.672  25.557  0.00  0.00    +0.166 HD
ATOM     23  C   UNL     1       8.591   2.719  24.995  0.00  0.00    +0.050 A 
ATOM     24  C   UNL     1       7.590   3.395  25.693  0.00  0.00    +0.046 A 
ATOM     25  C   UNL     1       7.523   4.761  25.449  0.00  0.00    +0.113 A 
ATOM     26  N   UNL     1       8.328   5.439  24.602  0.00  0.00    -0.263 NA
ATOM     27  C   UNL     1       9.283   4.757  23.923  0.00  0.00    +0.120 A 
ATOM     28  C   UNL     1       9.443   3.378  24.109  0.00  0.00    +0.018 A 
ATOM     29  C   UNL     1      10.336   2.403  23.588  0.00  0.00    +0.034 A 
ENDBRANCH  19  20
ENDBRANCH   5  19
TORSDOF 5
ENDMDL
MODEL 9
REMARK VINA RESULT:      -6.7      4.100      8.626
REMARK  Name = 
REMARK  5 active torsions:
REMARK  status: ('A' for Active; 'I' for Inactive)
REMARK    1  A    between atoms: C_5  and  C_7
REMARK    2  A    between atoms: C_8  and  S_9
REMARK    3  A    between atoms: S_9  and  N_12
REMARK    4  A    between atoms: N_15  and  C_16
REMARK    5  A    between atoms: C_16  and  C_17
REMARK                            x       y       z     vdW  Elec       q    Type
REMARK                         _______ _______ _______ _____ _____    ______ ____
ROOT
ATOM      1  N   UNL     1       9.699   0.261  23.672  0.00  0.00    -0.167 NA
ATOM      2  C   UNL     1       8.877   0.095  24.892  0.00  0.00    +0.205 C 
ATOM      3  C   UNL     1       8.957  -1.284  25.548  0.00  0.00    +0.232 C 
ATOM      4  O   UNL     1       8.647  -1.438  26.730  0.00  0.00    -0.274 OA
ATOM      5  N   UNL     1       9.231  -2.355  24.703  0.00  0.00    -0.293 N 
ATOM      6  C   UNL     1       9.988  -2.136  23.470  0.00  0.00    +0.125 C 
ATOM      7  C   UNL     1       9.552  -0.869  22.733  0.00  0.00    +0.129 C 
ENDROOT
BRANCH   1   8
ATOM      8  S   UNL     1       9.838   1.822  23.046  0.00  0.00    +0.055 S 
ATOM      9  O   UNL     1      10.915   2.456  23.777  0.00  0.00    -0.153 OA
ATOM     10  O   UNL     1       9.918   1.693  21.605  0.00  0.00    -0.153 OA
BRANCH   8  12
ATOM     11  C   UNL     1       7.328   2.661  22.642  0.00  0.00    +0.035 C 
ATOM     12  C   UNL     1       8.385   2.664  23.468  0.00  0.00    +0.154 C 
BRANCH  11  16
ATOM     13 CL   UNL     1       3.844   6.195  24.961  0.00  0.00    -0.076 Cl
ATOM     14  C   UNL     1       4.565   4.975  23.991  0.00  0.00    +0.079 A 
ATOM     15  S   UNL     1       6.201   4.604  24.179  0.00  0.00    -0.077 S 
ATOM     16  C   UNL     1       6.138   3.385  22.946  0.00  0.00    +0.015 A 
ATOM     17  C   UNL     1       4.856   3.304  22.431  0.00  0.00    +0.017 A 
ATOM     18  C   UNL     1       3.942   4.223  23.032  0.00  0.00    +0.028 A 
ENDBRANCH  11  16
ENDBRANCH   8  12
ENDBRANCH   1   8
BRANCH   5  19
ATOM     19  C   UNL     1       9.055  -3.721  25.171  0.00  0.00    +0.161 C 
BRANCH  19  20
ATOM     20  C   UNL     1       7.740  -4.201  24.647  0.00  0.00    +0.035 A 
ATOM     21  N   UNL     1       6.547  -3.833  25.230  0.00  0.00    -0.357 N 
ATOM     22  H   UNL     1       6.461  -3.248  26.052  0.00  0.00    +0.166 HD
ATOM     23  C   UNL     1       5.487  -4.330  24.504  0.00  0.00    +0.050 A 
ATOM     24  C   UNL     1       4.112  -4.179  24.678  0.00  0.00    +0.046 A 
ATOM     25  C   UNL     1       3.325  -4.817  23.726  0.00  0.00    +0.113 A 
ATOM     26  N   UNL     1       3.797  -5.552  22.696  0.00  0.00    -0.263 NA
ATOM     27  C   UNL     1       5.137  -5.697  22.557  0.00  0.00    +0.120 A 
ATOM     28  C   UNL     1       6.018  -5.080  23.456  0.00  0.00    +0.018 A 
ATOM     29  C   UNL     1       7.433  -5.014  23.572  0.00  0.00    +0.034 A 
ENDBRANCH  19  20
ENDBRANCH   5  19
TORSDOF 5
ENDMDL
