MODEL 1
REMARK VINA RESULT:      -7.8      0.000      0.000
REMARK  Name = 
REMARK  4 active torsions:
REMARK  status: ('A' for Active; 'I' for Inactive)
REMARK    1  A    between atoms: C_1  and  N_2
REMARK    2  A    between atoms: C_11  and  C_22
REMARK    3  A    between atoms: C_13  and  C_18
REMARK    4  A    between atoms: C_24  and  O_25
REMARK                            x       y       z     vdW  Elec       q    Type
REMARK                         _______ _______ _______ _____ _____    ______ ____
ROOT
ATOM      1  C   UNL     1       2.850   1.904  27.074  0.00  0.00    +0.105 C 
ATOM      2  N   UNL     1       3.393   1.966  25.719  0.00  0.00    -0.302 NA
ATOM      3  C   UNL     1       4.708   1.291  25.625  0.00  0.00    +0.103 C 
ATOM      4  C   UNL     1       5.893   2.033  26.288  0.00  0.00    +0.122 C 
ATOM      5  N   UNL     1       5.932   3.444  25.884  0.00  0.00    -0.312 N 
ATOM      6  C   UNL     1       7.108   4.002  25.445  0.00  0.00    +0.140 A 
ATOM      7  C   UNL     1       7.377   5.363  25.491  0.00  0.00    +0.155 A 
ATOM      8  N   UNL     1       8.516   5.935  25.033  0.00  0.00    -0.250 NA
ATOM      9  C   UNL     1       9.416   5.106  24.490  0.00  0.00    +0.090 A 
ATOM     10  C   UNL     1       9.199   3.707  24.404  0.00  0.00    +0.099 A 
ATOM     11  C   UNL     1      10.185   2.898  23.781  0.00  0.00    +0.010 A 
ATOM     12  C   UNL     1      11.353   3.521  23.279  0.00  0.00    +0.023 A 
ATOM     13  C   UNL     1      11.576   4.894  23.405  0.00  0.00    +0.058 A 
ATOM     14  C   UNL     1      10.585   5.668  24.008  0.00  0.00    +0.042 A 
ATOM     15  N   UNL     1       8.051   3.192  24.918  0.00  0.00    -0.228 NA
ATOM     16  C   UNL     1       4.666   4.176  25.937  0.00  0.00    +0.122 C 
ATOM     17  C   UNL     1       3.538   3.362  25.257  0.00  0.00    +0.103 C 
ENDROOT
BRANCH  11  18
ATOM     18  C   UNL     1      10.037   1.416  23.632  0.00  0.00    -0.012 A 
ATOM     19  C   UNL     1       9.966   0.571  24.761  0.00  0.00    +0.009 A 
ATOM     20  C   UNL     1       9.830  -0.817  24.639  0.00  0.00    +0.004 A 
ATOM     21  C   UNL     1       9.736  -1.398  23.381  0.00  0.00    +0.045 A 
ATOM     22  C   UNL     1       9.797  -0.589  22.257  0.00  0.00    +0.117 A 
ATOM     23  C   UNL     1       9.968   0.791  22.373  0.00  0.00    +0.054 A 
BRANCH  22  24
ATOM     24  O   UNL     1       9.681  -1.188  21.036  0.00  0.00    -0.507 OA
ATOM     25  H   UNL     1       9.043  -1.917  21.113  0.00  0.00    +0.292 HD
ENDBRANCH  22  24
ENDBRANCH  11  18
BRANCH  13  26
ATOM     26  C   UNL     1      12.845   5.540  22.909  0.00  0.00    +0.418 C 
ATOM     27  F   UNL     1      13.952   4.809  23.218  0.00  0.00    -0.166 F 
ATOM     28  F   UNL     1      13.046   6.774  23.446  0.00  0.00    -0.166 F 
ATOM     29  F   UNL     1      12.876   5.708  21.558  0.00  0.00    -0.166 F 
ENDBRANCH  13  26
TORSDOF 3
ENDMDL
MODEL 2
REMARK VINA RESULT:      -7.4      3.236      5.421
REMARK  Name = 
REMARK  4 active torsions:
REMARK  status: ('A' for Active; 'I' for Inactive)
REMARK    1  A    between atoms: C_1  and  N_2
REMARK    2  A    between atoms: C_11  and  C_22
REMARK    3  A    between atoms: C_13  and  C_18
REMARK    4  A    between atoms: C_24  and  O_25
REMARK                            x       y       z     vdW  Elec       q    Type
REMARK                         _______ _______ _______ _____ _____    ______ ____
ROOT
ATOM      1  C   UNL     1       6.183  -5.057  23.453  0.00  0.00    +0.105 C 
ATOM      2  N   UNL     1       6.205  -4.018  24.480  0.00  0.00    -0.302 NA
ATOM      3  C   UNL     1       5.705  -2.724  23.960  0.00  0.00    +0.103 C 
ATOM      4  C   UNL     1       6.650  -1.981  22.985  0.00  0.00    +0.122 C 
ATOM      5  N   UNL     1       8.015  -1.906  23.519  0.00  0.00    -0.312 N 
ATOM      6  C   UNL     1       8.686  -0.707  23.526  0.00  0.00    +0.140 A 
ATOM      7  C   UNL     1      10.070  -0.601  23.554  0.00  0.00    +0.155 A 
ATOM      8  N   UNL     1      10.748   0.571  23.595  0.00  0.00    -0.250 NA
ATOM      9  C   UNL     1      10.003   1.683  23.626  0.00  0.00    +0.090 A 
ATOM     10  C   UNL     1       8.586   1.644  23.610  0.00  0.00    +0.099 A 
ATOM     11  C   UNL     1       7.866   2.865  23.684  0.00  0.00    +0.010 A 
ATOM     12  C   UNL     1       8.595   4.076  23.761  0.00  0.00    +0.023 A 
ATOM     13  C   UNL     1       9.991   4.107  23.735  0.00  0.00    +0.058 A 
ATOM     14  C   UNL     1      10.674   2.892  23.677  0.00  0.00    +0.042 A 
ATOM     15  N   UNL     1       7.968   0.437  23.529  0.00  0.00    -0.228 NA
ATOM     16  C   UNL     1       8.575  -3.143  24.064  0.00  0.00    +0.122 C 
ATOM     17  C   UNL     1       7.565  -3.820  25.024  0.00  0.00    +0.103 C 
ENDROOT
BRANCH  11  18
ATOM     18  C   UNL     1       6.370   2.921  23.687  0.00  0.00    -0.012 A 
ATOM     19  C   UNL     1       5.630   2.607  24.848  0.00  0.00    +0.009 A 
ATOM     20  C   UNL     1       4.231   2.653  24.867  0.00  0.00    +0.004 A 
ATOM     21  C   UNL     1       3.532   3.039  23.729  0.00  0.00    +0.045 A 
ATOM     22  C   UNL     1       4.237   3.358  22.579  0.00  0.00    +0.117 A 
ATOM     23  C   UNL     1       5.630   3.280  22.545  0.00  0.00    +0.054 A 
BRANCH  22  24
ATOM     24  O   UNL     1       3.523   3.753  21.485  0.00  0.00    -0.507 OA
ATOM     25  H   UNL     1       4.094   4.316  20.936  0.00  0.00    +0.292 HD
ENDBRANCH  22  24
ENDBRANCH  11  18
BRANCH  13  26
ATOM     26  C   UNL     1      10.757   5.406  23.768  0.00  0.00    +0.418 C 
ATOM     27  F   UNL     1      10.193   6.358  22.975  0.00  0.00    -0.166 F 
ATOM     28  F   UNL     1      12.039   5.266  23.337  0.00  0.00    -0.166 F 
ATOM     29  F   UNL     1      10.835   5.956  25.011  0.00  0.00    -0.166 F 
ENDBRANCH  13  26
TORSDOF 3
ENDMDL
MODEL 3
REMARK VINA RESULT:      -7.1      5.171      7.229
REMARK  Name = 
REMARK  4 active torsions:
REMARK  status: ('A' for Active; 'I' for Inactive)
REMARK    1  A    between atoms: C_1  and  N_2
REMARK    2  A    between atoms: C_11  and  C_22
REMARK    3  A    between atoms: C_13  and  C_18
REMARK    4  A    between atoms: C_24  and  O_25
REMARK                            x       y       z     vdW  Elec       q    Type
REMARK                         _______ _______ _______ _____ _____    ______ ____
ROOT
ATOM      1  C   UNL     1       5.042   3.128  29.486  0.00  0.00    +0.105 C 
ATOM      2  N   UNL     1       6.019   2.056  29.317  0.00  0.00    -0.302 NA
ATOM      3  C   UNL     1       6.647   2.094  27.976  0.00  0.00    +0.103 C 
ATOM      4  C   UNL     1       5.745   1.653  26.798  0.00  0.00    +0.122 C 
ATOM      5  N   UNL     1       5.072   0.382  27.090  0.00  0.00    -0.312 N 
ATOM      6  C   UNL     1       5.093  -0.636  26.167  0.00  0.00    +0.140 A 
ATOM      7  C   UNL     1       4.144  -1.649  26.119  0.00  0.00    +0.155 A 
ATOM      8  N   UNL     1       4.167  -2.678  25.238  0.00  0.00    -0.250 NA
ATOM      9  C   UNL     1       5.195  -2.699  24.380  0.00  0.00    +0.090 A 
ATOM     10  C   UNL     1       6.201  -1.700  24.383  0.00  0.00    +0.099 A 
ATOM     11  C   UNL     1       7.280  -1.811  23.468  0.00  0.00    +0.010 A 
ATOM     12  C   UNL     1       7.302  -2.913  22.579  0.00  0.00    +0.023 A 
ATOM     13  C   UNL     1       6.284  -3.870  22.556  0.00  0.00    +0.058 A 
ATOM     14  C   UNL     1       5.244  -3.745  23.476  0.00  0.00    +0.042 A 
ATOM     15  N   UNL     1       6.099  -0.673  25.268  0.00  0.00    -0.228 NA
ATOM     16  C   UNL     1       4.438   0.262  28.403  0.00  0.00    +0.122 C 
ATOM     17  C   UNL     1       5.406   0.727  29.519  0.00  0.00    +0.103 C 
ENDROOT
BRANCH  11  18
ATOM     18  C   UNL     1       8.395  -0.814  23.407  0.00  0.00    -0.012 A 
ATOM     19  C   UNL     1       9.436  -0.823  24.360  0.00  0.00    +0.009 A 
ATOM     20  C   UNL     1      10.484   0.104  24.319  0.00  0.00    +0.004 A 
ATOM     21  C   UNL     1      10.534   1.054  23.306  0.00  0.00    +0.045 A 
ATOM     22  C   UNL     1       9.525   1.079  22.355  0.00  0.00    +0.117 A 
ATOM     23  C   UNL     1       8.460   0.180  22.412  0.00  0.00    +0.054 A 
BRANCH  22  24
ATOM     24  O   UNL     1       9.612   2.011  21.362  0.00  0.00    -0.507 OA
ATOM     25  H   UNL     1       9.397   2.880  21.740  0.00  0.00    +0.292 HD
ENDBRANCH  22  24
ENDBRANCH  11  18
BRANCH  13  26
ATOM     26  C   UNL     1       6.292  -5.013  21.573  0.00  0.00    +0.418 C 
ATOM     27  F   UNL     1       5.956  -4.614  20.314  0.00  0.00    -0.166 F 
ATOM     28  F   UNL     1       5.411  -5.994  21.906  0.00  0.00    -0.166 F 
ATOM     29  F   UNL     1       7.505  -5.620  21.458  0.00  0.00    -0.166 F 
ENDBRANCH  13  26
TORSDOF 3
ENDMDL
MODEL 4
REMARK VINA RESULT:      -6.9      4.227      6.385
REMARK  Name = 
REMARK  4 active torsions:
REMARK  status: ('A' for Active; 'I' for Inactive)
REMARK    1  A    between atoms: C_1  and  N_2
REMARK    2  A    between atoms: C_11  and  C_22
REMARK    3  A    between atoms: C_13  and  C_18
REMARK    4  A    between atoms: C_24  and  O_25
REMARK                            x       y       z     vdW  Elec       q    Type
REMARK                         _______ _______ _______ _____ _____    ______ ____
ROOT
ATOM      1  C   UNL     1       5.240  -6.589  27.091  0.00  0.00    +0.105 C 
ATOM      2  N   UNL     1       5.993  -5.534  27.764  0.00  0.00    -0.302 NA
ATOM      3  C   UNL     1       5.474  -4.189  27.425  0.00  0.00    +0.103 C 
ATOM      4  C   UNL     1       5.780  -3.691  25.993  0.00  0.00    +0.122 C 
ATOM      5  N   UNL     1       7.198  -3.869  25.659  0.00  0.00    -0.312 N 
ATOM      6  C   UNL     1       7.913  -2.829  25.113  0.00  0.00    +0.140 A 
ATOM      7  C   UNL     1       9.059  -3.003  24.350  0.00  0.00    +0.155 A 
ATOM      8  N   UNL     1       9.795  -1.989  23.833  0.00  0.00    -0.250 NA
ATOM      9  C   UNL     1       9.370  -0.750  24.108  0.00  0.00    +0.090 A 
ATOM     10  C   UNL     1       8.212  -0.505  24.889  0.00  0.00    +0.099 A 
ATOM     11  C   UNL     1       7.846   0.838  25.169  0.00  0.00    +0.010 A 
ATOM     12  C   UNL     1       8.648   1.880  24.647  0.00  0.00    +0.023 A 
ATOM     13  C   UNL     1       9.764   1.630  23.844  0.00  0.00    +0.058 A 
ATOM     14  C   UNL     1      10.110   0.301  23.597  0.00  0.00    +0.042 A 
ATOM     15  N   UNL     1       7.497  -1.566  25.346  0.00  0.00    -0.228 NA
ATOM     16  C   UNL     1       7.789  -5.170  25.976  0.00  0.00    +0.122 C 
ATOM     17  C   UNL     1       7.430  -5.591  27.422  0.00  0.00    +0.103 C 
ENDROOT
BRANCH  11  18
ATOM     18  C   UNL     1       6.649   1.193  25.996  0.00  0.00    -0.012 A 
ATOM     19  C   UNL     1       6.756   1.383  27.391  0.00  0.00    +0.009 A 
ATOM     20  C   UNL     1       5.647   1.713  28.179  0.00  0.00    +0.004 A 
ATOM     21  C   UNL     1       4.401   1.887  27.588  0.00  0.00    +0.045 A 
ATOM     22  C   UNL     1       4.273   1.711  26.219  0.00  0.00    +0.117 A 
ATOM     23  C   UNL     1       5.368   1.347  25.434  0.00  0.00    +0.054 A 
BRANCH  22  24
ATOM     24  O   UNL     1       3.041   1.908  25.665  0.00  0.00    -0.507 OA
ATOM     25  H   UNL     1       3.161   2.312  24.789  0.00  0.00    +0.292 HD
ENDBRANCH  22  24
ENDBRANCH  11  18
BRANCH  13  26
ATOM     26  C   UNL     1      10.583   2.749  23.253  0.00  0.00    +0.418 C 
ATOM     27  F   UNL     1      10.820   2.569  21.924  0.00  0.00    -0.166 F 
ATOM     28  F   UNL     1      11.804   2.869  23.841  0.00  0.00    -0.166 F 
ATOM     29  F   UNL     1       9.991   3.970  23.363  0.00  0.00    -0.166 F 
ENDBRANCH  13  26
TORSDOF 3
ENDMDL
MODEL 5
REMARK VINA RESULT:      -6.9      3.293      5.552
REMARK  Name = 
REMARK  4 active torsions:
REMARK  status: ('A' for Active; 'I' for Inactive)
REMARK    1  A    between atoms: C_1  and  N_2
REMARK    2  A    between atoms: C_11  and  C_22
REMARK    3  A    between atoms: C_13  and  C_18
REMARK    4  A    between atoms: C_24  and  O_25
REMARK                            x       y       z     vdW  Elec       q    Type
REMARK                         _______ _______ _______ _____ _____    ______ ____
ROOT
ATOM      1  C   UNL     1       5.880  -5.035  22.917  0.00  0.00    +0.105 C 
ATOM      2  N   UNL     1       6.301  -4.240  24.069  0.00  0.00    -0.302 NA
ATOM      3  C   UNL     1       5.655  -2.907  24.078  0.00  0.00    +0.103 C 
ATOM      4  C   UNL     1       6.169  -1.904  23.017  0.00  0.00    +0.122 C 
ATOM      5  N   UNL     1       7.635  -1.842  23.009  0.00  0.00    -0.312 N 
ATOM      6  C   UNL     1       8.272  -0.625  23.037  0.00  0.00    +0.140 A 
ATOM      7  C   UNL     1       9.565  -0.423  22.572  0.00  0.00    +0.155 A 
ATOM      8  N   UNL     1      10.221   0.761  22.622  0.00  0.00    -0.250 NA
ATOM      9  C   UNL     1       9.556   1.781  23.178  0.00  0.00    +0.090 A 
ATOM     10  C   UNL     1       8.238   1.640  23.681  0.00  0.00    +0.099 A 
ATOM     11  C   UNL     1       7.612   2.759  24.290  0.00  0.00    +0.010 A 
ATOM     12  C   UNL     1       8.330   3.978  24.362  0.00  0.00    +0.023 A 
ATOM     13  C   UNL     1       9.613   4.118  23.828  0.00  0.00    +0.058 A 
ATOM     14  C   UNL     1      10.209   2.999  23.248  0.00  0.00    +0.042 A 
ATOM     15  N   UNL     1       7.621   0.434  23.565  0.00  0.00    -0.228 NA
ATOM     16  C   UNL     1       8.346  -3.121  23.013  0.00  0.00    +0.122 C 
ATOM     17  C   UNL     1       7.767  -4.061  24.099  0.00  0.00    +0.103 C 
ENDROOT
BRANCH  11  18
ATOM     18  C   UNL     1       6.230   2.700  24.861  0.00  0.00    -0.012 A 
ATOM     19  C   UNL     1       6.018   2.520  26.245  0.00  0.00    +0.009 A 
ATOM     20  C   UNL     1       4.732   2.461  26.794  0.00  0.00    +0.004 A 
ATOM     21  C   UNL     1       3.618   2.605  25.975  0.00  0.00    +0.045 A 
ATOM     22  C   UNL     1       3.801   2.790  24.613  0.00  0.00    +0.117 A 
ATOM     23  C   UNL     1       5.081   2.814  24.056  0.00  0.00    +0.054 A 
BRANCH  22  24
ATOM     24  O   UNL     1       2.689   2.948  23.839  0.00  0.00    -0.507 OA
ATOM     25  H   UNL     1       2.163   2.133  23.890  0.00  0.00    +0.292 HD
ENDBRANCH  22  24
ENDBRANCH  11  18
BRANCH  13  26
ATOM     26  C   UNL     1      10.348   5.434  23.867  0.00  0.00    +0.418 C 
ATOM     27  F   UNL     1      11.643   5.314  23.463  0.00  0.00    -0.166 F 
ATOM     28  F   UNL     1      10.391   5.971  25.116  0.00  0.00    -0.166 F 
ATOM     29  F   UNL     1       9.796   6.387  23.067  0.00  0.00    -0.166 F 
ENDBRANCH  13  26
TORSDOF 3
ENDMDL
MODEL 6
REMARK VINA RESULT:      -6.9      8.531     11.058
REMARK  Name = 
REMARK  4 active torsions:
REMARK  status: ('A' for Active; 'I' for Inactive)
REMARK    1  A    between atoms: C_1  and  N_2
REMARK    2  A    between atoms: C_11  and  C_22
REMARK    3  A    between atoms: C_13  and  C_18
REMARK    4  A    between atoms: C_24  and  O_25
REMARK                            x       y       z     vdW  Elec       q    Type
REMARK                         _______ _______ _______ _____ _____    ______ ____
ROOT
ATOM      1  C   UNL     1      10.035  -0.059  24.954  0.00  0.00    +0.105 C 
ATOM      2  N   UNL     1       8.637  -0.084  25.377  0.00  0.00    -0.302 NA
ATOM      3  C   UNL     1       8.316  -1.317  26.132  0.00  0.00    +0.103 C 
ATOM      4  C   UNL     1       8.235  -2.616  25.294  0.00  0.00    +0.122 C 
ATOM      5  N   UNL     1       7.400  -2.429  24.101  0.00  0.00    -0.312 N 
ATOM      6  C   UNL     1       6.418  -3.341  23.798  0.00  0.00    +0.140 A 
ATOM      7  C   UNL     1       5.914  -3.531  22.518  0.00  0.00    +0.155 A 
ATOM      8  N   UNL     1       4.924  -4.401  22.207  0.00  0.00    -0.250 NA
ATOM      9  C   UNL     1       4.407  -5.097  23.227  0.00  0.00    +0.090 A 
ATOM     10  C   UNL     1       4.870  -4.944  24.558  0.00  0.00    +0.099 A 
ATOM     11  C   UNL     1       4.246  -5.691  25.591  0.00  0.00    +0.010 A 
ATOM     12  C   UNL     1       3.190  -6.569  25.247  0.00  0.00    +0.023 A 
ATOM     13  C   UNL     1       2.768  -6.743  23.927  0.00  0.00    +0.058 A 
ATOM     14  C   UNL     1       3.388  -5.986  22.934  0.00  0.00    +0.042 A 
ATOM     15  N   UNL     1       5.894  -4.082  24.797  0.00  0.00    -0.228 NA
ATOM     16  C   UNL     1       7.649  -1.224  23.309  0.00  0.00    +0.122 C 
ATOM     17  C   UNL     1       7.719   0.023  24.224  0.00  0.00    +0.103 C 
ENDROOT
BRANCH  11  18
ATOM     18  C   UNL     1       4.658  -5.584  27.026  0.00  0.00    -0.012 A 
ATOM     19  C   UNL     1       4.154  -4.560  27.857  0.00  0.00    +0.009 A 
ATOM     20  C   UNL     1       4.530  -4.445  29.200  0.00  0.00    +0.004 A 
ATOM     21  C   UNL     1       5.405  -5.369  29.759  0.00  0.00    +0.045 A 
ATOM     22  C   UNL     1       5.910  -6.387  28.965  0.00  0.00    +0.117 A 
ATOM     23  C   UNL     1       5.565  -6.485  27.616  0.00  0.00    +0.054 A 
BRANCH  22  24
ATOM     24  O   UNL     1       6.751  -7.290  29.547  0.00  0.00    -0.507 OA
ATOM     25  H   UNL     1       7.663  -7.060  29.301  0.00  0.00    +0.292 HD
ENDBRANCH  22  24
ENDBRANCH  11  18
BRANCH  13  26
ATOM     26  C   UNL     1       1.675  -7.717  23.567  0.00  0.00    +0.418 C 
ATOM     27  F   UNL     1       0.459  -7.330  24.045  0.00  0.00    -0.166 F 
ATOM     28  F   UNL     1       1.898  -8.962  24.068  0.00  0.00    -0.166 F 
ATOM     29  F   UNL     1       1.512  -7.876  22.224  0.00  0.00    -0.166 F 
ENDBRANCH  13  26
TORSDOF 3
ENDMDL
MODEL 7
REMARK VINA RESULT:      -6.8      4.306      5.837
REMARK  Name = 
REMARK  4 active torsions:
REMARK  status: ('A' for Active; 'I' for Inactive)
REMARK    1  A    between atoms: C_1  and  N_2
REMARK    2  A    between atoms: C_11  and  C_22
REMARK    3  A    between atoms: C_13  and  C_18
REMARK    4  A    between atoms: C_24  and  O_25
REMARK                            x       y       z     vdW  Elec       q    Type
REMARK                         _______ _______ _______ _____ _____    ______ ____
ROOT
ATOM      1  C   UNL     1       1.492  -4.453  28.328  0.00  0.00    +0.105 C 
ATOM      2  N   UNL     1       1.578  -4.090  26.916  0.00  0.00    -0.302 NA
ATOM      3  C   UNL     1       2.858  -4.531  26.315  0.00  0.00    +0.103 C 
ATOM      4  C   UNL     1       4.113  -3.732  26.744  0.00  0.00    +0.122 C 
ATOM      5  N   UNL     1       3.886  -2.286  26.636  0.00  0.00    -0.312 N 
ATOM      6  C   UNL     1       4.807  -1.490  25.999  0.00  0.00    +0.140 A 
ATOM      7  C   UNL     1       4.942  -0.129  26.238  0.00  0.00    +0.155 A 
ATOM      8  N   UNL     1       5.821   0.677  25.596  0.00  0.00    -0.250 NA
ATOM      9  C   UNL     1       6.585   0.095  24.663  0.00  0.00    +0.090 A 
ATOM     10  C   UNL     1       6.489  -1.288  24.365  0.00  0.00    +0.099 A 
ATOM     11  C   UNL     1       7.307  -1.825  23.336  0.00  0.00    +0.010 A 
ATOM     12  C   UNL     1       8.194  -0.956  22.655  0.00  0.00    +0.023 A 
ATOM     13  C   UNL     1       8.310   0.396  22.984  0.00  0.00    +0.058 A 
ATOM     14  C   UNL     1       7.484   0.901  23.988  0.00  0.00    +0.042 A 
ATOM     15  N   UNL     1       5.614  -2.049  25.073  0.00  0.00    -0.228 NA
ATOM     16  C   UNL     1       2.634  -1.775  27.197  0.00  0.00    +0.122 C 
ATOM     17  C   UNL     1       1.436  -2.632  26.720  0.00  0.00    +0.103 C 
ENDROOT
BRANCH  11  18
ATOM     18  C   UNL     1       7.265  -3.268  22.942  0.00  0.00    -0.012 A 
ATOM     19  C   UNL     1       7.970  -4.247  23.676  0.00  0.00    +0.009 A 
ATOM     20  C   UNL     1       7.943  -5.600  23.320  0.00  0.00    +0.004 A 
ATOM     21  C   UNL     1       7.189  -6.017  22.230  0.00  0.00    +0.045 A 
ATOM     22  C   UNL     1       6.483  -5.076  21.497  0.00  0.00    +0.117 A 
ATOM     23  C   UNL     1       6.535  -3.721  21.827  0.00  0.00    +0.054 A 
BRANCH  22  24
ATOM     24  O   UNL     1       5.736  -5.520  20.444  0.00  0.00    -0.507 OA
ATOM     25  H   UNL     1       5.928  -4.956  19.676  0.00  0.00    +0.292 HD
ENDBRANCH  22  24
ENDBRANCH  11  18
BRANCH  13  26
ATOM     26  C   UNL     1       9.293   1.301  22.285  0.00  0.00    +0.418 C 
ATOM     27  F   UNL     1      10.152   0.611  21.485  0.00  0.00    -0.166 F 
ATOM     28  F   UNL     1      10.068   2.001  23.156  0.00  0.00    -0.166 F 
ATOM     29  F   UNL     1       8.700   2.227  21.481  0.00  0.00    -0.166 F 
ENDBRANCH  13  26
TORSDOF 3
ENDMDL
MODEL 8
REMARK VINA RESULT:      -6.6      4.477      6.515
REMARK  Name = 
REMARK  4 active torsions:
REMARK  status: ('A' for Active; 'I' for Inactive)
REMARK    1  A    between atoms: C_1  and  N_2
REMARK    2  A    between atoms: C_11  and  C_22
REMARK    3  A    between atoms: C_13  and  C_18
REMARK    4  A    between atoms: C_24  and  O_25
REMARK                            x       y       z     vdW  Elec       q    Type
REMARK                         _______ _______ _______ _____ _____    ______ ____
ROOT
ATOM      1  C   UNL     1       3.569   4.861  27.137  0.00  0.00    +0.105 C 
ATOM      2  N   UNL     1       4.885   4.366  27.534  0.00  0.00    -0.302 NA
ATOM      3  C   UNL     1       5.665   3.891  26.368  0.00  0.00    +0.103 C 
ATOM      4  C   UNL     1       5.193   2.557  25.741  0.00  0.00    +0.122 C 
ATOM      5  N   UNL     1       4.995   1.527  26.767  0.00  0.00    -0.312 N 
ATOM      6  C   UNL     1       5.537   0.276  26.600  0.00  0.00    +0.140 A 
ATOM      7  C   UNL     1       5.047  -0.863  27.225  0.00  0.00    +0.155 A 
ATOM      8  N   UNL     1       5.589  -2.099  27.099  0.00  0.00    -0.250 NA
ATOM      9  C   UNL     1       6.678  -2.190  26.326  0.00  0.00    +0.090 A 
ATOM     10  C   UNL     1       7.234  -1.064  25.668  0.00  0.00    +0.099 A 
ATOM     11  C   UNL     1       8.412  -1.234  24.895  0.00  0.00    +0.010 A 
ATOM     12  C   UNL     1       8.981  -2.528  24.805  0.00  0.00    +0.023 A 
ATOM     13  C   UNL     1       8.403  -3.639  25.424  0.00  0.00    +0.058 A 
ATOM     14  C   UNL     1       7.254  -3.441  26.189  0.00  0.00    +0.042 A 
ATOM     15  N   UNL     1       6.619   0.141  25.805  0.00  0.00    -0.228 NA
ATOM     16  C   UNL     1       4.243   1.924  27.958  0.00  0.00    +0.122 C 
ATOM     17  C   UNL     1       4.777   3.267  28.516  0.00  0.00    +0.103 C 
ENDROOT
BRANCH  11  18
ATOM     18  C   UNL     1       9.078  -0.102  24.177  0.00  0.00    -0.012 A 
ATOM     19  C   UNL     1      10.198   0.556  24.730  0.00  0.00    +0.009 A 
ATOM     20  C   UNL     1      10.831   1.618  24.072  0.00  0.00    +0.004 A 
ATOM     21  C   UNL     1      10.374   2.037  22.828  0.00  0.00    +0.045 A 
ATOM     22  C   UNL     1       9.279   1.402  22.263  0.00  0.00    +0.117 A 
ATOM     23  C   UNL     1       8.623   0.367  22.930  0.00  0.00    +0.054 A 
BRANCH  22  24
ATOM     24  O   UNL     1       8.866   1.823  21.032  0.00  0.00    -0.507 OA
ATOM     25  H   UNL     1       8.458   1.070  20.573  0.00  0.00    +0.292 HD
ENDBRANCH  22  24
ENDBRANCH  11  18
BRANCH  13  26
ATOM     26  C   UNL     1       8.989  -5.020  25.281  0.00  0.00    +0.418 C 
ATOM     27  F   UNL     1       8.723  -5.572  24.065  0.00  0.00    -0.166 F 
ATOM     28  F   UNL     1       8.502  -5.892  26.205  0.00  0.00    -0.166 F 
ATOM     29  F   UNL     1      10.344  -5.050  25.414  0.00  0.00    -0.166 F 
ENDBRANCH  13  26
TORSDOF 3
ENDMDL
MODEL 9
REMARK VINA RESULT:      -6.6      6.546      9.042
REMARK  Name = 
REMARK  4 active torsions:
REMARK  status: ('A' for Active; 'I' for Inactive)
REMARK    1  A    between atoms: C_1  and  N_2
REMARK    2  A    between atoms: C_11  and  C_22
REMARK    3  A    between atoms: C_13  and  C_18
REMARK    4  A    between atoms: C_24  and  O_25
REMARK                            x       y       z     vdW  Elec       q    Type
REMARK                         _______ _______ _______ _____ _____    ______ ____
ROOT
ATOM      1  C   UNL     1      10.193   2.090  22.246  0.00  0.00    +0.105 C 
ATOM      2  N   UNL     1      10.232   0.959  23.169  0.00  0.00    -0.302 NA
ATOM      3  C   UNL     1       9.490  -0.208  22.637  0.00  0.00    +0.103 C 
ATOM      4  C   UNL     1       7.948  -0.079  22.634  0.00  0.00    +0.122 C 
ATOM      5  N   UNL     1       7.450   0.384  23.935  0.00  0.00    -0.312 N 
ATOM      6  C   UNL     1       6.410  -0.272  24.547  0.00  0.00    +0.140 A 
ATOM      7  C   UNL     1       5.576   0.318  25.488  0.00  0.00    +0.155 A 
ATOM      8  N   UNL     1       4.568  -0.323  26.126  0.00  0.00    -0.250 NA
ATOM      9  C   UNL     1       4.401  -1.615  25.819  0.00  0.00    +0.090 A 
ATOM     10  C   UNL     1       5.224  -2.279  24.875  0.00  0.00    +0.099 A 
ATOM     11  C   UNL     1       5.009  -3.661  24.630  0.00  0.00    +0.010 A 
ATOM     12  C   UNL     1       3.971  -4.319  25.334  0.00  0.00    +0.023 A 
ATOM     13  C   UNL     1       3.139  -3.646  26.232  0.00  0.00    +0.058 A 
ATOM     14  C   UNL     1       3.382  -2.293  26.465  0.00  0.00    +0.042 A 
ATOM     15  N   UNL     1       6.193  -1.569  24.241  0.00  0.00    -0.228 NA
ATOM     16  C   UNL     1       8.141   1.527  24.533  0.00  0.00    +0.122 C 
ATOM     17  C   UNL     1       9.675   1.317  24.490  0.00  0.00    +0.103 C 
ENDROOT
BRANCH  11  18
ATOM     18  C   UNL     1       5.836  -4.448  23.662  0.00  0.00    -0.012 A 
ATOM     19  C   UNL     1       7.029  -5.082  24.068  0.00  0.00    +0.009 A 
ATOM     20  C   UNL     1       7.816  -5.820  23.176  0.00  0.00    +0.004 A 
ATOM     21  C   UNL     1       7.415  -5.965  21.853  0.00  0.00    +0.045 A 
ATOM     22  C   UNL     1       6.243  -5.357  21.431  0.00  0.00    +0.117 A 
ATOM     23  C   UNL     1       5.475  -4.591  22.309  0.00  0.00    +0.054 A 
BRANCH  22  24
ATOM     24  O   UNL     1       5.867  -5.534  20.131  0.00  0.00    -0.507 OA
ATOM     25  H   UNL     1       6.245  -4.811  19.603  0.00  0.00    +0.292 HD
ENDBRANCH  22  24
ENDBRANCH  11  18
BRANCH  13  26
ATOM     26  C   UNL     1       2.006  -4.345  26.940  0.00  0.00    +0.418 C 
ATOM     27  F   UNL     1       2.448  -5.196  27.907  0.00  0.00    -0.166 F 
ATOM     28  F   UNL     1       1.247  -5.094  26.096  0.00  0.00    -0.166 F 
ATOM     29  F   UNL     1       1.146  -3.491  27.561  0.00  0.00    -0.166 F 
ENDBRANCH  13  26
TORSDOF 3
ENDMDL
