MODEL 1
REMARK VINA RESULT:      -4.7      0.000      0.000
REMARK  Name = 
REMARK  2 active torsions:
REMARK  status: ('A' for Active; 'I' for Inactive)
REMARK    1  A    between atoms: O_1  and  C_2
REMARK    2  A    between atoms: C_2  and  CA_4
REMARK                            x       y       z     vdW  Elec       q    Type
REMARK                         _______ _______ _______ _____ _____    ______ ____
ROOT
ATOM      1  CA  UNL     1       8.754  -3.642  24.796  0.00  0.00    +0.192 C 
ATOM      2  N   UNL     1       9.878  -2.933  24.188  0.00  0.00    -0.285 N 
ATOM      3  H   UNL     1      10.558  -2.490  24.803  0.00  0.00    +0.151 HD
ATOM      4  C   UNL     1       9.671  -2.173  23.075  0.00  0.00    +0.307 C 
ATOM      5  O   UNL     1      10.444  -1.273  22.781  0.00  0.00    -0.252 OA
ATOM      6  N   UNL     1       8.561  -2.463  22.342  0.00  0.00    -0.240 N 
ATOM      7  H   UNL     1       8.368  -1.848  21.564  0.00  0.00    +0.159 HD
ATOM      8  C   UNL     1       7.610  -3.403  22.634  0.00  0.00    +0.223 C 
ATOM      9  O   UNL     1       6.571  -3.485  21.986  0.00  0.00    -0.275 OA
ATOM     10  C   UNL     1       7.950  -4.364  23.735  0.00  0.00    +0.130 C 
ENDROOT
BRANCH   1  11
ATOM     11  C   UNL     1       9.260  -4.669  25.802  0.00  0.00    +0.326 C 
ATOM     12  OXT UNL     1       8.829  -4.779  26.940  0.00  0.00    -0.249 OA
BRANCH  11  13
ATOM     13  O   UNL     1      10.168  -5.528  25.278  0.00  0.00    -0.479 OA
ATOM     14  H   UNL     1      10.524  -6.130  25.964  0.00  0.00    +0.295 HD
ENDBRANCH  11  13
ENDBRANCH   1  11
TORSDOF 2
ENDMDL
MODEL 2
REMARK VINA RESULT:      -4.7      3.338      5.576
REMARK  Name = 
REMARK  2 active torsions:
REMARK  status: ('A' for Active; 'I' for Inactive)
REMARK    1  A    between atoms: O_1  and  C_2
REMARK    2  A    between atoms: C_2  and  CA_4
REMARK                            x       y       z     vdW  Elec       q    Type
REMARK                         _______ _______ _______ _____ _____    ______ ____
ROOT
ATOM      1  CA  UNL     1      10.473   1.038  23.765  0.00  0.00    +0.192 C 
ATOM      2  N   UNL     1       9.564   0.914  24.902  0.00  0.00    -0.285 N 
ATOM      3  H   UNL     1       9.595   1.631  25.625  0.00  0.00    +0.151 HD
ATOM      4  C   UNL     1       9.336  -0.312  25.451  0.00  0.00    +0.307 C 
ATOM      5  O   UNL     1       8.935  -0.417  26.601  0.00  0.00    -0.252 OA
ATOM      6  N   UNL     1       9.602  -1.388  24.660  0.00  0.00    -0.240 N 
ATOM      7  H   UNL     1       9.509  -2.295  25.095  0.00  0.00    +0.159 HD
ATOM      8  C   UNL     1      10.117  -1.364  23.392  0.00  0.00    +0.223 C 
ATOM      9  O   UNL     1      10.456  -2.396  22.820  0.00  0.00    -0.275 OA
ATOM     10  C   UNL     1      10.167  -0.020  22.726  0.00  0.00    +0.130 C 
ENDROOT
BRANCH   1  11
ATOM     11  C   UNL     1      10.324   2.410  23.116  0.00  0.00    +0.326 C 
ATOM     12  OXT UNL     1      10.344   3.463  23.734  0.00  0.00    -0.249 OA
BRANCH  11  13
ATOM     13  O   UNL     1      10.273   2.357  21.763  0.00  0.00    -0.479 OA
ATOM     14  H   UNL     1      10.216   3.255  21.375  0.00  0.00    +0.295 HD
ENDBRANCH  11  13
ENDBRANCH   1  11
TORSDOF 2
ENDMDL
MODEL 3
REMARK VINA RESULT:      -4.5      2.639      4.767
REMARK  Name = 
REMARK  2 active torsions:
REMARK  status: ('A' for Active; 'I' for Inactive)
REMARK    1  A    between atoms: O_1  and  C_2
REMARK    2  A    between atoms: C_2  and  CA_4
REMARK                            x       y       z     vdW  Elec       q    Type
REMARK                         _______ _______ _______ _____ _____    ______ ____
ROOT
ATOM      1  CA  UNL     1       6.546  -4.896  24.434  0.00  0.00    +0.192 C 
ATOM      2  N   UNL     1       6.385  -5.625  25.690  0.00  0.00    -0.285 N 
ATOM      3  H   UNL     1       5.471  -5.619  26.138  0.00  0.00    +0.151 HD
ATOM      4  C   UNL     1       7.378  -5.583  26.624  0.00  0.00    +0.307 C 
ATOM      5  O   UNL     1       7.139  -5.816  27.800  0.00  0.00    -0.252 OA
ATOM      6  N   UNL     1       8.618  -5.250  26.173  0.00  0.00    -0.240 N 
ATOM      7  H   UNL     1       9.335  -5.142  26.878  0.00  0.00    +0.159 HD
ATOM      8  C   UNL     1       8.960  -4.907  24.892  0.00  0.00    +0.223 C 
ATOM      9  O   UNL     1      10.078  -4.481  24.620  0.00  0.00    -0.275 OA
ATOM     10  C   UNL     1       7.916  -5.156  23.844  0.00  0.00    +0.130 C 
ENDROOT
BRANCH   1  11
ATOM     11  C   UNL     1       5.492  -5.343  23.426  0.00  0.00    +0.326 C 
ATOM     12  OXT UNL     1       5.003  -4.610  22.580  0.00  0.00    -0.249 OA
BRANCH  11  13
ATOM     13  O   UNL     1       5.224  -6.670  23.487  0.00  0.00    -0.479 OA
ATOM     14  H   UNL     1       5.032  -6.951  24.406  0.00  0.00    +0.295 HD
ENDBRANCH  11  13
ENDBRANCH   1  11
TORSDOF 2
ENDMDL
MODEL 4
REMARK VINA RESULT:      -4.5      3.240      5.553
REMARK  Name = 
REMARK  2 active torsions:
REMARK  status: ('A' for Active; 'I' for Inactive)
REMARK    1  A    between atoms: O_1  and  C_2
REMARK    2  A    between atoms: C_2  and  CA_4
REMARK                            x       y       z     vdW  Elec       q    Type
REMARK                         _______ _______ _______ _____ _____    ______ ____
ROOT
ATOM      1  CA  UNL     1       9.580   0.946  23.377  0.00  0.00    +0.192 C 
ATOM      2  N   UNL     1      10.274  -0.195  22.785  0.00  0.00    -0.285 N 
ATOM      3  H   UNL     1      10.338  -0.247  21.770  0.00  0.00    +0.151 HD
ATOM      4  C   UNL     1      10.104  -1.437  23.319  0.00  0.00    +0.307 C 
ATOM      5  O   UNL     1      10.316  -2.439  22.652  0.00  0.00    -0.252 OA
ATOM      6  N   UNL     1       9.672  -1.486  24.609  0.00  0.00    -0.240 N 
ATOM      7  H   UNL     1       9.471  -2.406  24.978  0.00  0.00    +0.159 HD
ATOM      8  C   UNL     1       9.345  -0.421  25.405  0.00  0.00    +0.223 C 
ATOM      9  O   UNL     1       8.825  -0.579  26.505  0.00  0.00    -0.275 OA
ATOM     10  C   UNL     1       9.730   0.932  24.883  0.00  0.00    +0.130 C 
ENDROOT
BRANCH   1  11
ATOM     11  C   UNL     1      10.160   2.252  22.845  0.00  0.00    +0.326 C 
ATOM     12  OXT UNL     1      10.612   3.137  23.554  0.00  0.00    -0.249 OA
BRANCH  11  13
ATOM     13  O   UNL     1      10.226   2.294  21.491  0.00  0.00    -0.479 OA
ATOM     14  H   UNL     1       9.598   1.661  21.085  0.00  0.00    +0.295 HD
ENDBRANCH  11  13
ENDBRANCH   1  11
TORSDOF 2
ENDMDL
MODEL 5
REMARK VINA RESULT:      -4.5      2.023      4.062
REMARK  Name = 
REMARK  2 active torsions:
REMARK  status: ('A' for Active; 'I' for Inactive)
REMARK    1  A    between atoms: O_1  and  C_2
REMARK    2  A    between atoms: C_2  and  CA_4
REMARK                            x       y       z     vdW  Elec       q    Type
REMARK                         _______ _______ _______ _____ _____    ______ ____
ROOT
ATOM      1  CA  UNL     1       7.018  -5.211  23.180  0.00  0.00    +0.192 C 
ATOM      2  N   UNL     1       7.935  -4.073  23.144  0.00  0.00    -0.285 N 
ATOM      3  H   UNL     1       8.377  -3.837  22.258  0.00  0.00    +0.151 HD
ATOM      4  C   UNL     1       8.797  -3.871  24.180  0.00  0.00    +0.307 C 
ATOM      5  O   UNL     1       9.818  -3.216  24.025  0.00  0.00    -0.252 OA
ATOM      6  N   UNL     1       8.466  -4.453  25.366  0.00  0.00    -0.240 N 
ATOM      7  H   UNL     1       9.145  -4.369  26.109  0.00  0.00    +0.159 HD
ATOM      8  C   UNL     1       7.384  -5.257  25.609  0.00  0.00    +0.223 C 
ATOM      9  O   UNL     1       7.255  -5.851  26.675  0.00  0.00    -0.275 OA
ATOM     10  C   UNL     1       6.341  -5.301  24.531  0.00  0.00    +0.130 C 
ENDROOT
BRANCH   1  11
ATOM     11  C   UNL     1       5.944  -5.057  22.109  0.00  0.00    +0.326 C 
ATOM     12  OXT UNL     1       5.514  -3.981  21.723  0.00  0.00    -0.249 OA
BRANCH  11  13
ATOM     13  O   UNL     1       5.581  -6.234  21.544  0.00  0.00    -0.479 OA
ATOM     14  H   UNL     1       5.722  -6.221  20.575  0.00  0.00    +0.295 HD
ENDBRANCH  11  13
ENDBRANCH   1  11
TORSDOF 2
ENDMDL
MODEL 6
REMARK VINA RESULT:      -4.5      3.770      5.003
REMARK  Name = 
REMARK  2 active torsions:
REMARK  status: ('A' for Active; 'I' for Inactive)
REMARK    1  A    between atoms: O_1  and  C_2
REMARK    2  A    between atoms: C_2  and  CA_4
REMARK                            x       y       z     vdW  Elec       q    Type
REMARK                         _______ _______ _______ _____ _____    ______ ____
ROOT
ATOM      1  CA  UNL     1       9.483   0.164  22.973  0.00  0.00    +0.192 C 
ATOM      2  N   UNL     1      10.603   1.095  23.096  0.00  0.00    -0.285 N 
ATOM      3  H   UNL     1      11.337   0.880  23.768  0.00  0.00    +0.151 HD
ATOM      4  C   UNL     1      10.370   2.437  23.053  0.00  0.00    +0.307 C 
ATOM      5  O   UNL     1      11.166   3.226  23.541  0.00  0.00    -0.252 OA
ATOM      6  N   UNL     1       9.207   2.831  22.464  0.00  0.00    -0.240 N 
ATOM      7  H   UNL     1       8.999   3.819  22.504  0.00  0.00    +0.159 HD
ATOM      8  C   UNL     1       8.230   2.017  21.956  0.00  0.00    +0.223 C 
ATOM      9  O   UNL     1       7.153   2.469  21.579  0.00  0.00    -0.275 OA
ATOM     10  C   UNL     1       8.587   0.566  21.821  0.00  0.00    +0.130 C 
ENDROOT
BRANCH   1  11
ATOM     11  C   UNL     1       9.996  -1.249  22.717  0.00  0.00    +0.326 C 
ATOM     12  OXT UNL     1      10.132  -2.093  23.589  0.00  0.00    -0.249 OA
BRANCH  11  13
ATOM     13  O   UNL     1      10.189  -1.516  21.403  0.00  0.00    -0.479 OA
ATOM     14  H   UNL     1       9.645  -2.278  21.112  0.00  0.00    +0.295 HD
ENDBRANCH  11  13
ENDBRANCH   1  11
TORSDOF 2
ENDMDL
MODEL 7
REMARK VINA RESULT:      -4.5      3.001      3.651
REMARK  Name = 
REMARK  2 active torsions:
REMARK  status: ('A' for Active; 'I' for Inactive)
REMARK    1  A    between atoms: O_1  and  C_2
REMARK    2  A    between atoms: C_2  and  CA_4
REMARK                            x       y       z     vdW  Elec       q    Type
REMARK                         _______ _______ _______ _____ _____    ______ ____
ROOT
ATOM      1  CA  UNL     1       8.958  -0.631  25.184  0.00  0.00    +0.192 C 
ATOM      2  N   UNL     1       9.878   0.501  25.273  0.00  0.00    -0.285 N 
ATOM      3  H   UNL     1       9.628   1.279  25.882  0.00  0.00    +0.151 HD
ATOM      4  C   UNL     1      10.499   0.953  24.148  0.00  0.00    +0.307 C 
ATOM      5  O   UNL     1      10.933   2.095  24.089  0.00  0.00    -0.252 OA
ATOM      6  N   UNL     1      10.583   0.077  23.109  0.00  0.00    -0.240 N 
ATOM      7  H   UNL     1      10.973   0.439  22.250  0.00  0.00    +0.159 HD
ATOM      8  C   UNL     1      10.066  -1.190  23.064  0.00  0.00    +0.223 C 
ATOM      9  O   UNL     1      10.069  -1.846  22.026  0.00  0.00    -0.275 OA
ATOM     10  C   UNL     1       9.573  -1.747  24.367  0.00  0.00    +0.130 C 
ENDROOT
BRANCH   1  11
ATOM     11  C   UNL     1       8.644  -1.167  26.576  0.00  0.00    +0.326 C 
ATOM     12  OXT UNL     1       8.005  -2.187  26.786  0.00  0.00    -0.249 OA
BRANCH  11  13
ATOM     13  O   UNL     1       9.236  -0.458  27.568  0.00  0.00    -0.479 OA
ATOM     14  H   UNL     1       8.905  -0.733  28.448  0.00  0.00    +0.295 HD
ENDBRANCH  11  13
ENDBRANCH   1  11
TORSDOF 2
ENDMDL
MODEL 8
REMARK VINA RESULT:      -4.5      1.750      2.878
REMARK  Name = 
REMARK  2 active torsions:
REMARK  status: ('A' for Active; 'I' for Inactive)
REMARK    1  A    between atoms: O_1  and  C_2
REMARK    2  A    between atoms: C_2  and  CA_4
REMARK                            x       y       z     vdW  Elec       q    Type
REMARK                         _______ _______ _______ _____ _____    ______ ____
ROOT
ATOM      1  CA  UNL     1       8.225  -4.933  24.040  0.00  0.00    +0.192 C 
ATOM      2  N   UNL     1       6.790  -5.090  23.813  0.00  0.00    -0.285 N 
ATOM      3  H   UNL     1       6.377  -6.010  23.951  0.00  0.00    +0.151 HD
ATOM      4  C   UNL     1       6.202  -4.453  22.761  0.00  0.00    +0.307 C 
ATOM      5  O   UNL     1       5.144  -4.856  22.299  0.00  0.00    -0.252 OA
ATOM      6  N   UNL     1       6.867  -3.378  22.256  0.00  0.00    -0.240 N 
ATOM      7  H   UNL     1       6.470  -2.957  21.428  0.00  0.00    +0.159 HD
ATOM      8  C   UNL     1       8.084  -2.902  22.664  0.00  0.00    +0.223 C 
ATOM      9  O   UNL     1       8.664  -2.015  22.046  0.00  0.00    -0.275 OA
ATOM     10  C   UNL     1       8.619  -3.474  23.944  0.00  0.00    +0.130 C 
ENDROOT
BRANCH   1  11
ATOM     11  C   UNL     1       8.600  -5.446  25.426  0.00  0.00    +0.326 C 
ATOM     12  OXT UNL     1       7.786  -5.721  26.294  0.00  0.00    -0.249 OA
BRANCH  11  13
ATOM     13  O   UNL     1       9.928  -5.672  25.570  0.00  0.00    -0.479 OA
ATOM     14  H   UNL     1      10.366  -4.928  26.034  0.00  0.00    +0.295 HD
ENDBRANCH  11  13
ENDBRANCH   1  11
TORSDOF 2
ENDMDL
MODEL 9
REMARK VINA RESULT:      -4.4      2.804      4.522
REMARK  Name = 
REMARK  2 active torsions:
REMARK  status: ('A' for Active; 'I' for Inactive)
REMARK    1  A    between atoms: O_1  and  C_2
REMARK    2  A    between atoms: C_2  and  CA_4
REMARK                            x       y       z     vdW  Elec       q    Type
REMARK                         _______ _______ _______ _____ _____    ______ ____
ROOT
ATOM      1  CA  UNL     1       8.149  -4.426  25.419  0.00  0.00    +0.192 C 
ATOM      2  N   UNL     1       7.262  -5.190  24.544  0.00  0.00    -0.285 N 
ATOM      3  H   UNL     1       7.134  -4.867  23.587  0.00  0.00    +0.151 HD
ATOM      4  C   UNL     1       6.097  -5.693  25.041  0.00  0.00    +0.307 C 
ATOM      5  O   UNL     1       5.167  -5.968  24.297  0.00  0.00    -0.252 OA
ATOM      6  N   UNL     1       6.031  -5.845  26.392  0.00  0.00    -0.240 N 
ATOM      7  H   UNL     1       5.140  -6.143  26.765  0.00  0.00    +0.159 HD
ATOM      8  C   UNL     1       6.993  -5.500  27.303  0.00  0.00    +0.223 C 
ATOM      9  O   UNL     1       6.777  -5.543  28.510  0.00  0.00    -0.275 OA
ATOM     10  C   UNL     1       8.337  -5.146  26.738  0.00  0.00    +0.130 C 
ENDROOT
BRANCH   1  11
ATOM     11  C   UNL     1       9.514  -4.250  24.764  0.00  0.00    +0.326 C 
ATOM     12  OXT UNL     1       9.834  -3.272  24.106  0.00  0.00    -0.249 OA
BRANCH  11  13
ATOM     13  O   UNL     1      10.385  -5.242  25.072  0.00  0.00    -0.479 OA
ATOM     14  H   UNL     1       9.946  -5.954  25.582  0.00  0.00    +0.295 HD
ENDBRANCH  11  13
ENDBRANCH   1  11
TORSDOF 2
ENDMDL
