MODEL 1
REMARK VINA RESULT:      -6.7      0.000      0.000
REMARK  Name = 
REMARK  11 active torsions:
REMARK  status: ('A' for Active; 'I' for Inactive)
REMARK    1  A    between atoms: C_1  and  C_2
REMARK    2  A    between atoms: C_2  and  C_4
REMARK    3  A    between atoms: C_2  and  C_13
REMARK    4  A    between atoms: C_4  and  C_5
REMARK    5  A    between atoms: C_7  and  O_8
REMARK    6  A    between atoms: C_9  and  O_10
REMARK    7  A    between atoms: C_13  and  C_15
REMARK    8  A    between atoms: C_13  and  C_16
REMARK    9  A    between atoms: C_16  and  C_17
REMARK   10  A    between atoms: C_19  and  O_20
REMARK   11  A    between atoms: C_21  and  O_22
REMARK                            x       y       z     vdW  Elec       q    Type
REMARK                         _______ _______ _______ _____ _____    ______ ____
ROOT
ATOM      1  C   UNL     1       8.776  -3.990  26.401  0.00  0.00    +0.008 C 
ATOM      2  C   UNL     1       8.777  -2.649  25.644  0.00  0.00    -0.007 C 
ENDROOT
BRANCH   2   3
ATOM      3  C   UNL     1       7.334  -2.072  25.446  0.00  0.00    -0.007 C 
ATOM      4  C   UNL     1       6.947  -1.143  26.614  0.00  0.00    +0.008 C 
BRANCH   3   5
ATOM      5  C   UNL     1       6.252  -3.176  25.288  0.00  0.00    +0.038 C 
BRANCH   5   6
ATOM      6  C   UNL     1       6.212  -3.785  23.901  0.00  0.00    -0.043 A 
ATOM      7  C   UNL     1       6.036  -2.960  22.773  0.00  0.00    +0.007 A 
ATOM      8  C   UNL     1       5.942  -3.510  21.495  0.00  0.00    +0.049 A 
ATOM      9  C   UNL     1       6.045  -4.881  21.342  0.00  0.00    +0.158 A 
ATOM     10  C   UNL     1       6.239  -5.710  22.445  0.00  0.00    +0.158 A 
ATOM     11  C   UNL     1       6.329  -5.173  23.724  0.00  0.00    +0.052 A 
BRANCH   9  12
ATOM     12  O   UNL     1       5.947  -5.421  20.091  0.00  0.00    -0.503 OA
ATOM     13  H   UNL     1       5.085  -5.883  20.093  0.00  0.00    +0.292 HD
ENDBRANCH   9  12
BRANCH  10  14
ATOM     14  O   UNL     1       6.325  -7.057  22.219  0.00  0.00    -0.503 OA
ATOM     15  H   UNL     1       6.118  -7.515  23.052  0.00  0.00    +0.292 HD
ENDBRANCH  10  14
ENDBRANCH   5   6
ENDBRANCH   3   5
ENDBRANCH   2   3
BRANCH   2  16
ATOM     16  C   UNL     1       9.485  -2.822  24.271  0.00  0.00    +0.038 C 
BRANCH  16  17
ATOM     17  C   UNL     1       9.691  -1.532  23.516  0.00  0.00    -0.043 A 
ATOM     18  C   UNL     1       9.310  -1.439  22.166  0.00  0.00    +0.007 A 
ATOM     19  C   UNL     1       9.432  -0.234  21.477  0.00  0.00    +0.049 A 
ATOM     20  C   UNL     1       9.927   0.877  22.143  0.00  0.00    +0.158 A 
ATOM     21  C   UNL     1      10.329   0.794  23.471  0.00  0.00    +0.158 A 
ATOM     22  C   UNL     1      10.228  -0.407  24.162  0.00  0.00    +0.052 A 
BRANCH  20  23
ATOM     23  O   UNL     1      10.001   2.070  21.483  0.00  0.00    -0.503 OA
ATOM     24  H   UNL     1      10.453   1.853  20.644  0.00  0.00    +0.292 HD
ENDBRANCH  20  23
BRANCH  21  25
ATOM     25  O   UNL     1      10.807   1.929  24.067  0.00  0.00    -0.503 OA
ATOM     26  H   UNL     1      10.861   2.624  23.388  0.00  0.00    +0.292 HD
ENDBRANCH  21  25
ENDBRANCH  16  17
ENDBRANCH   2  16
TORSDOF 9
ENDMDL
MODEL 2
REMARK VINA RESULT:      -6.4      2.883      5.880
REMARK  Name = 
REMARK  11 active torsions:
REMARK  status: ('A' for Active; 'I' for Inactive)
REMARK    1  A    between atoms: C_1  and  C_2
REMARK    2  A    between atoms: C_2  and  C_4
REMARK    3  A    between atoms: C_2  and  C_13
REMARK    4  A    between atoms: C_4  and  C_5
REMARK    5  A    between atoms: C_7  and  O_8
REMARK    6  A    between atoms: C_9  and  O_10
REMARK    7  A    between atoms: C_13  and  C_15
REMARK    8  A    between atoms: C_13  and  C_16
REMARK    9  A    between atoms: C_16  and  C_17
REMARK   10  A    between atoms: C_19  and  O_20
REMARK   11  A    between atoms: C_21  and  O_22
REMARK                            x       y       z     vdW  Elec       q    Type
REMARK                         _______ _______ _______ _____ _____    ______ ____
ROOT
ATOM      1  C   UNL     1       6.249   0.209  23.739  0.00  0.00    +0.008 C 
ATOM      2  C   UNL     1       7.107  -1.060  23.586  0.00  0.00    -0.007 C 
ENDROOT
BRANCH   2   3
ATOM      3  C   UNL     1       8.614  -0.735  23.313  0.00  0.00    -0.007 C 
ATOM      4  C   UNL     1       9.068  -1.316  21.959  0.00  0.00    +0.008 C 
BRANCH   3   5
ATOM      5  C   UNL     1       9.561  -1.245  24.434  0.00  0.00    +0.038 C 
BRANCH   5   6
ATOM      6  C   UNL     1       9.110  -2.552  25.055  0.00  0.00    -0.043 A 
ATOM      7  C   UNL     1       8.260  -2.543  26.178  0.00  0.00    +0.007 A 
ATOM      8  C   UNL     1       7.880  -3.735  26.794  0.00  0.00    +0.049 A 
ATOM      9  C   UNL     1       8.332  -4.935  26.276  0.00  0.00    +0.158 A 
ATOM     10  C   UNL     1       9.157  -4.963  25.154  0.00  0.00    +0.158 A 
ATOM     11  C   UNL     1       9.546  -3.781  24.534  0.00  0.00    +0.052 A 
BRANCH   9  12
ATOM     12  O   UNL     1       7.965  -6.103  26.883  0.00  0.00    -0.503 OA
ATOM     13  H   UNL     1       7.407  -6.556  26.219  0.00  0.00    +0.292 HD
ENDBRANCH   9  12
BRANCH  10  14
ATOM     14  O   UNL     1       9.571  -6.186  24.701  0.00  0.00    -0.503 OA
ATOM     15  H   UNL     1      10.465  -6.084  24.333  0.00  0.00    +0.292 HD
ENDBRANCH  10  14
ENDBRANCH   5   6
ENDBRANCH   3   5
ENDBRANCH   2   3
BRANCH   2  16
ATOM     16  C   UNL     1       6.529  -1.951  22.450  0.00  0.00    +0.038 C 
BRANCH  16  17
ATOM     17  C   UNL     1       6.151  -3.344  22.891  0.00  0.00    -0.043 A 
ATOM     18  C   UNL     1       5.317  -3.526  24.007  0.00  0.00    +0.007 A 
ATOM     19  C   UNL     1       4.906  -4.803  24.383  0.00  0.00    +0.049 A 
ATOM     20  C   UNL     1       5.323  -5.894  23.636  0.00  0.00    +0.158 A 
ATOM     21  C   UNL     1       6.167  -5.731  22.543  0.00  0.00    +0.158 A 
ATOM     22  C   UNL     1       6.597  -4.463  22.170  0.00  0.00    +0.052 A 
BRANCH  20  23
ATOM     23  O   UNL     1       4.881  -7.141  23.975  0.00  0.00    -0.503 OA
ATOM     24  H   UNL     1       5.369  -7.740  23.376  0.00  0.00    +0.292 HD
ENDBRANCH  20  23
BRANCH  21  25
ATOM     25  O   UNL     1       6.538  -6.850  21.850  0.00  0.00    -0.503 OA
ATOM     26  H   UNL     1       5.859  -7.532  21.993  0.00  0.00    +0.292 HD
ENDBRANCH  21  25
ENDBRANCH  16  17
ENDBRANCH   2  16
TORSDOF 9
ENDMDL
MODEL 3
REMARK VINA RESULT:      -6.3      3.092      4.853
REMARK  Name = 
REMARK  11 active torsions:
REMARK  status: ('A' for Active; 'I' for Inactive)
REMARK    1  A    between atoms: C_1  and  C_2
REMARK    2  A    between atoms: C_2  and  C_4
REMARK    3  A    between atoms: C_2  and  C_13
REMARK    4  A    between atoms: C_4  and  C_5
REMARK    5  A    between atoms: C_7  and  O_8
REMARK    6  A    between atoms: C_9  and  O_10
REMARK    7  A    between atoms: C_13  and  C_15
REMARK    8  A    between atoms: C_13  and  C_16
REMARK    9  A    between atoms: C_16  and  C_17
REMARK   10  A    between atoms: C_19  and  O_20
REMARK   11  A    between atoms: C_21  and  O_22
REMARK                            x       y       z     vdW  Elec       q    Type
REMARK                         _______ _______ _______ _____ _____    ______ ____
ROOT
ATOM      1  C   UNL     1       7.234   0.195  24.523  0.00  0.00    +0.008 C 
ATOM      2  C   UNL     1       8.591  -0.516  24.678  0.00  0.00    -0.007 C 
ENDROOT
BRANCH   2   3
ATOM      3  C   UNL     1       8.809  -1.629  23.598  0.00  0.00    -0.007 C 
ATOM      4  C   UNL     1      10.084  -1.356  22.774  0.00  0.00    +0.008 C 
BRANCH   3   5
ATOM      5  C   UNL     1       7.600  -1.791  22.636  0.00  0.00    +0.038 C 
BRANCH   5   6
ATOM      6  C   UNL     1       6.906  -3.133  22.761  0.00  0.00    -0.043 A 
ATOM      7  C   UNL     1       7.658  -4.323  22.725  0.00  0.00    +0.007 A 
ATOM      8  C   UNL     1       7.029  -5.566  22.786  0.00  0.00    +0.049 A 
ATOM      9  C   UNL     1       5.652  -5.619  22.902  0.00  0.00    +0.158 A 
ATOM     10  C   UNL     1       4.894  -4.451  22.960  0.00  0.00    +0.158 A 
ATOM     11  C   UNL     1       5.510  -3.206  22.896  0.00  0.00    +0.052 A 
BRANCH   9  12
ATOM     12  O   UNL     1       5.034  -6.837  22.954  0.00  0.00    -0.503 OA
ATOM     13  H   UNL     1       4.863  -7.062  22.019  0.00  0.00    +0.292 HD
ENDBRANCH   9  12
BRANCH  10  14
ATOM     14  O   UNL     1       3.536  -4.581  23.069  0.00  0.00    -0.503 OA
ATOM     15  H   UNL     1       3.288  -4.378  23.987  0.00  0.00    +0.292 HD
ENDBRANCH  10  14
ENDBRANCH   5   6
ENDBRANCH   3   5
ENDBRANCH   2   3
BRANCH   2  16
ATOM     16  C   UNL     1       8.710  -1.115  26.108  0.00  0.00    +0.038 C 
BRANCH  16  17
ATOM     17  C   UNL     1       8.049  -2.461  26.270  0.00  0.00    -0.043 A 
ATOM     18  C   UNL     1       6.660  -2.543  26.462  0.00  0.00    +0.007 A 
ATOM     19  C   UNL     1       6.028  -3.783  26.546  0.00  0.00    +0.049 A 
ATOM     20  C   UNL     1       6.787  -4.937  26.429  0.00  0.00    +0.158 A 
ATOM     21  C   UNL     1       8.166  -4.871  26.262  0.00  0.00    +0.158 A 
ATOM     22  C   UNL     1       8.808  -3.640  26.194  0.00  0.00    +0.052 A 
BRANCH  20  23
ATOM     23  O   UNL     1       6.164  -6.150  26.461  0.00  0.00    -0.503 OA
ATOM     24  H   UNL     1       6.843  -6.761  26.808  0.00  0.00    +0.292 HD
ENDBRANCH  20  23
BRANCH  21  25
ATOM     25  O   UNL     1       8.854  -6.048  26.152  0.00  0.00    -0.503 OA
ATOM     26  H   UNL     1       8.591  -6.620  26.893  0.00  0.00    +0.292 HD
ENDBRANCH  21  25
ENDBRANCH  16  17
ENDBRANCH   2  16
TORSDOF 9
ENDMDL
MODEL 4
REMARK VINA RESULT:      -6.3      2.607      3.966
REMARK  Name = 
REMARK  11 active torsions:
REMARK  status: ('A' for Active; 'I' for Inactive)
REMARK    1  A    between atoms: C_1  and  C_2
REMARK    2  A    between atoms: C_2  and  C_4
REMARK    3  A    between atoms: C_2  and  C_13
REMARK    4  A    between atoms: C_4  and  C_5
REMARK    5  A    between atoms: C_7  and  O_8
REMARK    6  A    between atoms: C_9  and  O_10
REMARK    7  A    between atoms: C_13  and  C_15
REMARK    8  A    between atoms: C_13  and  C_16
REMARK    9  A    between atoms: C_16  and  C_17
REMARK   10  A    between atoms: C_19  and  O_20
REMARK   11  A    between atoms: C_21  and  O_22
REMARK                            x       y       z     vdW  Elec       q    Type
REMARK                         _______ _______ _______ _____ _____    ______ ____
ROOT
ATOM      1  C   UNL     1       6.071  -2.388  23.371  0.00  0.00    +0.008 C 
ATOM      2  C   UNL     1       7.192  -3.265  22.784  0.00  0.00    -0.007 C 
ENDROOT
BRANCH   2   3
ATOM      3  C   UNL     1       6.912  -4.795  22.963  0.00  0.00    -0.007 C 
ATOM      4  C   UNL     1       7.160  -5.559  21.647  0.00  0.00    +0.008 C 
BRANCH   3   5
ATOM      5  C   UNL     1       5.474  -5.097  23.470  0.00  0.00    +0.038 C 
BRANCH   5   6
ATOM      6  C   UNL     1       5.441  -5.743  24.840  0.00  0.00    -0.043 A 
ATOM      7  C   UNL     1       4.329  -6.516  25.228  0.00  0.00    +0.007 A 
ATOM      8  C   UNL     1       4.260  -7.073  26.505  0.00  0.00    +0.049 A 
ATOM      9  C   UNL     1       5.309  -6.875  27.385  0.00  0.00    +0.158 A 
ATOM     10  C   UNL     1       6.425  -6.131  27.010  0.00  0.00    +0.158 A 
ATOM     11  C   UNL     1       6.503  -5.566  25.741  0.00  0.00    +0.052 A 
BRANCH   9  12
ATOM     12  O   UNL     1       5.238  -7.415  28.638  0.00  0.00    -0.503 OA
ATOM     13  H   UNL     1       6.115  -7.235  29.029  0.00  0.00    +0.292 HD
ENDBRANCH   9  12
BRANCH  10  14
ATOM     14  O   UNL     1       7.421  -5.971  27.934  0.00  0.00    -0.503 OA
ATOM     15  H   UNL     1       7.064  -5.449  28.674  0.00  0.00    +0.292 HD
ENDBRANCH  10  14
ENDBRANCH   5   6
ENDBRANCH   3   5
ENDBRANCH   2   3
BRANCH   2  16
ATOM     16  C   UNL     1       8.553  -2.882  23.433  0.00  0.00    +0.038 C 
BRANCH  16  17
ATOM     17  C   UNL     1       9.091  -1.542  22.994  0.00  0.00    -0.043 A 
ATOM     18  C   UNL     1       9.009  -1.161  21.644  0.00  0.00    +0.007 A 
ATOM     19  C   UNL     1       9.441   0.100  21.238  0.00  0.00    +0.049 A 
ATOM     20  C   UNL     1       9.945   0.979  22.184  0.00  0.00    +0.158 A 
ATOM     21  C   UNL     1      10.053   0.606  23.519  0.00  0.00    +0.158 A 
ATOM     22  C   UNL     1       9.641  -0.656  23.933  0.00  0.00    +0.052 A 
BRANCH  20  23
ATOM     23  O   UNL     1      10.322   2.232  21.795  0.00  0.00    -0.503 OA
ATOM     24  H   UNL     1      11.001   2.077  21.109  0.00  0.00    +0.292 HD
ENDBRANCH  20  23
BRANCH  21  25
ATOM     25  O   UNL     1      10.558   1.523  24.400  0.00  0.00    -0.503 OA
ATOM     26  H   UNL     1       9.904   2.237  24.499  0.00  0.00    +0.292 HD
ENDBRANCH  21  25
ENDBRANCH  16  17
ENDBRANCH   2  16
TORSDOF 9
ENDMDL
MODEL 5
REMARK VINA RESULT:      -6.2      2.993      4.570
REMARK  Name = 
REMARK  11 active torsions:
REMARK  status: ('A' for Active; 'I' for Inactive)
REMARK    1  A    between atoms: C_1  and  C_2
REMARK    2  A    between atoms: C_2  and  C_4
REMARK    3  A    between atoms: C_2  and  C_13
REMARK    4  A    between atoms: C_4  and  C_5
REMARK    5  A    between atoms: C_7  and  O_8
REMARK    6  A    between atoms: C_9  and  O_10
REMARK    7  A    between atoms: C_13  and  C_15
REMARK    8  A    between atoms: C_13  and  C_16
REMARK    9  A    between atoms: C_16  and  C_17
REMARK   10  A    between atoms: C_19  and  O_20
REMARK   11  A    between atoms: C_21  and  O_22
REMARK                            x       y       z     vdW  Elec       q    Type
REMARK                         _______ _______ _______ _____ _____    ______ ____
ROOT
ATOM      1  C   UNL     1       9.440  -4.229  24.862  0.00  0.00    +0.008 C 
ATOM      2  C   UNL     1       8.671  -3.037  24.265  0.00  0.00    -0.007 C 
ENDROOT
BRANCH   2   3
ATOM      3  C   UNL     1       7.235  -3.432  23.781  0.00  0.00    -0.007 C 
ATOM      4  C   UNL     1       7.078  -3.192  22.266  0.00  0.00    +0.008 C 
BRANCH   3   5
ATOM      5  C   UNL     1       6.107  -2.680  24.540  0.00  0.00    +0.038 C 
BRANCH   5   6
ATOM      6  C   UNL     1       6.528  -1.316  25.049  0.00  0.00    -0.043 A 
ATOM      7  C   UNL     1       6.370  -0.179  24.232  0.00  0.00    +0.007 A 
ATOM      8  C   UNL     1       6.801   1.074  24.665  0.00  0.00    +0.049 A 
ATOM      9  C   UNL     1       7.372   1.195  25.919  0.00  0.00    +0.158 A 
ATOM     10  C   UNL     1       7.517   0.084  26.747  0.00  0.00    +0.158 A 
ATOM     11  C   UNL     1       7.095  -1.172  26.325  0.00  0.00    +0.052 A 
BRANCH   9  12
ATOM     12  O   UNL     1       7.801   2.422  26.340  0.00  0.00    -0.503 OA
ATOM     13  H   UNL     1       7.014   2.823  26.759  0.00  0.00    +0.292 HD
ENDBRANCH   9  12
BRANCH  10  14
ATOM     14  O   UNL     1       8.096   0.277  27.972  0.00  0.00    -0.503 OA
ATOM     15  H   UNL     1       7.667  -0.324  28.605  0.00  0.00    +0.292 HD
ENDBRANCH  10  14
ENDBRANCH   5   6
ENDBRANCH   3   5
ENDBRANCH   2   3
BRANCH   2  16
ATOM     16  C   UNL     1       9.487  -2.417  23.096  0.00  0.00    +0.038 C 
BRANCH  16  17
ATOM     17  C   UNL     1       9.778  -0.945  23.258  0.00  0.00    -0.043 A 
ATOM     18  C   UNL     1      10.360  -0.471  24.445  0.00  0.00    +0.007 A 
ATOM     19  C   UNL     1      10.695   0.875  24.581  0.00  0.00    +0.049 A 
ATOM     20  C   UNL     1      10.454   1.741  23.525  0.00  0.00    +0.158 A 
ATOM     21  C   UNL     1       9.857   1.289  22.353  0.00  0.00    +0.158 A 
ATOM     22  C   UNL     1       9.503  -0.047  22.214  0.00  0.00    +0.052 A 
BRANCH  20  23
ATOM     23  O   UNL     1      10.826   3.049  23.638  0.00  0.00    -0.503 OA
ATOM     24  H   UNL     1      10.570   3.295  24.548  0.00  0.00    +0.292 HD
ENDBRANCH  20  23
BRANCH  21  25
ATOM     25  O   UNL     1       9.649   2.197  21.350  0.00  0.00    -0.503 OA
ATOM     26  H   UNL     1       8.885   1.898  20.827  0.00  0.00    +0.292 HD
ENDBRANCH  21  25
ENDBRANCH  16  17
ENDBRANCH   2  16
TORSDOF 9
ENDMDL
MODEL 6
REMARK VINA RESULT:      -6.2      3.115      5.380
REMARK  Name = 
REMARK  11 active torsions:
REMARK  status: ('A' for Active; 'I' for Inactive)
REMARK    1  A    between atoms: C_1  and  C_2
REMARK    2  A    between atoms: C_2  and  C_4
REMARK    3  A    between atoms: C_2  and  C_13
REMARK    4  A    between atoms: C_4  and  C_5
REMARK    5  A    between atoms: C_7  and  O_8
REMARK    6  A    between atoms: C_9  and  O_10
REMARK    7  A    between atoms: C_13  and  C_15
REMARK    8  A    between atoms: C_13  and  C_16
REMARK    9  A    between atoms: C_16  and  C_17
REMARK   10  A    between atoms: C_19  and  O_20
REMARK   11  A    between atoms: C_21  and  O_22
REMARK                            x       y       z     vdW  Elec       q    Type
REMARK                         _______ _______ _______ _____ _____    ______ ____
ROOT
ATOM      1  C   UNL     1       6.449   0.625  23.841  0.00  0.00    +0.008 C 
ATOM      2  C   UNL     1       7.166  -0.684  24.220  0.00  0.00    -0.007 C 
ENDROOT
BRANCH   2   3
ATOM      3  C   UNL     1       8.430  -0.438  25.111  0.00  0.00    -0.007 C 
ATOM      4  C   UNL     1       9.709  -0.926  24.402  0.00  0.00    +0.008 C 
BRANCH   3   5
ATOM      5  C   UNL     1       8.330  -1.110  26.509  0.00  0.00    +0.038 C 
BRANCH   5   6
ATOM      6  C   UNL     1       7.734  -2.503  26.467  0.00  0.00    -0.043 A 
ATOM      7  C   UNL     1       6.341  -2.677  26.577  0.00  0.00    +0.007 A 
ATOM      8  C   UNL     1       5.782  -3.955  26.595  0.00  0.00    +0.049 A 
ATOM      9  C   UNL     1       6.612  -5.055  26.482  0.00  0.00    +0.158 A 
ATOM     10  C   UNL     1       7.990  -4.900  26.352  0.00  0.00    +0.158 A 
ATOM     11  C   UNL     1       8.560  -3.631  26.338  0.00  0.00    +0.052 A 
BRANCH   9  12
ATOM     12  O   UNL     1       6.066  -6.307  26.505  0.00  0.00    -0.503 OA
ATOM     13  H   UNL     1       6.825  -6.900  26.673  0.00  0.00    +0.292 HD
ENDBRANCH   9  12
BRANCH  10  14
ATOM     14  O   UNL     1       8.750  -6.033  26.251  0.00  0.00    -0.503 OA
ATOM     15  H   UNL     1       9.645  -5.772  25.972  0.00  0.00    +0.292 HD
ENDBRANCH  10  14
ENDBRANCH   5   6
ENDBRANCH   3   5
ENDBRANCH   2   3
BRANCH   2  16
ATOM     16  C   UNL     1       7.553  -1.462  22.931  0.00  0.00    +0.038 C 
BRANCH  16  17
ATOM     17  C   UNL     1       6.964  -2.849  22.847  0.00  0.00    -0.043 A 
ATOM     18  C   UNL     1       7.809  -3.968  22.764  0.00  0.00    +0.007 A 
ATOM     19  C   UNL     1       7.279  -5.257  22.754  0.00  0.00    +0.049 A 
ATOM     20  C   UNL     1       5.905  -5.422  22.836  0.00  0.00    +0.158 A 
ATOM     21  C   UNL     1       5.055  -4.323  22.895  0.00  0.00    +0.158 A 
ATOM     22  C   UNL     1       5.572  -3.033  22.888  0.00  0.00    +0.052 A 
BRANCH  20  23
ATOM     23  O   UNL     1       5.388  -6.685  22.875  0.00  0.00    -0.503 OA
ATOM     24  H   UNL     1       4.647  -6.662  22.239  0.00  0.00    +0.292 HD
ENDBRANCH  20  23
BRANCH  21  25
ATOM     25  O   UNL     1       3.710  -4.559  22.976  0.00  0.00    -0.503 OA
ATOM     26  H   UNL     1       3.576  -5.353  23.523  0.00  0.00    +0.292 HD
ENDBRANCH  21  25
ENDBRANCH  16  17
ENDBRANCH   2  16
TORSDOF 9
ENDMDL
MODEL 7
REMARK VINA RESULT:      -6.2      2.588      5.163
REMARK  Name = 
REMARK  11 active torsions:
REMARK  status: ('A' for Active; 'I' for Inactive)
REMARK    1  A    between atoms: C_1  and  C_2
REMARK    2  A    between atoms: C_2  and  C_4
REMARK    3  A    between atoms: C_2  and  C_13
REMARK    4  A    between atoms: C_4  and  C_5
REMARK    5  A    between atoms: C_7  and  O_8
REMARK    6  A    between atoms: C_9  and  O_10
REMARK    7  A    between atoms: C_13  and  C_15
REMARK    8  A    between atoms: C_13  and  C_16
REMARK    9  A    between atoms: C_16  and  C_17
REMARK   10  A    between atoms: C_19  and  O_20
REMARK   11  A    between atoms: C_21  and  O_22
REMARK                            x       y       z     vdW  Elec       q    Type
REMARK                         _______ _______ _______ _____ _____    ______ ____
ROOT
ATOM      1  C   UNL     1       8.618  -3.489  26.437  0.00  0.00    +0.008 C 
ATOM      2  C   UNL     1       7.461  -3.649  25.435  0.00  0.00    -0.007 C 
ENDROOT
BRANCH   2   3
ATOM      3  C   UNL     1       7.909  -3.395  23.956  0.00  0.00    -0.007 C 
ATOM      4  C   UNL     1       7.669  -4.644  23.085  0.00  0.00    +0.008 C 
BRANCH   3   5
ATOM      5  C   UNL     1       9.397  -2.964  23.836  0.00  0.00    +0.038 C 
BRANCH   5   6
ATOM      6  C   UNL     1       9.577  -1.573  23.261  0.00  0.00    -0.043 A 
ATOM      7  C   UNL     1       9.166  -1.296  21.943  0.00  0.00    +0.007 A 
ATOM      8  C   UNL     1       9.373  -0.037  21.381  0.00  0.00    +0.049 A 
ATOM      9  C   UNL     1       9.972   0.950  22.143  0.00  0.00    +0.158 A 
ATOM     10  C   UNL     1      10.365   0.700  23.455  0.00  0.00    +0.158 A 
ATOM     11  C   UNL     1      10.168  -0.554  24.024  0.00  0.00    +0.052 A 
BRANCH   9  12
ATOM     12  O   UNL     1      10.181   2.183  21.590  0.00  0.00    -0.503 OA
ATOM     13  H   UNL     1       9.588   2.777  22.093  0.00  0.00    +0.292 HD
ENDBRANCH   9  12
BRANCH  10  14
ATOM     14  O   UNL     1      10.957   1.722  24.146  0.00  0.00    -0.503 OA
ATOM     15  H   UNL     1      11.919   1.656  24.016  0.00  0.00    +0.292 HD
ENDBRANCH  10  14
ENDBRANCH   5   6
ENDBRANCH   3   5
ENDBRANCH   2   3
BRANCH   2  16
ATOM     16  C   UNL     1       6.296  -2.694  25.820  0.00  0.00    +0.038 C 
BRANCH  16  17
ATOM     17  C   UNL     1       6.544  -1.247  25.474  0.00  0.00    -0.043 A 
ATOM     18  C   UNL     1       7.186  -0.404  26.396  0.00  0.00    +0.007 A 
ATOM     19  C   UNL     1       7.482   0.917  26.062  0.00  0.00    +0.049 A 
ATOM     20  C   UNL     1       7.141   1.387  24.803  0.00  0.00    +0.158 A 
ATOM     21  C   UNL     1       6.484   0.571  23.889  0.00  0.00    +0.158 A 
ATOM     22  C   UNL     1       6.169  -0.742  24.218  0.00  0.00    +0.052 A 
BRANCH  20  23
ATOM     23  O   UNL     1       7.473   2.665  24.457  0.00  0.00    -0.503 OA
ATOM     24  H   UNL     1       7.557   2.637  23.484  0.00  0.00    +0.292 HD
ENDBRANCH  20  23
BRANCH  21  25
ATOM     25  O   UNL     1       6.178   1.099  22.664  0.00  0.00    -0.503 OA
ATOM     26  H   UNL     1       6.890   0.857  22.047  0.00  0.00    +0.292 HD
ENDBRANCH  21  25
ENDBRANCH  16  17
ENDBRANCH   2  16
TORSDOF 9
ENDMDL
MODEL 8
REMARK VINA RESULT:      -6.2      2.494      7.241
REMARK  Name = 
REMARK  11 active torsions:
REMARK  status: ('A' for Active; 'I' for Inactive)
REMARK    1  A    between atoms: C_1  and  C_2
REMARK    2  A    between atoms: C_2  and  C_4
REMARK    3  A    between atoms: C_2  and  C_13
REMARK    4  A    between atoms: C_4  and  C_5
REMARK    5  A    between atoms: C_7  and  O_8
REMARK    6  A    between atoms: C_9  and  O_10
REMARK    7  A    between atoms: C_13  and  C_15
REMARK    8  A    between atoms: C_13  and  C_16
REMARK    9  A    between atoms: C_16  and  C_17
REMARK   10  A    between atoms: C_19  and  O_20
REMARK   11  A    between atoms: C_21  and  O_22
REMARK                            x       y       z     vdW  Elec       q    Type
REMARK                         _______ _______ _______ _____ _____    ______ ____
ROOT
ATOM      1  C   UNL     1       5.720  -1.325  24.747  0.00  0.00    +0.008 C 
ATOM      2  C   UNL     1       6.204  -2.632  24.092  0.00  0.00    -0.007 C 
ENDROOT
BRANCH   2   3
ATOM      3  C   UNL     1       6.710  -2.415  22.626  0.00  0.00    -0.007 C 
ATOM      4  C   UNL     1       6.019  -3.392  21.654  0.00  0.00    +0.008 C 
BRANCH   3   5
ATOM      5  C   UNL     1       8.251  -2.555  22.486  0.00  0.00    +0.038 C 
BRANCH   5   6
ATOM      6  C   UNL     1       9.006  -1.287  22.833  0.00  0.00    -0.043 A 
ATOM      7  C   UNL     1       9.599  -1.144  24.102  0.00  0.00    +0.007 A 
ATOM      8  C   UNL     1      10.250   0.037  24.455  0.00  0.00    +0.049 A 
ATOM      9  C   UNL     1      10.326   1.067  23.534  0.00  0.00    +0.158 A 
ATOM     10  C   UNL     1       9.763   0.934  22.267  0.00  0.00    +0.158 A 
ATOM     11  C   UNL     1       9.106  -0.238  21.905  0.00  0.00    +0.052 A 
BRANCH   9  12
ATOM     12  O   UNL     1      10.958   2.226  23.881  0.00  0.00    -0.503 OA
ATOM     13  H   UNL     1      11.829   2.169  23.441  0.00  0.00    +0.292 HD
ENDBRANCH   9  12
BRANCH  10  14
ATOM     14  O   UNL     1       9.871   1.995  21.410  0.00  0.00    -0.503 OA
ATOM     15  H   UNL     1      10.732   2.419  21.564  0.00  0.00    +0.292 HD
ENDBRANCH  10  14
ENDBRANCH   5   6
ENDBRANCH   3   5
ENDBRANCH   2   3
BRANCH   2  16
ATOM     16  C   UNL     1       5.063  -3.689  24.122  0.00  0.00    +0.038 C 
BRANCH  16  17
ATOM     17  C   UNL     1       5.152  -4.660  25.274  0.00  0.00    -0.043 A 
ATOM     18  C   UNL     1       4.052  -5.474  25.592  0.00  0.00    +0.007 A 
ATOM     19  C   UNL     1       4.144  -6.422  26.609  0.00  0.00    +0.049 A 
ATOM     20  C   UNL     1       5.339  -6.559  27.299  0.00  0.00    +0.158 A 
ATOM     21  C   UNL     1       6.428  -5.744  27.010  0.00  0.00    +0.158 A 
ATOM     22  C   UNL     1       6.341  -4.783  26.009  0.00  0.00    +0.052 A 
BRANCH  20  23
ATOM     23  O   UNL     1       5.446  -7.520  28.262  0.00  0.00    -0.503 OA
ATOM     24  H   UNL     1       5.008  -8.302  27.872  0.00  0.00    +0.292 HD
ENDBRANCH  20  23
BRANCH  21  25
ATOM     25  O   UNL     1       7.577  -5.933  27.728  0.00  0.00    -0.503 OA
ATOM     26  H   UNL     1       7.809  -6.877  27.680  0.00  0.00    +0.292 HD
ENDBRANCH  21  25
ENDBRANCH  16  17
ENDBRANCH   2  16
TORSDOF 9
ENDMDL
MODEL 9
REMARK VINA RESULT:      -6.1      1.697      2.734
REMARK  Name = 
REMARK  11 active torsions:
REMARK  status: ('A' for Active; 'I' for Inactive)
REMARK    1  A    between atoms: C_1  and  C_2
REMARK    2  A    between atoms: C_2  and  C_4
REMARK    3  A    between atoms: C_2  and  C_13
REMARK    4  A    between atoms: C_4  and  C_5
REMARK    5  A    between atoms: C_7  and  O_8
REMARK    6  A    between atoms: C_9  and  O_10
REMARK    7  A    between atoms: C_13  and  C_15
REMARK    8  A    between atoms: C_13  and  C_16
REMARK    9  A    between atoms: C_16  and  C_17
REMARK   10  A    between atoms: C_19  and  O_20
REMARK   11  A    between atoms: C_21  and  O_22
REMARK                            x       y       z     vdW  Elec       q    Type
REMARK                         _______ _______ _______ _____ _____    ______ ____
ROOT
ATOM      1  C   UNL     1       9.730  -4.329  25.053  0.00  0.00    +0.008 C 
ATOM      2  C   UNL     1       9.030  -2.960  24.988  0.00  0.00    -0.007 C 
ENDROOT
BRANCH   2   3
ATOM      3  C   UNL     1       7.546  -3.022  25.484  0.00  0.00    -0.007 C 
ATOM      4  C   UNL     1       7.185  -1.768  26.304  0.00  0.00    +0.008 C 
BRANCH   3   5
ATOM      5  C   UNL     1       7.236  -4.292  26.324  0.00  0.00    +0.038 C 
BRANCH   5   6
ATOM      6  C   UNL     1       6.217  -5.208  25.677  0.00  0.00    -0.043 A 
ATOM      7  C   UNL     1       5.438  -6.071  26.474  0.00  0.00    +0.007 A 
ATOM      8  C   UNL     1       4.534  -6.957  25.890  0.00  0.00    +0.049 A 
ATOM      9  C   UNL     1       4.394  -6.969  24.514  0.00  0.00    +0.158 A 
ATOM     10  C   UNL     1       5.141  -6.108  23.713  0.00  0.00    +0.158 A 
ATOM     11  C   UNL     1       6.049  -5.222  24.284  0.00  0.00    +0.052 A 
BRANCH   9  12
ATOM     12  O   UNL     1       3.513  -7.842  23.941  0.00  0.00    -0.503 OA
ATOM     13  H   UNL     1       2.693  -7.735  24.462  0.00  0.00    +0.292 HD
ENDBRANCH   9  12
BRANCH  10  14
ATOM     14  O   UNL     1       4.954  -6.179  22.359  0.00  0.00    -0.503 OA
ATOM     15  H   UNL     1       4.747  -7.102  22.132  0.00  0.00    +0.292 HD
ENDBRANCH  10  14
ENDBRANCH   5   6
ENDBRANCH   3   5
ENDBRANCH   2   3
BRANCH   2  16
ATOM     16  C   UNL     1       9.096  -2.404  23.538  0.00  0.00    +0.038 C 
BRANCH  16  17
ATOM     17  C   UNL     1       9.440  -0.937  23.453  0.00  0.00    -0.043 A 
ATOM     18  C   UNL     1      10.193  -0.333  24.473  0.00  0.00    +0.007 A 
ATOM     19  C   UNL     1      10.575   1.004  24.375  0.00  0.00    +0.049 A 
ATOM     20  C   UNL     1      10.208   1.730  23.252  0.00  0.00    +0.158 A 
ATOM     21  C   UNL     1       9.442   1.151  22.246  0.00  0.00    +0.158 A 
ATOM     22  C   UNL     1       9.042  -0.176  22.342  0.00  0.00    +0.052 A 
BRANCH  20  23
ATOM     23  O   UNL     1      10.622   3.025  23.131  0.00  0.00    -0.503 OA
ATOM     24  H   UNL     1      11.202   3.020  22.344  0.00  0.00    +0.292 HD
ENDBRANCH  20  23
BRANCH  21  25
ATOM     25  O   UNL     1       9.117   1.924  21.165  0.00  0.00    -0.503 OA
ATOM     26  H   UNL     1       9.915   2.029  20.619  0.00  0.00    +0.292 HD
ENDBRANCH  21  25
ENDBRANCH  16  17
ENDBRANCH   2  16
TORSDOF 9
ENDMDL
