MODEL 1
REMARK VINA RESULT:      -5.2      0.000      0.000
REMARK  Name = 
REMARK  2 active torsions:
REMARK  status: ('A' for Active; 'I' for Inactive)
REMARK    1  A    between atoms: C_1  and  N_2
REMARK    2  A    between atoms: N_10  and  C_11
REMARK                            x       y       z     vdW  Elec       q    Type
REMARK                         _______ _______ _______ _____ _____    ______ ____
ROOT
ATOM      1  C   UNL     1       7.550  -3.392  22.305  0.00  0.00    +0.155 C 
ATOM      2  N   UNL     1       7.073  -4.193  23.413  0.00  0.00    -0.280 N 
ATOM      3  C   UNL     1       5.714  -4.509  23.478  0.00  0.00    +0.333 A 
ATOM      4  O   UNL     1       4.920  -4.123  22.615  0.00  0.00    -0.246 OA
ATOM      5  N   UNL     1       5.283  -5.290  24.571  0.00  0.00    -0.262 N 
ATOM      6  C   UNL     1       3.869  -5.604  24.619  0.00  0.00    +0.157 C 
ATOM      7  C   UNL     1       6.101  -5.775  25.594  0.00  0.00    +0.282 A 
ATOM      8  O   UNL     1       5.720  -6.453  26.542  0.00  0.00    -0.265 OA
ATOM      9  C   UNL     1       7.458  -5.396  25.432  0.00  0.00    +0.149 A 
ATOM     10  N   UNL     1       8.550  -5.664  26.203  0.00  0.00    -0.339 N 
ATOM     11  H   UNL     1       8.563  -6.205  27.058  0.00  0.00    +0.167 HD
ATOM     12  C   UNL     1       9.618  -5.059  25.592  0.00  0.00    +0.199 A 
ATOM     13  N   UNL     1       9.260  -4.433  24.489  0.00  0.00    -0.218 NA
ATOM     14  C   UNL     1       7.918  -4.645  24.396  0.00  0.00    +0.168 A 
ENDROOT
TORSDOF 0
ENDMDL
MODEL 2
REMARK VINA RESULT:      -5.1      1.840      4.017
REMARK  Name = 
REMARK  2 active torsions:
REMARK  status: ('A' for Active; 'I' for Inactive)
REMARK    1  A    between atoms: C_1  and  N_2
REMARK    2  A    between atoms: N_10  and  C_11
REMARK                            x       y       z     vdW  Elec       q    Type
REMARK                         _______ _______ _______ _____ _____    ______ ____
ROOT
ATOM      1  C   UNL     1       4.106  -6.732  24.646  0.00  0.00    +0.155 C 
ATOM      2  N   UNL     1       5.396  -6.087  24.519  0.00  0.00    -0.280 N 
ATOM      3  C   UNL     1       6.171  -5.903  25.668  0.00  0.00    +0.333 A 
ATOM      4  O   UNL     1       5.778  -6.277  26.777  0.00  0.00    -0.246 OA
ATOM      5  N   UNL     1       7.421  -5.270  25.509  0.00  0.00    -0.262 N 
ATOM      6  C   UNL     1       8.207  -5.087  26.714  0.00  0.00    +0.157 C 
ATOM      7  C   UNL     1       7.952  -4.814  24.300  0.00  0.00    +0.282 A 
ATOM      8  O   UNL     1       9.041  -4.265  24.169  0.00  0.00    -0.265 OA
ATOM      9  C   UNL     1       7.087  -5.050  23.201  0.00  0.00    +0.149 A 
ATOM     10  N   UNL     1       7.237  -4.758  21.878  0.00  0.00    -0.339 N 
ATOM     11  H   UNL     1       8.033  -4.303  21.451  0.00  0.00    +0.167 HD
ATOM     12  C   UNL     1       6.102  -5.202  21.249  0.00  0.00    +0.199 A 
ATOM     13  N   UNL     1       5.257  -5.753  22.097  0.00  0.00    -0.218 NA
ATOM     14  C   UNL     1       5.874  -5.654  23.307  0.00  0.00    +0.168 A 
ENDROOT
TORSDOF 0
ENDMDL
MODEL 3
REMARK VINA RESULT:      -5.0      3.073      4.075
REMARK  Name = 
REMARK  2 active torsions:
REMARK  status: ('A' for Active; 'I' for Inactive)
REMARK    1  A    between atoms: C_1  and  N_2
REMARK    2  A    between atoms: N_10  and  C_11
REMARK                            x       y       z     vdW  Elec       q    Type
REMARK                         _______ _______ _______ _____ _____    ______ ____
ROOT
ATOM      1  C   UNL     1       6.129  -1.658  26.787  0.00  0.00    +0.155 C 
ATOM      2  N   UNL     1       7.154  -2.543  26.276  0.00  0.00    -0.280 N 
ATOM      3  C   UNL     1       8.029  -2.063  25.297  0.00  0.00    +0.333 A 
ATOM      4  O   UNL     1       7.944  -0.910  24.866  0.00  0.00    -0.246 OA
ATOM      5  N   UNL     1       9.016  -2.952  24.821  0.00  0.00    -0.262 N 
ATOM      6  C   UNL     1       9.910  -2.434  23.804  0.00  0.00    +0.157 C 
ATOM      7  C   UNL     1       9.194  -4.270  25.246  0.00  0.00    +0.282 A 
ATOM      8  O   UNL     1      10.054  -5.037  24.827  0.00  0.00    -0.265 OA
ATOM      9  C   UNL     1       8.255  -4.655  26.237  0.00  0.00    +0.149 A 
ATOM     10  N   UNL     1       8.098  -5.838  26.895  0.00  0.00    -0.339 N 
ATOM     11  H   UNL     1       8.657  -6.672  26.772  0.00  0.00    +0.167 HD
ATOM     12  C   UNL     1       7.039  -5.671  27.751  0.00  0.00    +0.199 A 
ATOM     13  N   UNL     1       6.529  -4.459  27.666  0.00  0.00    -0.218 NA
ATOM     14  C   UNL     1       7.288  -3.833  26.725  0.00  0.00    +0.168 A 
ENDROOT
TORSDOF 0
ENDMDL
MODEL 4
REMARK VINA RESULT:      -4.8      1.798      3.372
REMARK  Name = 
REMARK  2 active torsions:
REMARK  status: ('A' for Active; 'I' for Inactive)
REMARK    1  A    between atoms: C_1  and  N_2
REMARK    2  A    between atoms: N_10  and  C_11
REMARK                            x       y       z     vdW  Elec       q    Type
REMARK                         _______ _______ _______ _____ _____    ______ ____
ROOT
ATOM      1  C   UNL     1       5.177  -5.421  22.647  0.00  0.00    +0.155 C 
ATOM      2  N   UNL     1       6.041  -5.263  23.798  0.00  0.00    -0.280 N 
ATOM      3  C   UNL     1       7.233  -4.548  23.650  0.00  0.00    +0.333 A 
ATOM      4  O   UNL     1       7.558  -4.054  22.567  0.00  0.00    -0.246 OA
ATOM      5  N   UNL     1       8.052  -4.414  24.790  0.00  0.00    -0.262 N 
ATOM      6  C   UNL     1       9.285  -3.671  24.613  0.00  0.00    +0.157 C 
ATOM      7  C   UNL     1       7.772  -4.934  26.057  0.00  0.00    +0.282 A 
ATOM      8  O   UNL     1       8.489  -4.813  27.044  0.00  0.00    -0.265 OA
ATOM      9  C   UNL     1       6.543  -5.640  26.096  0.00  0.00    +0.149 A 
ATOM     10  N   UNL     1       5.924  -6.284  27.126  0.00  0.00    -0.339 N 
ATOM     11  H   UNL     1       6.266  -6.363  28.075  0.00  0.00    +0.167 HD
ATOM     12  C   UNL     1       4.758  -6.798  26.621  0.00  0.00    +0.199 A 
ATOM     13  N   UNL     1       4.611  -6.514  25.343  0.00  0.00    -0.218 NA
ATOM     14  C   UNL     1       5.723  -5.795  25.023  0.00  0.00    +0.168 A 
ENDROOT
TORSDOF 0
ENDMDL
MODEL 5
REMARK VINA RESULT:      -4.8      1.555      1.727
REMARK  Name = 
REMARK  2 active torsions:
REMARK  status: ('A' for Active; 'I' for Inactive)
REMARK    1  A    between atoms: C_1  and  N_2
REMARK    2  A    between atoms: N_10  and  C_11
REMARK                            x       y       z     vdW  Elec       q    Type
REMARK                         _______ _______ _______ _____ _____    ______ ____
ROOT
ATOM      1  C   UNL     1       6.205  -4.163  23.184  0.00  0.00    +0.155 C 
ATOM      2  N   UNL     1       6.433  -4.648  24.529  0.00  0.00    -0.280 N 
ATOM      3  C   UNL     1       5.329  -4.924  25.340  0.00  0.00    +0.333 A 
ATOM      4  O   UNL     1       4.174  -4.764  24.933  0.00  0.00    -0.246 OA
ATOM      5  N   UNL     1       5.586  -5.394  26.644  0.00  0.00    -0.262 N 
ATOM      6  C   UNL     1       4.426  -5.671  27.469  0.00  0.00    +0.157 C 
ATOM      7  C   UNL     1       6.852  -5.608  27.194  0.00  0.00    +0.282 A 
ATOM      8  O   UNL     1       7.069  -6.018  28.330  0.00  0.00    -0.265 OA
ATOM      9  C   UNL     1       7.899  -5.297  26.290  0.00  0.00    +0.149 A 
ATOM     10  N   UNL     1       9.252  -5.370  26.442  0.00  0.00    -0.339 N 
ATOM     11  H   UNL     1       9.747  -5.674  27.271  0.00  0.00    +0.167 HD
ATOM     12  C   UNL     1       9.802  -4.952  25.258  0.00  0.00    +0.199 A 
ATOM     13  N   UNL     1       8.877  -4.625  24.378  0.00  0.00    -0.218 NA
ATOM     14  C   UNL     1       7.698  -4.842  25.025  0.00  0.00    +0.168 A 
ENDROOT
TORSDOF 0
ENDMDL
MODEL 6
REMARK VINA RESULT:      -4.8      1.244      3.248
REMARK  Name = 
REMARK  2 active torsions:
REMARK  status: ('A' for Active; 'I' for Inactive)
REMARK    1  A    between atoms: C_1  and  N_2
REMARK    2  A    between atoms: N_10  and  C_11
REMARK                            x       y       z     vdW  Elec       q    Type
REMARK                         _______ _______ _______ _____ _____    ______ ____
ROOT
ATOM      1  C   UNL     1       9.066  -4.480  26.343  0.00  0.00    +0.155 C 
ATOM      2  N   UNL     1       8.101  -4.459  25.264  0.00  0.00    -0.280 N 
ATOM      3  C   UNL     1       6.975  -5.281  25.355  0.00  0.00    +0.333 A 
ATOM      4  O   UNL     1       6.790  -6.017  26.328  0.00  0.00    -0.246 OA
ATOM      5  N   UNL     1       6.055  -5.238  24.286  0.00  0.00    -0.262 N 
ATOM      6  C   UNL     1       4.896  -6.101  24.400  0.00  0.00    +0.157 C 
ATOM      7  C   UNL     1       6.174  -4.440  23.145  0.00  0.00    +0.282 A 
ATOM      8  O   UNL     1       5.370  -4.407  22.220  0.00  0.00    -0.265 OA
ATOM      9  C   UNL     1       7.350  -3.647  23.155  0.00  0.00    +0.149 A 
ATOM     10  N   UNL     1       7.822  -2.753  22.241  0.00  0.00    -0.339 N 
ATOM     11  H   UNL     1       7.382  -2.502  21.364  0.00  0.00    +0.167 HD
ATOM     12  C   UNL     1       9.002  -2.267  22.742  0.00  0.00    +0.199 A 
ATOM     13  N   UNL     1       9.292  -2.801  23.911  0.00  0.00    -0.218 NA
ATOM     14  C   UNL     1       8.263  -3.658  24.161  0.00  0.00    +0.168 A 
ENDROOT
TORSDOF 0
ENDMDL
MODEL 7
REMARK VINA RESULT:      -4.8      2.420      4.170
REMARK  Name = 
REMARK  2 active torsions:
REMARK  status: ('A' for Active; 'I' for Inactive)
REMARK    1  A    between atoms: C_1  and  N_2
REMARK    2  A    between atoms: N_10  and  C_11
REMARK                            x       y       z     vdW  Elec       q    Type
REMARK                         _______ _______ _______ _____ _____    ______ ____
ROOT
ATOM      1  C   UNL     1       9.022  -3.527  25.569  0.00  0.00    +0.155 C 
ATOM      2  N   UNL     1       8.146  -3.517  24.416  0.00  0.00    -0.280 N 
ATOM      3  C   UNL     1       8.038  -4.677  23.644  0.00  0.00    +0.333 A 
ATOM      4  O   UNL     1       8.669  -5.700  23.925  0.00  0.00    -0.246 OA
ATOM      5  N   UNL     1       7.177  -4.632  22.528  0.00  0.00    -0.262 N 
ATOM      6  C   UNL     1       7.083  -5.846  21.740  0.00  0.00    +0.157 C 
ATOM      7  C   UNL     1       6.422  -3.527  22.129  0.00  0.00    +0.282 A 
ATOM      8  O   UNL     1       5.675  -3.495  21.157  0.00  0.00    -0.265 OA
ATOM      9  C   UNL     1       6.606  -2.406  22.979  0.00  0.00    +0.149 A 
ATOM     10  N   UNL     1       6.058  -1.159  22.930  0.00  0.00    -0.339 N 
ATOM     11  H   UNL     1       5.398  -0.820  22.242  0.00  0.00    +0.167 HD
ATOM     12  C   UNL     1       6.575  -0.463  23.992  0.00  0.00    +0.199 A 
ATOM     13  N   UNL     1       7.410  -1.199  24.698  0.00  0.00    -0.218 NA
ATOM     14  C   UNL     1       7.424  -2.404  24.064  0.00  0.00    +0.168 A 
ENDROOT
TORSDOF 0
ENDMDL
MODEL 8
REMARK VINA RESULT:      -4.8      4.563      5.445
REMARK  Name = 
REMARK  2 active torsions:
REMARK  status: ('A' for Active; 'I' for Inactive)
REMARK    1  A    between atoms: C_1  and  N_2
REMARK    2  A    between atoms: N_10  and  C_11
REMARK                            x       y       z     vdW  Elec       q    Type
REMARK                         _______ _______ _______ _____ _____    ______ ____
ROOT
ATOM      1  C   UNL     1      10.430  -1.503  22.355  0.00  0.00    +0.155 C 
ATOM      2  N   UNL     1       9.769  -1.284  23.624  0.00  0.00    -0.280 N 
ATOM      3  C   UNL     1       9.394  -2.393  24.387  0.00  0.00    +0.333 A 
ATOM      4  O   UNL     1       9.613  -3.545  24.000  0.00  0.00    -0.246 OA
ATOM      5  N   UNL     1       8.751  -2.144  25.617  0.00  0.00    -0.262 N 
ATOM      6  C   UNL     1       8.368  -3.310  26.390  0.00  0.00    +0.157 C 
ATOM      7  C   UNL     1       8.460  -0.882  26.140  0.00  0.00    +0.282 A 
ATOM      8  O   UNL     1       7.902  -0.673  27.211  0.00  0.00    -0.265 OA
ATOM      9  C   UNL     1       8.883   0.171  25.289  0.00  0.00    +0.149 A 
ATOM     10  N   UNL     1       8.783   1.522  25.436  0.00  0.00    -0.339 N 
ATOM     11  H   UNL     1       8.370   2.012  26.220  0.00  0.00    +0.167 HD
ATOM     12  C   UNL     1       9.351   2.080  24.320  0.00  0.00    +0.199 A 
ATOM     13  N   UNL     1       9.798   1.161  23.488  0.00  0.00    -0.218 NA
ATOM     14  C   UNL     1       9.504  -0.022  24.096  0.00  0.00    +0.168 A 
ENDROOT
TORSDOF 0
ENDMDL
MODEL 9
REMARK VINA RESULT:      -4.8      4.773      6.184
REMARK  Name = 
REMARK  2 active torsions:
REMARK  status: ('A' for Active; 'I' for Inactive)
REMARK    1  A    between atoms: C_1  and  N_2
REMARK    2  A    between atoms: N_10  and  C_11
REMARK                            x       y       z     vdW  Elec       q    Type
REMARK                         _______ _______ _______ _____ _____    ______ ____
ROOT
ATOM      1  C   UNL     1       9.588  -3.231  24.301  0.00  0.00    +0.155 C 
ATOM      2  N   UNL     1       9.411  -1.794  24.250  0.00  0.00    -0.280 N 
ATOM      3  C   UNL     1       9.753  -1.116  23.077  0.00  0.00    +0.333 A 
ATOM      4  O   UNL     1      10.199  -1.714  22.093  0.00  0.00    -0.246 OA
ATOM      5  N   UNL     1       9.570   0.282  23.062  0.00  0.00    -0.262 N 
ATOM      6  C   UNL     1       9.934   0.965  21.836  0.00  0.00    +0.157 C 
ATOM      7  C   UNL     1       9.072   1.047  24.120  0.00  0.00    +0.282 A 
ATOM      8  O   UNL     1       8.914   2.263  24.100  0.00  0.00    -0.265 OA
ATOM      9  C   UNL     1       8.757   0.262  25.258  0.00  0.00    +0.149 A 
ATOM     10  N   UNL     1       8.257   0.625  26.473  0.00  0.00    -0.339 N 
ATOM     11  H   UNL     1       8.019   1.564  26.768  0.00  0.00    +0.167 HD
ATOM     12  C   UNL     1       8.141  -0.526  27.209  0.00  0.00    +0.199 A 
ATOM     13  N   UNL     1       8.537  -1.583  26.528  0.00  0.00    -0.218 NA
ATOM     14  C   UNL     1       8.918  -1.086  25.318  0.00  0.00    +0.168 A 
ENDROOT
TORSDOF 0
ENDMDL
