MODEL 1
REMARK VINA RESULT:      -7.5      0.000      0.000
REMARK  Name = 
REMARK  7 active torsions:
REMARK  status: ('A' for Active; 'I' for Inactive)
REMARK    1  A    between atoms: C_1  and  C_2
REMARK    2  A    between atoms: C_5  and  C_7
REMARK    3  A    between atoms: C_10  and  C_14
REMARK    4  A    between atoms: C_11  and  C_12
REMARK    5  A    between atoms: C_16  and  C_21
REMARK    6  A    between atoms: C_19  and  C_20
REMARK    7  A    between atoms: N_23  and  C_24
REMARK                            x       y       z     vdW  Elec       q    Type
REMARK                         _______ _______ _______ _____ _____    ______ ____
ROOT
ATOM      1  C   UNL     1       8.142  -0.406  23.328  0.00  0.00    -0.014 A 
ATOM      2  C   UNL     1       9.222  -0.484  22.399  0.00  0.00    -0.043 A 
ATOM      3  C   UNL     1      10.191  -1.637  22.295  0.00  0.00    +0.044 C 
ATOM      4  C   UNL     1       9.443   0.553  21.465  0.00  0.00    +0.005 A 
ATOM      5  C   UNL     1       8.678   1.709  21.475  0.00  0.00    +0.013 A 
ATOM      6  C   UNL     1       7.642   1.844  22.391  0.00  0.00    +0.037 A 
ATOM      7  C   UNL     1       7.359   0.783  23.276  0.00  0.00    +0.021 A 
ENDROOT
BRANCH   1  12
ATOM      8  C   UNL     1       7.252  -3.539  26.299  0.00  0.00    +0.039 A 
ATOM      9  C   UNL     1       6.657  -3.566  25.035  0.00  0.00    +0.017 A 
ATOM     10  C   UNL     1       6.860  -2.542  24.074  0.00  0.00    -0.042 A 
ATOM     11  C   UNL     1       6.018  -2.668  22.830  0.00  0.00    +0.044 C 
ATOM     12  C   UNL     1       7.793  -1.498  24.316  0.00  0.00    -0.015 A 
ATOM     13  C   UNL     1       8.430  -1.536  25.579  0.00  0.00    +0.009 A 
ATOM     14  C   UNL     1       8.138  -2.501  26.564  0.00  0.00    +0.014 A 
BRANCH   8  18
ATOM     15  C   UNL     1       4.596  -5.711  29.686  0.00  0.00    +0.111 C 
ATOM     16  C   UNL     1       5.727  -5.532  28.763  0.00  0.00    +0.215 A 
ATOM     17  O   UNL     1       5.760  -4.381  28.021  0.00  0.00    -0.421 OA
ATOM     18  C   UNL     1       6.903  -4.562  27.281  0.00  0.00    +0.248 A 
ATOM     19  N   UNL     1       7.504  -5.705  27.555  0.00  0.00    -0.107 NA
ATOM     20  N   UNL     1       6.742  -6.332  28.521  0.00  0.00    -0.112 NA
ENDBRANCH   8  18
ENDBRANCH   1  12
BRANCH   6  21
ATOM     21  C   UNL     1       6.925   3.153  22.401  0.00  0.00    +0.244 C 
ATOM     22  N   UNL     1       7.674   4.288  22.628  0.00  0.00    -0.308 N 
ATOM     23  H   UNL     1       8.654   4.208  22.869  0.00  0.00    +0.149 HD
ATOM     24  O   UNL     1       5.704   3.173  22.235  0.00  0.00    -0.270 OA
BRANCH  22  25
ATOM     25  C   UNL     1       7.048   5.567  22.744  0.00  0.00    +0.073 C 
ATOM     26  C   UNL     1       7.161   6.597  21.656  0.00  0.00    +0.024 C 
ATOM     27  C   UNL     1       7.880   6.804  22.957  0.00  0.00    +0.024 C 
ENDBRANCH  22  25
ENDBRANCH   6  21
TORSDOF 4
ENDMDL
MODEL 2
REMARK VINA RESULT:      -7.4      1.692      2.032
REMARK  Name = 
REMARK  7 active torsions:
REMARK  status: ('A' for Active; 'I' for Inactive)
REMARK    1  A    between atoms: C_1  and  C_2
REMARK    2  A    between atoms: C_5  and  C_7
REMARK    3  A    between atoms: C_10  and  C_14
REMARK    4  A    between atoms: C_11  and  C_12
REMARK    5  A    between atoms: C_16  and  C_21
REMARK    6  A    between atoms: C_19  and  C_20
REMARK    7  A    between atoms: N_23  and  C_24
REMARK                            x       y       z     vdW  Elec       q    Type
REMARK                         _______ _______ _______ _____ _____    ______ ____
ROOT
ATOM      1  C   UNL     1       7.904  -0.781  23.344  0.00  0.00    -0.014 A 
ATOM      2  C   UNL     1       9.135  -0.694  22.627  0.00  0.00    -0.043 A 
ATOM      3  C   UNL     1      10.239  -1.722  22.677  0.00  0.00    +0.044 C 
ATOM      4  C   UNL     1       9.394   0.404  21.775  0.00  0.00    +0.005 A 
ATOM      5  C   UNL     1       8.505   1.463  21.672  0.00  0.00    +0.013 A 
ATOM      6  C   UNL     1       7.314   1.436  22.384  0.00  0.00    +0.037 A 
ATOM      7  C   UNL     1       7.006   0.311  23.176  0.00  0.00    +0.021 A 
ENDROOT
BRANCH   1  12
ATOM      8  C   UNL     1       6.858  -4.115  26.033  0.00  0.00    +0.039 A 
ATOM      9  C   UNL     1       6.677  -4.229  24.652  0.00  0.00    +0.017 A 
ATOM     10  C   UNL     1       6.934  -3.159  23.757  0.00  0.00    -0.042 A 
ATOM     11  C   UNL     1       6.537  -3.423  22.327  0.00  0.00    +0.044 C 
ATOM     12  C   UNL     1       7.517  -1.950  24.224  0.00  0.00    -0.015 A 
ATOM     13  C   UNL     1       7.751  -1.890  25.619  0.00  0.00    +0.009 A 
ATOM     14  C   UNL     1       7.392  -2.922  26.508  0.00  0.00    +0.014 A 
BRANCH   8  18
ATOM     15  C   UNL     1       6.077  -6.408  30.201  0.00  0.00    +0.111 C 
ATOM     16  C   UNL     1       6.097  -6.225  28.741  0.00  0.00    +0.215 A 
ATOM     17  O   UNL     1       6.622  -5.055  28.261  0.00  0.00    -0.421 OA
ATOM     18  C   UNL     1       6.459  -5.215  26.905  0.00  0.00    +0.248 A 
ATOM     19  N   UNL     1       5.898  -6.371  26.601  0.00  0.00    -0.107 NA
ATOM     20  N   UNL     1       5.668  -7.027  27.793  0.00  0.00    -0.112 NA
ENDBRANCH   8  18
ENDBRANCH   1  12
BRANCH   6  21
ATOM     21  C   UNL     1       6.453   2.653  22.293  0.00  0.00    +0.244 C 
ATOM     22  N   UNL     1       5.135   2.530  22.676  0.00  0.00    -0.308 N 
ATOM     23  H   UNL     1       4.760   1.620  22.917  0.00  0.00    +0.149 HD
ATOM     24  O   UNL     1       6.935   3.702  21.863  0.00  0.00    -0.270 OA
BRANCH  22  25
ATOM     25  C   UNL     1       4.225   3.624  22.532  0.00  0.00    +0.073 C 
ATOM     26  C   UNL     1       2.867   3.603  23.173  0.00  0.00    +0.024 C 
ATOM     27  C   UNL     1       2.991   3.478  21.683  0.00  0.00    +0.024 C 
ENDBRANCH  22  25
ENDBRANCH   6  21
TORSDOF 4
ENDMDL
MODEL 3
REMARK VINA RESULT:      -7.4      4.079      4.929
REMARK  Name = 
REMARK  7 active torsions:
REMARK  status: ('A' for Active; 'I' for Inactive)
REMARK    1  A    between atoms: C_1  and  C_2
REMARK    2  A    between atoms: C_5  and  C_7
REMARK    3  A    between atoms: C_10  and  C_14
REMARK    4  A    between atoms: C_11  and  C_12
REMARK    5  A    between atoms: C_16  and  C_21
REMARK    6  A    between atoms: C_19  and  C_20
REMARK    7  A    between atoms: N_23  and  C_24
REMARK                            x       y       z     vdW  Elec       q    Type
REMARK                         _______ _______ _______ _____ _____    ______ ____
ROOT
ATOM      1  C   UNL     1       7.475  -3.222  23.381  0.00  0.00    -0.014 A 
ATOM      2  C   UNL     1       8.635  -3.637  24.102  0.00  0.00    -0.043 A 
ATOM      3  C   UNL     1       8.748  -4.918  24.893  0.00  0.00    +0.044 C 
ATOM      4  C   UNL     1       9.804  -2.844  24.099  0.00  0.00    +0.005 A 
ATOM      5  C   UNL     1       9.838  -1.609  23.472  0.00  0.00    +0.013 A 
ATOM      6  C   UNL     1       8.718  -1.149  22.793  0.00  0.00    +0.037 A 
ATOM      7  C   UNL     1       7.569  -1.964  22.720  0.00  0.00    +0.021 A 
ENDROOT
BRANCH   1  12
ATOM      8  C   UNL     1       3.715  -5.516  23.201  0.00  0.00    +0.039 A 
ATOM      9  C   UNL     1       4.845  -5.944  22.501  0.00  0.00    +0.017 A 
ATOM     10  C   UNL     1       6.054  -5.202  22.474  0.00  0.00    -0.042 A 
ATOM     11  C   UNL     1       7.109  -5.747  21.545  0.00  0.00    +0.044 C 
ATOM     12  C   UNL     1       6.205  -4.038  23.276  0.00  0.00    -0.015 A 
ATOM     13  C   UNL     1       5.064  -3.668  24.026  0.00  0.00    +0.009 A 
ATOM     14  C   UNL     1       3.837  -4.356  23.959  0.00  0.00    +0.014 A 
BRANCH   8  18
ATOM     15  C   UNL     1       0.654  -9.168  23.939  0.00  0.00    +0.111 C 
ATOM     16  C   UNL     1       1.108  -7.867  23.422  0.00  0.00    +0.215 A 
ATOM     17  O   UNL     1       2.405  -7.507  23.675  0.00  0.00    -0.421 OA
ATOM     18  C   UNL     1       2.468  -6.267  23.086  0.00  0.00    +0.248 A 
ATOM     19  N   UNL     1       1.324  -5.919  22.527  0.00  0.00    -0.107 NA
ATOM     20  N   UNL     1       0.443  -6.960  22.741  0.00  0.00    -0.112 NA
ENDBRANCH   8  18
ENDBRANCH   1  12
BRANCH   6  21
ATOM     21  C   UNL     1       8.800   0.228  22.223  0.00  0.00    +0.244 C 
ATOM     22  N   UNL     1       7.713   1.057  22.401  0.00  0.00    -0.308 N 
ATOM     23  H   UNL     1       6.865   0.697  22.822  0.00  0.00    +0.149 HD
ATOM     24  O   UNL     1       9.809   0.565  21.601  0.00  0.00    -0.270 OA
BRANCH  22  25
ATOM     25  C   UNL     1       7.678   2.357  21.807  0.00  0.00    +0.073 C 
ATOM     26  C   UNL     1       7.932   3.596  22.617  0.00  0.00    +0.024 C 
ATOM     27  C   UNL     1       6.549   3.303  22.116  0.00  0.00    +0.024 C 
ENDBRANCH  22  25
ENDBRANCH   6  21
TORSDOF 4
ENDMDL
MODEL 4
REMARK VINA RESULT:      -6.9      3.439      4.778
REMARK  Name = 
REMARK  7 active torsions:
REMARK  status: ('A' for Active; 'I' for Inactive)
REMARK    1  A    between atoms: C_1  and  C_2
REMARK    2  A    between atoms: C_5  and  C_7
REMARK    3  A    between atoms: C_10  and  C_14
REMARK    4  A    between atoms: C_11  and  C_12
REMARK    5  A    between atoms: C_16  and  C_21
REMARK    6  A    between atoms: C_19  and  C_20
REMARK    7  A    between atoms: N_23  and  C_24
REMARK                            x       y       z     vdW  Elec       q    Type
REMARK                         _______ _______ _______ _____ _____    ______ ____
ROOT
ATOM      1  C   UNL     1       8.120   2.269  24.927  0.00  0.00    -0.014 A 
ATOM      2  C   UNL     1       7.188   2.897  25.806  0.00  0.00    -0.043 A 
ATOM      3  C   UNL     1       6.027   2.201  26.474  0.00  0.00    +0.044 C 
ATOM      4  C   UNL     1       7.318   4.265  26.132  0.00  0.00    +0.005 A 
ATOM      5  C   UNL     1       8.295   5.058  25.549  0.00  0.00    +0.013 A 
ATOM      6  C   UNL     1       9.197   4.495  24.656  0.00  0.00    +0.037 A 
ATOM      7  C   UNL     1       9.130   3.113  24.382  0.00  0.00    +0.021 A 
ENDROOT
BRANCH   1  12
ATOM      8  C   UNL     1       8.151  -2.048  24.031  0.00  0.00    +0.039 A 
ATOM      9  C   UNL     1       7.644  -1.132  23.106  0.00  0.00    +0.017 A 
ATOM     10  C   UNL     1       7.551   0.257  23.380  0.00  0.00    -0.042 A 
ATOM     11  C   UNL     1       6.840   1.063  22.322  0.00  0.00    +0.044 C 
ATOM     12  C   UNL     1       8.096   0.797  24.576  0.00  0.00    -0.015 A 
ATOM     13  C   UNL     1       8.662  -0.149  25.463  0.00  0.00    +0.009 A 
ATOM     14  C   UNL     1       8.652  -1.537  25.224  0.00  0.00    +0.014 A 
BRANCH   8  18
ATOM     15  C   UNL     1       6.763  -6.053  21.734  0.00  0.00    +0.111 C 
ATOM     16  C   UNL     1       7.509  -5.243  22.710  0.00  0.00    +0.215 A 
ATOM     17  O   UNL     1       7.235  -3.902  22.756  0.00  0.00    -0.421 OA
ATOM     18  C   UNL     1       8.105  -3.476  23.731  0.00  0.00    +0.248 A 
ATOM     19  N   UNL     1       8.826  -4.464  24.227  0.00  0.00    -0.107 NA
ATOM     20  N   UNL     1       8.434  -5.612  23.567  0.00  0.00    -0.112 NA
ENDBRANCH   8  18
ENDBRANCH   1  12
BRANCH   6  21
ATOM     21  C   UNL     1      10.160   5.429  24.001  0.00  0.00    +0.244 C 
ATOM     22  N   UNL     1      11.286   4.881  23.424  0.00  0.00    -0.308 N 
ATOM     23  H   UNL     1      11.482   3.894  23.534  0.00  0.00    +0.149 HD
ATOM     24  O   UNL     1       9.933   6.640  24.017  0.00  0.00    -0.270 OA
BRANCH  22  25
ATOM     25  C   UNL     1      12.299   5.716  22.858  0.00  0.00    +0.073 C 
ATOM     26  C   UNL     1      13.081   5.289  21.649  0.00  0.00    +0.024 C 
ATOM     27  C   UNL     1      13.751   5.344  22.991  0.00  0.00    +0.024 C 
ENDBRANCH  22  25
ENDBRANCH   6  21
TORSDOF 4
ENDMDL
MODEL 5
REMARK VINA RESULT:      -6.9      3.165      3.784
REMARK  Name = 
REMARK  7 active torsions:
REMARK  status: ('A' for Active; 'I' for Inactive)
REMARK    1  A    between atoms: C_1  and  C_2
REMARK    2  A    between atoms: C_5  and  C_7
REMARK    3  A    between atoms: C_10  and  C_14
REMARK    4  A    between atoms: C_11  and  C_12
REMARK    5  A    between atoms: C_16  and  C_21
REMARK    6  A    between atoms: C_19  and  C_20
REMARK    7  A    between atoms: N_23  and  C_24
REMARK                            x       y       z     vdW  Elec       q    Type
REMARK                         _______ _______ _______ _____ _____    ______ ____
ROOT
ATOM      1  C   UNL     1       8.203  -0.743  23.997  0.00  0.00    -0.014 A 
ATOM      2  C   UNL     1       9.588  -1.086  23.949  0.00  0.00    -0.043 A 
ATOM      3  C   UNL     1      10.126  -2.490  23.823  0.00  0.00    +0.044 C 
ATOM      4  C   UNL     1      10.578  -0.079  23.998  0.00  0.00    +0.005 A 
ATOM      5  C   UNL     1      10.246   1.255  24.178  0.00  0.00    +0.013 A 
ATOM      6  C   UNL     1       8.911   1.626  24.271  0.00  0.00    +0.037 A 
ATOM      7  C   UNL     1       7.908   0.643  24.144  0.00  0.00    +0.021 A 
ENDROOT
BRANCH   1  12
ATOM      8  C   UNL     1       4.913  -3.636  23.508  0.00  0.00    +0.039 A 
ATOM      9  C   UNL     1       5.314  -3.222  24.781  0.00  0.00    +0.017 A 
ATOM     10  C   UNL     1       6.412  -2.347  24.988  0.00  0.00    -0.042 A 
ATOM     11  C   UNL     1       6.786  -2.135  26.433  0.00  0.00    +0.044 C 
ATOM     12  C   UNL     1       7.077  -1.748  23.885  0.00  0.00    -0.015 A 
ATOM     13  C   UNL     1       6.603  -2.136  22.609  0.00  0.00    +0.009 A 
ATOM     14  C   UNL     1       5.581  -3.087  22.420  0.00  0.00    +0.014 A 
BRANCH   8  18
ATOM     15  C   UNL     1       0.580  -5.623  24.232  0.00  0.00    +0.111 C 
ATOM     16  C   UNL     1       1.937  -5.504  23.678  0.00  0.00    +0.215 A 
ATOM     17  O   UNL     1       2.696  -4.441  24.092  0.00  0.00    -0.421 OA
ATOM     18  C   UNL     1       3.853  -4.631  23.375  0.00  0.00    +0.248 A 
ATOM     19  N   UNL     1       3.799  -5.706  22.611  0.00  0.00    -0.107 NA
ATOM     20  N   UNL     1       2.557  -6.275  22.812  0.00  0.00    -0.112 NA
ENDBRANCH   8  18
ENDBRANCH   1  12
BRANCH   6  21
ATOM     21  C   UNL     1       8.636   3.065  24.556  0.00  0.00    +0.244 C 
ATOM     22  N   UNL     1       9.588   3.984  24.170  0.00  0.00    -0.308 N 
ATOM     23  H   UNL     1      10.475   3.668  23.796  0.00  0.00    +0.149 HD
ATOM     24  O   UNL     1       7.596   3.377  25.139  0.00  0.00    -0.270 OA
BRANCH  22  25
ATOM     25  C   UNL     1       9.440   5.370  24.490  0.00  0.00    +0.073 C 
ATOM     26  C   UNL     1       9.151   6.393  23.429  0.00  0.00    +0.024 C 
ATOM     27  C   UNL     1      10.500   6.360  24.085  0.00  0.00    +0.024 C 
ENDBRANCH  22  25
ENDBRANCH   6  21
TORSDOF 4
ENDMDL
MODEL 6
REMARK VINA RESULT:      -6.7      3.975      9.149
REMARK  Name = 
REMARK  7 active torsions:
REMARK  status: ('A' for Active; 'I' for Inactive)
REMARK    1  A    between atoms: C_1  and  C_2
REMARK    2  A    between atoms: C_5  and  C_7
REMARK    3  A    between atoms: C_10  and  C_14
REMARK    4  A    between atoms: C_11  and  C_12
REMARK    5  A    between atoms: C_16  and  C_21
REMARK    6  A    between atoms: C_19  and  C_20
REMARK    7  A    between atoms: N_23  and  C_24
REMARK                            x       y       z     vdW  Elec       q    Type
REMARK                         _______ _______ _______ _____ _____    ______ ____
ROOT
ATOM      1  C   UNL     1       5.709  -4.596  24.860  0.00  0.00    -0.014 A 
ATOM      2  C   UNL     1       6.174  -5.447  25.907  0.00  0.00    -0.043 A 
ATOM      3  C   UNL     1       7.527  -5.345  26.567  0.00  0.00    +0.044 C 
ATOM      4  C   UNL     1       5.344  -6.467  26.425  0.00  0.00    +0.005 A 
ATOM      5  C   UNL     1       4.096  -6.729  25.881  0.00  0.00    +0.013 A 
ATOM      6  C   UNL     1       3.623  -5.951  24.833  0.00  0.00    +0.037 A 
ATOM      7  C   UNL     1       4.406  -4.878  24.359  0.00  0.00    +0.021 A 
ENDROOT
BRANCH   1  12
ATOM      8  C   UNL     1       7.949  -1.127  23.316  0.00  0.00    +0.039 A 
ATOM      9  C   UNL     1       7.915  -2.328  22.602  0.00  0.00    +0.017 A 
ATOM     10  C   UNL     1       7.265  -3.490  23.094  0.00  0.00    -0.042 A 
ATOM     11  C   UNL     1       7.464  -4.727  22.256  0.00  0.00    +0.044 C 
ATOM     12  C   UNL     1       6.503  -3.440  24.293  0.00  0.00    -0.015 A 
ATOM     13  C   UNL     1       6.502  -2.190  24.957  0.00  0.00    +0.009 A 
ATOM     14  C   UNL     1       7.239  -1.076  24.511  0.00  0.00    +0.014 A 
BRANCH   8  18
ATOM     15  C   UNL     1      10.683   2.837  23.544  0.00  0.00    +0.111 C 
ATOM     16  C   UNL     1       9.958   1.730  22.902  0.00  0.00    +0.215 A 
ATOM     17  O   UNL     1       9.248   0.887  23.715  0.00  0.00    -0.421 OA
ATOM     18  C   UNL     1       8.738  -0.009  22.806  0.00  0.00    +0.248 A 
ATOM     19  N   UNL     1       9.099   0.272  21.568  0.00  0.00    -0.107 NA
ATOM     20  N   UNL     1       9.887   1.403  21.631  0.00  0.00    -0.112 NA
ENDBRANCH   8  18
ENDBRANCH   1  12
BRANCH   6  21
ATOM     21  C   UNL     1       2.312  -6.352  24.241  0.00  0.00    +0.244 C 
ATOM     22  N   UNL     1       2.335  -7.000  23.024  0.00  0.00    -0.308 N 
ATOM     23  H   UNL     1       3.209  -7.107  22.523  0.00  0.00    +0.149 HD
ATOM     24  O   UNL     1       1.270  -6.073  24.836  0.00  0.00    -0.270 OA
BRANCH  22  25
ATOM     25  C   UNL     1       1.120  -7.334  22.350  0.00  0.00    +0.073 C 
ATOM     26  C   UNL     1       0.461  -8.670  22.538  0.00  0.00    +0.024 C 
ATOM     27  C   UNL     1       1.124  -8.343  21.233  0.00  0.00    +0.024 C 
ENDBRANCH  22  25
ENDBRANCH   6  21
TORSDOF 4
ENDMDL
MODEL 7
REMARK VINA RESULT:      -6.7      2.562      8.808
REMARK  Name = 
REMARK  7 active torsions:
REMARK  status: ('A' for Active; 'I' for Inactive)
REMARK    1  A    between atoms: C_1  and  C_2
REMARK    2  A    between atoms: C_5  and  C_7
REMARK    3  A    between atoms: C_10  and  C_14
REMARK    4  A    between atoms: C_11  and  C_12
REMARK    5  A    between atoms: C_16  and  C_21
REMARK    6  A    between atoms: C_19  and  C_20
REMARK    7  A    between atoms: N_23  and  C_24
REMARK                            x       y       z     vdW  Elec       q    Type
REMARK                         _______ _______ _______ _____ _____    ______ ____
ROOT
ATOM      1  C   UNL     1       8.179  -1.988  24.394  0.00  0.00    -0.014 A 
ATOM      2  C   UNL     1       8.074  -2.893  23.296  0.00  0.00    -0.043 A 
ATOM      3  C   UNL     1       8.405  -2.555  21.862  0.00  0.00    +0.044 C 
ATOM      4  C   UNL     1       7.655  -4.227  23.503  0.00  0.00    +0.005 A 
ATOM      5  C   UNL     1       7.255  -4.674  24.752  0.00  0.00    +0.013 A 
ATOM      6  C   UNL     1       7.303  -3.813  25.841  0.00  0.00    +0.037 A 
ATOM      7  C   UNL     1       7.794  -2.502  25.665  0.00  0.00    +0.021 A 
ENDROOT
BRANCH   1  12
ATOM      8  C   UNL     1       9.789   2.105  24.097  0.00  0.00    +0.039 A 
ATOM      9  C   UNL     1       8.412   1.875  24.043  0.00  0.00    +0.017 A 
ATOM     10  C   UNL     1       7.854   0.571  24.064  0.00  0.00    -0.042 A 
ATOM     11  C   UNL     1       6.363   0.518  23.845  0.00  0.00    +0.044 C 
ATOM     12  C   UNL     1       8.681  -0.566  24.274  0.00  0.00    -0.015 A 
ATOM     13  C   UNL     1      10.065  -0.293  24.393  0.00  0.00    +0.009 A 
ATOM     14  C   UNL     1      10.613   0.998  24.263  0.00  0.00    +0.014 A 
BRANCH   8  18
ATOM     15  C   UNL     1      12.929   5.554  22.877  0.00  0.00    +0.111 C 
ATOM     16  C   UNL     1      11.673   4.991  23.396  0.00  0.00    +0.215 A 
ATOM     17  O   UNL     1      11.570   3.627  23.452  0.00  0.00    -0.421 OA
ATOM     18  C   UNL     1      10.299   3.465  23.948  0.00  0.00    +0.248 A 
ATOM     19  N   UNL     1       9.698   4.619  24.174  0.00  0.00    -0.107 NA
ATOM     20  N   UNL     1      10.593   5.609  23.820  0.00  0.00    -0.112 NA
ENDBRANCH   8  18
ENDBRANCH   1  12
BRANCH   6  21
ATOM     21  C   UNL     1       6.769  -4.337  27.132  0.00  0.00    +0.244 C 
ATOM     22  N   UNL     1       5.558  -3.844  27.568  0.00  0.00    -0.308 N 
ATOM     23  H   UNL     1       5.109  -3.087  27.066  0.00  0.00    +0.149 HD
ATOM     24  O   UNL     1       7.429  -5.160  27.768  0.00  0.00    -0.270 OA
BRANCH  22  25
ATOM     25  C   UNL     1       5.025  -4.227  28.838  0.00  0.00    +0.073 C 
ATOM     26  C   UNL     1       4.295  -5.528  29.021  0.00  0.00    +0.024 C 
ATOM     27  C   UNL     1       3.537  -4.234  29.066  0.00  0.00    +0.024 C 
ENDBRANCH  22  25
ENDBRANCH   6  21
TORSDOF 4
ENDMDL
MODEL 8
REMARK VINA RESULT:      -6.6      1.959      2.511
REMARK  Name = 
REMARK  7 active torsions:
REMARK  status: ('A' for Active; 'I' for Inactive)
REMARK    1  A    between atoms: C_1  and  C_2
REMARK    2  A    between atoms: C_5  and  C_7
REMARK    3  A    between atoms: C_10  and  C_14
REMARK    4  A    between atoms: C_11  and  C_12
REMARK    5  A    between atoms: C_16  and  C_21
REMARK    6  A    between atoms: C_19  and  C_20
REMARK    7  A    between atoms: N_23  and  C_24
REMARK                            x       y       z     vdW  Elec       q    Type
REMARK                         _______ _______ _______ _____ _____    ______ ____
ROOT
ATOM      1  C   UNL     1       7.968  -0.420  23.085  0.00  0.00    -0.014 A 
ATOM      2  C   UNL     1       9.264  -0.383  22.489  0.00  0.00    -0.043 A 
ATOM      3  C   UNL     1      10.244  -1.531  22.481  0.00  0.00    +0.044 C 
ATOM      4  C   UNL     1       9.715   0.779  21.823  0.00  0.00    +0.005 A 
ATOM      5  C   UNL     1       8.956   1.939  21.799  0.00  0.00    +0.013 A 
ATOM      6  C   UNL     1       7.706   1.958  22.403  0.00  0.00    +0.037 A 
ATOM      7  C   UNL     1       7.209   0.783  23.003  0.00  0.00    +0.021 A 
ENDROOT
BRANCH   1  12
ATOM      8  C   UNL     1       6.158  -3.997  24.918  0.00  0.00    +0.039 A 
ATOM      9  C   UNL     1       6.930  -3.119  25.682  0.00  0.00    +0.017 A 
ATOM     10  C   UNL     1       7.589  -1.995  25.120  0.00  0.00    -0.042 A 
ATOM     11  C   UNL     1       8.495  -1.254  26.069  0.00  0.00    +0.044 C 
ATOM     12  C   UNL     1       7.380  -1.640  23.759  0.00  0.00    -0.015 A 
ATOM     13  C   UNL     1       6.537  -2.512  23.030  0.00  0.00    +0.009 A 
ATOM     14  C   UNL     1       5.977  -3.683  23.575  0.00  0.00    +0.014 A 
BRANCH   8  18
ATOM     15  C   UNL     1       2.990  -7.557  25.651  0.00  0.00    +0.111 C 
ATOM     16  C   UNL     1       4.224  -6.782  25.854  0.00  0.00    +0.215 A 
ATOM     17  O   UNL     1       4.373  -5.634  25.122  0.00  0.00    -0.421 OA
ATOM     18  C   UNL     1       5.609  -5.200  25.538  0.00  0.00    +0.248 A 
ATOM     19  N   UNL     1       6.147  -6.004  26.437  0.00  0.00    -0.107 NA
ATOM     20  N   UNL     1       5.245  -7.028  26.645  0.00  0.00    -0.112 NA
ENDBRANCH   8  18
ENDBRANCH   1  12
BRANCH   6  21
ATOM     21  C   UNL     1       6.990   3.268  22.416  0.00  0.00    +0.244 C 
ATOM     22  N   UNL     1       5.693   3.280  22.884  0.00  0.00    -0.308 N 
ATOM     23  H   UNL     1       5.230   2.409  23.116  0.00  0.00    +0.149 HD
ATOM     24  O   UNL     1       7.563   4.274  21.993  0.00  0.00    -0.270 OA
BRANCH  22  25
ATOM     25  C   UNL     1       4.911   4.476  22.842  0.00  0.00    +0.073 C 
ATOM     26  C   UNL     1       4.853   5.415  24.013  0.00  0.00    +0.024 C 
ATOM     27  C   UNL     1       3.652   4.588  23.661  0.00  0.00    +0.024 C 
ENDBRANCH  22  25
ENDBRANCH   6  21
TORSDOF 4
ENDMDL
MODEL 9
REMARK VINA RESULT:      -6.6      3.503      8.803
REMARK  Name = 
REMARK  7 active torsions:
REMARK  status: ('A' for Active; 'I' for Inactive)
REMARK    1  A    between atoms: C_1  and  C_2
REMARK    2  A    between atoms: C_5  and  C_7
REMARK    3  A    between atoms: C_10  and  C_14
REMARK    4  A    between atoms: C_11  and  C_12
REMARK    5  A    between atoms: C_16  and  C_21
REMARK    6  A    between atoms: C_19  and  C_20
REMARK    7  A    between atoms: N_23  and  C_24
REMARK                            x       y       z     vdW  Elec       q    Type
REMARK                         _______ _______ _______ _____ _____    ______ ____
ROOT
ATOM      1  C   UNL     1       6.416  -0.260  25.104  0.00  0.00    -0.014 A 
ATOM      2  C   UNL     1       5.667  -0.352  26.315  0.00  0.00    -0.043 A 
ATOM      3  C   UNL     1       5.770   0.613  27.471  0.00  0.00    +0.044 C 
ATOM      4  C   UNL     1       4.726  -1.391  26.500  0.00  0.00    +0.005 A 
ATOM      5  C   UNL     1       4.561  -2.393  25.556  0.00  0.00    +0.013 A 
ATOM      6  C   UNL     1       5.301  -2.363  24.381  0.00  0.00    +0.037 A 
ATOM      7  C   UNL     1       6.186  -1.289  24.148  0.00  0.00    +0.021 A 
ENDROOT
BRANCH   1  12
ATOM      8  C   UNL     1       9.142   3.065  24.131  0.00  0.00    +0.039 A 
ATOM      9  C   UNL     1       9.644   1.839  24.572  0.00  0.00    +0.017 A 
ATOM     10  C   UNL     1       8.802   0.765  24.962  0.00  0.00    -0.042 A 
ATOM     11  C   UNL     1       9.523  -0.421  25.550  0.00  0.00    +0.044 C 
ATOM     12  C   UNL     1       7.393   0.854  24.796  0.00  0.00    -0.015 A 
ATOM     13  C   UNL     1       6.921   2.086  24.283  0.00  0.00    +0.009 A 
ATOM     14  C   UNL     1       7.762   3.179  24.000  0.00  0.00    +0.014 A 
BRANCH   8  18
ATOM     15  C   UNL     1      13.283   5.164  22.830  0.00  0.00    +0.111 C 
ATOM     16  C   UNL     1      11.882   5.097  23.272  0.00  0.00    +0.215 A 
ATOM     17  O   UNL     1      11.351   3.854  23.497  0.00  0.00    -0.421 OA
ATOM     18  C   UNL     1      10.063   4.166  23.861  0.00  0.00    +0.248 A 
ATOM     19  N   UNL     1       9.843   5.468  23.862  0.00  0.00    -0.107 NA
ATOM     20  N   UNL     1      11.026   6.071  23.484  0.00  0.00    -0.112 NA
ENDBRANCH   8  18
ENDBRANCH   1  12
BRANCH   6  21
ATOM     21  C   UNL     1       5.136  -3.523  23.457  0.00  0.00    +0.244 C 
ATOM     22  N   UNL     1       6.235  -3.913  22.722  0.00  0.00    -0.308 N 
ATOM     23  H   UNL     1       7.085  -3.362  22.751  0.00  0.00    +0.149 HD
ATOM     24  O   UNL     1       4.036  -4.070  23.365  0.00  0.00    -0.270 OA
BRANCH  22  25
ATOM     25  C   UNL     1       6.134  -4.956  21.749  0.00  0.00    +0.073 C 
ATOM     26  C   UNL     1       6.054  -6.400  22.154  0.00  0.00    +0.024 C 
ATOM     27  C   UNL     1       7.298  -5.876  21.498  0.00  0.00    +0.024 C 
ENDBRANCH  22  25
ENDBRANCH   6  21
TORSDOF 4
ENDMDL
