MODEL 1
REMARK VINA RESULT:     -11.5      0.000      0.000
REMARK  Name = 
REMARK  14 active torsions:
REMARK  status: ('A' for Active; 'I' for Inactive)
REMARK    1  A    between atoms: C_1  and  C_2
REMARK    2  A    between atoms: C_2  and  C_3
REMARK    3  A    between atoms: C_2  and  C_4
REMARK    4  A    between atoms: C_4  and  C_5
REMARK    5  A    between atoms: C_5  and  N_6
REMARK    6  A    between atoms: N_6  and  C_7
REMARK    7  A    between atoms: N_6  and  S_35
REMARK    8  A    between atoms: C_7  and  C_8
REMARK    9  A    between atoms: C_8  and  O_10
REMARK   10  A    between atoms: C_8  and  C_11
REMARK   11  A    between atoms: C_25  and  C_27
REMARK   12  A    between atoms: C_27  and  C_28
REMARK   13  A    between atoms: C_27  and  C_29
REMARK   14  A    between atoms: S_35  and  C_38
REMARK                            x       y       z     vdW  Elec       q    Type
REMARK                         _______ _______ _______ _____ _____    ______ ____
ROOT
ATOM      1  C   UNL     1       7.574   0.292  22.487  0.00  0.00    +0.107 C 
ATOM      2  N   UNL     1       6.329  -0.921  23.409  0.00  0.00    -0.308 N 
ATOM      3  H   UNL     1       5.621  -0.727  22.702  0.00  0.00    +0.149 HD
ATOM      4  C   UNL     1       5.650  -2.458  23.681  0.00  0.00    +0.234 C 
ATOM      5  O   UNL     1       5.431  -3.057  22.617  0.00  0.00    -0.274 OA
ATOM      6  C   UNL     1       4.994  -3.610  25.214  0.00  0.00    +0.161 C 
ATOM      7  N   UNL     1       5.828  -5.010  25.157  0.00  0.00    -0.304 N 
ATOM      8  H   UNL     1       5.164  -5.722  24.908  0.00  0.00    +0.149 HD
ATOM      9  C   UNL     1       6.436  -5.666  26.262  0.00  0.00    +0.214 C 
ATOM     10  O   UNL     1       5.905  -6.330  27.093  0.00  0.00    -0.276 OA
ATOM     11  C   UNL     1       7.890  -5.412  26.165  0.00  0.00    +0.099 C 
ATOM     12  C   UNL     1       7.983  -3.996  26.646  0.00  0.00    +0.050 C 
ATOM     13  C   UNL     1       8.430  -3.312  25.422  0.00  0.00    +0.229 C 
ATOM     14  O   UNL     1       8.491  -1.935  25.640  0.00  0.00    -0.492 OA
ATOM     15  C   UNL     1       9.352  -1.444  24.712  0.00  0.00    +0.121 A 
ATOM     16  C   UNL     1       9.849  -2.188  23.601  0.00  0.00    +0.046 A 
ATOM     17  C   UNL     1      10.588  -1.579  22.651  0.00  0.00    +0.007 A 
ATOM     18  C   UNL     1      10.198  -0.270  22.581  0.00  0.00    -0.045 A 
ATOM     19  C   UNL     1      10.179   0.514  23.750  0.00  0.00    +0.007 A 
ATOM     20  C   UNL     1       9.622  -0.101  24.848  0.00  0.00    +0.046 A 
ATOM     21  C   UNL     1       8.881  -0.235  21.731  0.00  0.00    +0.060 C 
ENDROOT
BRANCH   6  22
ATOM     22  C   UNL     1       3.502  -4.580  25.923  0.00  0.00    +0.012 C 
ATOM     23  C   UNL     1       2.927  -4.240  27.387  0.00  0.00    +0.009 C 
ATOM     24  C   UNL     1       2.378  -5.639  25.437  0.00  0.00    +0.009 C 
ENDBRANCH   6  22
BRANCH   1  25
ATOM     25  C   UNL     1       7.740   2.049  21.638  0.00  0.00    +0.151 C 
BRANCH  25  26
ATOM     26  O   UNL     1       9.156   2.216  21.339  0.00  0.00    -0.389 OA
ATOM     27  H   UNL     1       9.476   3.020  21.796  0.00  0.00    +0.210 HD
ENDBRANCH  25  26
BRANCH  25  28
ATOM     28  C   UNL     1       7.358   3.787  22.378  0.00  0.00    +0.142 C 
BRANCH  28  29
ATOM     29  N   UNL     1       8.537   4.869  23.361  0.00  0.00    -0.174 NA
BRANCH  29  30
ATOM     30  S   UNL     1       7.692   5.278  25.077  0.00  0.00    +0.061 S 
ATOM     31  O   UNL     1       6.694   6.291  24.808  0.00  0.00    -0.153 OA
ATOM     32  O   UNL     1       8.762   5.459  26.005  0.00  0.00    -0.153 OA
BRANCH  30  33
ATOM     33  C   UNL     1       6.763   3.722  25.563  0.00  0.00    +0.105 A 
ATOM     34  C   UNL     1       7.404   2.534  25.997  0.00  0.00    +0.028 A 
ATOM     35  C   UNL     1       6.656   1.345  26.215  0.00  0.00    +0.002 A 
ATOM     36  C   UNL     1       5.273   1.336  26.004  0.00  0.00    +0.000 A 
ATOM     37  C   UNL     1       4.647   2.512  25.585  0.00  0.00    +0.002 A 
ATOM     38  C   UNL     1       5.389   3.678  25.370  0.00  0.00    +0.028 A 
ENDBRANCH  30  33
ENDBRANCH  29  30
BRANCH  29  39
ATOM     39  C   UNL     1      10.071   4.291  24.083  0.00  0.00    +0.110 C 
BRANCH  39  40
ATOM     40  C   UNL     1      11.460   4.005  23.406  0.00  0.00    +0.020 C 
BRANCH  40  42
ATOM     41  C   UNL     1      13.093   5.620  22.146  0.00  0.00    +0.007 C 
ATOM     42  C   UNL     1      12.678   5.117  23.555  0.00  0.00    -0.016 C 
ATOM     43  C   UNL     1      12.481   6.411  24.390  0.00  0.00    +0.007 C 
ENDBRANCH  40  42
ENDBRANCH  39  40
ENDBRANCH  29  39
ENDBRANCH  28  29
ENDBRANCH  25  28
ENDBRANCH   1  25
TORSDOF 10
ENDMDL
MODEL 2
REMARK VINA RESULT:     -11.1      2.757      9.092
REMARK  Name = 
REMARK  14 active torsions:
REMARK  status: ('A' for Active; 'I' for Inactive)
REMARK    1  A    between atoms: C_1  and  C_2
REMARK    2  A    between atoms: C_2  and  C_3
REMARK    3  A    between atoms: C_2  and  C_4
REMARK    4  A    between atoms: C_4  and  C_5
REMARK    5  A    between atoms: C_5  and  N_6
REMARK    6  A    between atoms: N_6  and  C_7
REMARK    7  A    between atoms: N_6  and  S_35
REMARK    8  A    between atoms: C_7  and  C_8
REMARK    9  A    between atoms: C_8  and  O_10
REMARK   10  A    between atoms: C_8  and  C_11
REMARK   11  A    between atoms: C_25  and  C_27
REMARK   12  A    between atoms: C_27  and  C_28
REMARK   13  A    between atoms: C_27  and  C_29
REMARK   14  A    between atoms: S_35  and  C_38
REMARK                            x       y       z     vdW  Elec       q    Type
REMARK                         _______ _______ _______ _____ _____    ______ ____
ROOT
ATOM      1  C   UNL     1       9.066  -1.443  25.218  0.00  0.00    +0.107 C 
ATOM      2  N   UNL     1      10.004   0.206  24.697  0.00  0.00    -0.308 N 
ATOM      3  H   UNL     1      10.669  -0.346  24.157  0.00  0.00    +0.149 HD
ATOM      4  C   UNL     1      10.251   1.533  23.660  0.00  0.00    +0.234 C 
ATOM      5  O   UNL     1      10.193   1.199  22.467  0.00  0.00    -0.274 OA
ATOM      6  C   UNL     1      10.700   3.507  23.754  0.00  0.00    +0.161 C 
ATOM      7  N   UNL     1       9.508   4.310  22.985  0.00  0.00    -0.304 N 
ATOM      8  H   UNL     1       9.921   4.698  22.155  0.00  0.00    +0.149 HD
ATOM      9  C   UNL     1       8.847   5.477  23.457  0.00  0.00    +0.214 C 
ATOM     10  O   UNL     1       9.247   6.597  23.435  0.00  0.00    -0.276 OA
ATOM     11  C   UNL     1       7.518   5.050  23.949  0.00  0.00    +0.099 C 
ATOM     12  C   UNL     1       7.869   4.423  25.264  0.00  0.00    +0.050 C 
ATOM     13  C   UNL     1       7.518   3.017  25.009  0.00  0.00    +0.229 C 
ATOM     14  O   UNL     1       7.864   2.232  26.109  0.00  0.00    -0.492 OA
ATOM     15  C   UNL     1       7.091   1.118  26.034  0.00  0.00    +0.121 A 
ATOM     16  C   UNL     1       6.304   0.758  24.901  0.00  0.00    +0.046 A 
ATOM     17  C   UNL     1       5.678  -0.437  24.859  0.00  0.00    +0.007 A 
ATOM     18  C   UNL     1       6.410  -1.327  25.597  0.00  0.00    -0.045 A 
ATOM     19  C   UNL     1       6.756  -1.013  26.925  0.00  0.00    +0.007 A 
ATOM     20  C   UNL     1       7.220   0.270  27.112  0.00  0.00    +0.046 A 
ATOM     21  C   UNL     1       7.599  -1.797  24.689  0.00  0.00    +0.060 C 
ENDROOT
BRANCH   6  22
ATOM     22  C   UNL     1      11.923   4.868  23.186  0.00  0.00    +0.012 C 
ATOM     23  C   UNL     1      12.443   5.983  24.221  0.00  0.00    +0.009 C 
ATOM     24  C   UNL     1      12.855   5.233  21.913  0.00  0.00    +0.009 C 
ENDBRANCH   6  22
BRANCH   1  25
ATOM     25  C   UNL     1       9.316  -3.271  25.874  0.00  0.00    +0.151 C 
BRANCH  25  26
ATOM     26  O   UNL     1       9.718  -4.059  24.717  0.00  0.00    -0.389 OA
ATOM     27  H   UNL     1       9.958  -4.958  25.023  0.00  0.00    +0.210 HD
ENDBRANCH  25  26
BRANCH  25  28
ATOM     28  C   UNL     1       8.015  -4.466  26.645  0.00  0.00    +0.142 C 
BRANCH  28  29
ATOM     29  N   UNL     1       7.089  -5.837  25.755  0.00  0.00    -0.174 NA
BRANCH  29  30
ATOM     30  S   UNL     1       5.460  -6.220  26.767  0.00  0.00    +0.061 S 
ATOM     31  O   UNL     1       5.889  -6.710  28.060  0.00  0.00    -0.153 OA
ATOM     32  O   UNL     1       4.620  -6.966  25.886  0.00  0.00    -0.153 OA
BRANCH  30  33
ATOM     33  C   UNL     1       4.650  -4.554  27.064  0.00  0.00    +0.105 A 
ATOM     34  C   UNL     1       4.697  -3.874  28.308  0.00  0.00    +0.028 A 
ATOM     35  C   UNL     1       3.947  -2.684  28.513  0.00  0.00    +0.002 A 
ATOM     36  C   UNL     1       3.151  -2.170  27.483  0.00  0.00    +0.000 A 
ATOM     37  C   UNL     1       3.115  -2.840  26.258  0.00  0.00    +0.002 A 
ATOM     38  C   UNL     1       3.855  -4.011  26.064  0.00  0.00    +0.028 A 
ENDBRANCH  30  33
ENDBRANCH  29  30
BRANCH  29  39
ATOM     39  C   UNL     1       6.248  -5.632  24.187  0.00  0.00    +0.110 C 
BRANCH  39  40
ATOM     40  C   UNL     1       6.836  -5.502  22.735  0.00  0.00    +0.020 C 
BRANCH  40  42
ATOM     41  C   UNL     1       5.318  -3.393  22.411  0.00  0.00    +0.007 C 
ATOM     42  C   UNL     1       6.596  -4.101  21.886  0.00  0.00    -0.016 C 
ATOM     43  C   UNL     1       7.677  -2.987  21.860  0.00  0.00    +0.007 C 
ENDBRANCH  40  42
ENDBRANCH  39  40
ENDBRANCH  29  39
ENDBRANCH  28  29
ENDBRANCH  25  28
ENDBRANCH   1  25
TORSDOF 10
ENDMDL
MODEL 3
REMARK VINA RESULT:     -11.0      2.964      8.331
REMARK  Name = 
REMARK  14 active torsions:
REMARK  status: ('A' for Active; 'I' for Inactive)
REMARK    1  A    between atoms: C_1  and  C_2
REMARK    2  A    between atoms: C_2  and  C_3
REMARK    3  A    between atoms: C_2  and  C_4
REMARK    4  A    between atoms: C_4  and  C_5
REMARK    5  A    between atoms: C_5  and  N_6
REMARK    6  A    between atoms: N_6  and  C_7
REMARK    7  A    between atoms: N_6  and  S_35
REMARK    8  A    between atoms: C_7  and  C_8
REMARK    9  A    between atoms: C_8  and  O_10
REMARK   10  A    between atoms: C_8  and  C_11
REMARK   11  A    between atoms: C_25  and  C_27
REMARK   12  A    between atoms: C_27  and  C_28
REMARK   13  A    between atoms: C_27  and  C_29
REMARK   14  A    between atoms: S_35  and  C_38
REMARK                            x       y       z     vdW  Elec       q    Type
REMARK                         _______ _______ _______ _____ _____    ______ ____
ROOT
ATOM      1  C   UNL     1       8.275  -1.161  24.852  0.00  0.00    +0.107 C 
ATOM      2  N   UNL     1       6.653  -0.068  24.644  0.00  0.00    -0.308 N 
ATOM      3  H   UNL     1       6.245  -0.522  25.460  0.00  0.00    +0.149 HD
ATOM      4  C   UNL     1       5.730   1.329  24.950  0.00  0.00    +0.234 C 
ATOM      5  O   UNL     1       5.796   1.670  26.141  0.00  0.00    -0.274 OA
ATOM      6  C   UNL     1       4.467   2.590  23.990  0.00  0.00    +0.161 C 
ATOM      7  N   UNL     1       5.086   4.092  24.128  0.00  0.00    -0.304 N 
ATOM      8  H   UNL     1       4.454   4.602  24.720  0.00  0.00    +0.149 HD
ATOM      9  C   UNL     1       5.210   5.045  23.081  0.00  0.00    +0.214 C 
ATOM     10  O   UNL     1       4.356   5.732  22.620  0.00  0.00    -0.276 OA
ATOM     11  C   UNL     1       6.636   5.068  22.687  0.00  0.00    +0.099 C 
ATOM     12  C   UNL     1       6.748   3.808  21.881  0.00  0.00    +0.050 C 
ATOM     13  C   UNL     1       7.655   3.014  22.726  0.00  0.00    +0.229 C 
ATOM     14  O   UNL     1       7.817   1.739  22.183  0.00  0.00    -0.492 OA
ATOM     15  C   UNL     1       8.990   1.266  22.678  0.00  0.00    +0.121 A 
ATOM     16  C   UNL     1       9.723   1.878  23.737  0.00  0.00    +0.046 A 
ATOM     17  C   UNL     1      10.804   1.262  24.260  0.00  0.00    +0.007 A 
ATOM     18  C   UNL     1      10.629  -0.088  24.132  0.00  0.00    -0.045 A 
ATOM     19  C   UNL     1      10.331  -0.635  22.869  0.00  0.00    +0.007 A 
ATOM     20  C   UNL     1       9.371   0.049  22.157  0.00  0.00    +0.046 A 
ATOM     21  C   UNL     1       9.678  -0.534  25.295  0.00  0.00    +0.060 C 
ENDROOT
BRANCH   6  22
ATOM     22  C   UNL     1       2.713   3.362  23.995  0.00  0.00    +0.012 C 
ATOM     23  C   UNL     1       1.783   3.287  22.684  0.00  0.00    +0.009 C 
ATOM     24  C   UNL     1       1.648   3.995  25.038  0.00  0.00    +0.009 C 
ENDBRANCH   6  22
BRANCH   1  25
ATOM     25  C   UNL     1       8.934  -2.976  25.178  0.00  0.00    +0.151 C 
BRANCH  25  26
ATOM     26  O   UNL     1       8.700  -3.714  23.944  0.00  0.00    -0.389 OA
ATOM     27  H   UNL     1       7.858  -4.206  24.034  0.00  0.00    +0.210 HD
ENDBRANCH  25  26
BRANCH  25  28
ATOM     28  C   UNL     1       8.309  -4.275  26.457  0.00  0.00    +0.142 C 
BRANCH  28  29
ATOM     29  N   UNL     1       7.140  -5.705  26.120  0.00  0.00    -0.174 NA
BRANCH  29  30
ATOM     30  S   UNL     1       5.893  -5.833  27.621  0.00  0.00    +0.061 S 
ATOM     31  O   UNL     1       6.662  -5.552  28.814  0.00  0.00    -0.153 OA
ATOM     32  O   UNL     1       5.168  -7.047  27.423  0.00  0.00    -0.153 OA
BRANCH  30  33
ATOM     33  C   UNL     1       4.697  -4.404  27.402  0.00  0.00    +0.105 A 
ATOM     34  C   UNL     1       3.327  -4.576  27.079  0.00  0.00    +0.028 A 
ATOM     35  C   UNL     1       2.504  -3.454  26.788  0.00  0.00    +0.002 A 
ATOM     36  C   UNL     1       3.042  -2.162  26.819  0.00  0.00    +0.000 A 
ATOM     37  C   UNL     1       4.389  -1.999  27.146  0.00  0.00    +0.002 A 
ATOM     38  C   UNL     1       5.194  -3.109  27.429  0.00  0.00    +0.028 A 
ENDBRANCH  30  33
ENDBRANCH  29  30
BRANCH  29  39
ATOM     39  C   UNL     1       5.863  -5.689  24.864  0.00  0.00    +0.110 C 
BRANCH  39  40
ATOM     40  C   UNL     1       5.406  -4.530  23.905  0.00  0.00    +0.020 C 
BRANCH  40  42
ATOM     41  C   UNL     1       6.113  -3.290  21.709  0.00  0.00    +0.007 C 
ATOM     42  C   UNL     1       5.683  -4.668  22.278  0.00  0.00    -0.016 C 
ATOM     43  C   UNL     1       6.739  -5.665  21.729  0.00  0.00    +0.007 C 
ENDBRANCH  40  42
ENDBRANCH  39  40
ENDBRANCH  29  39
ENDBRANCH  28  29
ENDBRANCH  25  28
ENDBRANCH   1  25
TORSDOF 10
ENDMDL
MODEL 4
REMARK VINA RESULT:     -11.0      2.717      8.437
REMARK  Name = 
REMARK  14 active torsions:
REMARK  status: ('A' for Active; 'I' for Inactive)
REMARK    1  A    between atoms: C_1  and  C_2
REMARK    2  A    between atoms: C_2  and  C_3
REMARK    3  A    between atoms: C_2  and  C_4
REMARK    4  A    between atoms: C_4  and  C_5
REMARK    5  A    between atoms: C_5  and  N_6
REMARK    6  A    between atoms: N_6  and  C_7
REMARK    7  A    between atoms: N_6  and  S_35
REMARK    8  A    between atoms: C_7  and  C_8
REMARK    9  A    between atoms: C_8  and  O_10
REMARK   10  A    between atoms: C_8  and  C_11
REMARK   11  A    between atoms: C_25  and  C_27
REMARK   12  A    between atoms: C_27  and  C_28
REMARK   13  A    between atoms: C_27  and  C_29
REMARK   14  A    between atoms: S_35  and  C_38
REMARK                            x       y       z     vdW  Elec       q    Type
REMARK                         _______ _______ _______ _____ _____    ______ ____
ROOT
ATOM      1  C   UNL     1       6.653  -1.253  23.123  0.00  0.00    +0.107 C 
ATOM      2  N   UNL     1       6.097   0.632  23.218  0.00  0.00    -0.308 N 
ATOM      3  H   UNL     1       5.176   0.342  23.545  0.00  0.00    +0.149 HD
ATOM      4  C   UNL     1       5.931   2.113  24.041  0.00  0.00    +0.234 C 
ATOM      5  O   UNL     1       5.538   1.947  25.206  0.00  0.00    -0.274 OA
ATOM      6  C   UNL     1       6.095   4.102  23.694  0.00  0.00    +0.161 C 
ATOM      7  N   UNL     1       7.179   4.691  24.760  0.00  0.00    -0.304 N 
ATOM      8  H   UNL     1       6.663   5.282  25.388  0.00  0.00    +0.149 HD
ATOM      9  C   UNL     1       8.246   5.582  24.461  0.00  0.00    +0.214 C 
ATOM     10  O   UNL     1       8.183   6.757  24.288  0.00  0.00    -0.276 OA
ATOM     11  C   UNL     1       9.487   4.778  24.451  0.00  0.00    +0.099 C 
ATOM     12  C   UNL     1       9.383   4.076  23.131  0.00  0.00    +0.050 C 
ATOM     13  C   UNL     1       9.239   2.677  23.566  0.00  0.00    +0.229 C 
ATOM     14  O   UNL     1       9.031   1.852  22.460  0.00  0.00    -0.492 OA
ATOM     15  C   UNL     1       9.409   0.605  22.844  0.00  0.00    +0.121 A 
ATOM     16  C   UNL     1       9.692   0.229  24.190  0.00  0.00    +0.046 A 
ATOM     17  C   UNL     1       9.921  -1.065  24.500  0.00  0.00    +0.007 A 
ATOM     18  C   UNL     1       9.225  -1.844  23.618  0.00  0.00    -0.045 A 
ATOM     19  C   UNL     1       9.389  -1.647  22.234  0.00  0.00    +0.007 A 
ATOM     20  C   UNL     1       9.375  -0.329  21.834  0.00  0.00    +0.046 A 
ATOM     21  C   UNL     1       7.739  -1.876  24.117  0.00  0.00    +0.060 C 
ENDROOT
BRANCH   6  22
ATOM     22  C   UNL     1       5.185   5.788  23.758  0.00  0.00    +0.012 C 
ATOM     23  C   UNL     1       5.015   6.675  22.427  0.00  0.00    +0.009 C 
ATOM     24  C   UNL     1       4.274   6.659  24.774  0.00  0.00    +0.009 C 
ENDBRANCH   6  22
BRANCH   1  25
ATOM     25  C   UNL     1       6.112  -3.038  22.527  0.00  0.00    +0.151 C 
BRANCH  25  26
ATOM     26  O   UNL     1       5.755  -2.899  21.122  0.00  0.00    -0.389 OA
ATOM     27  H   UNL     1       5.286  -3.711  20.841  0.00  0.00    +0.210 HD
ENDBRANCH  25  26
BRANCH  25  28
ATOM     28  C   UNL     1       4.633  -4.116  23.133  0.00  0.00    +0.142 C 
BRANCH  28  29
ATOM     29  N   UNL     1       4.038  -4.305  24.905  0.00  0.00    -0.174 NA
BRANCH  29  30
ATOM     30  S   UNL     1       5.029  -5.782  25.719  0.00  0.00    +0.061 S 
ATOM     31  O   UNL     1       4.837  -6.927  24.855  0.00  0.00    -0.153 OA
ATOM     32  O   UNL     1       4.672  -5.775  27.102  0.00  0.00    -0.153 OA
BRANCH  30  33
ATOM     33  C   UNL     1       6.839  -5.305  25.587  0.00  0.00    +0.105 A 
ATOM     34  C   UNL     1       7.647  -5.613  24.463  0.00  0.00    +0.028 A 
ATOM     35  C   UNL     1       9.044  -5.351  24.481  0.00  0.00    +0.002 A 
ATOM     36  C   UNL     1       9.638  -4.783  25.614  0.00  0.00    +0.000 A 
ATOM     37  C   UNL     1       8.835  -4.474  26.714  0.00  0.00    +0.002 A 
ATOM     38  C   UNL     1       7.461  -4.736  26.690  0.00  0.00    +0.028 A 
ENDBRANCH  30  33
ENDBRANCH  29  30
BRANCH  29  39
ATOM     39  C   UNL     1       4.397  -3.141  26.218  0.00  0.00    +0.110 C 
BRANCH  39  40
ATOM     40  C   UNL     1       4.810  -1.626  26.139  0.00  0.00    +0.020 C 
BRANCH  40  42
ATOM     41  C   UNL     1       6.888  -0.393  27.150  0.00  0.00    +0.007 C 
ATOM     42  C   UNL     1       5.455  -0.893  27.476  0.00  0.00    -0.016 C 
ATOM     43  C   UNL     1       4.757   0.328  28.135  0.00  0.00    +0.007 C 
ENDBRANCH  40  42
ENDBRANCH  39  40
ENDBRANCH  29  39
ENDBRANCH  28  29
ENDBRANCH  25  28
ENDBRANCH   1  25
TORSDOF 10
ENDMDL
MODEL 5
REMARK VINA RESULT:     -11.0      2.879      8.649
REMARK  Name = 
REMARK  14 active torsions:
REMARK  status: ('A' for Active; 'I' for Inactive)
REMARK    1  A    between atoms: C_1  and  C_2
REMARK    2  A    between atoms: C_2  and  C_3
REMARK    3  A    between atoms: C_2  and  C_4
REMARK    4  A    between atoms: C_4  and  C_5
REMARK    5  A    between atoms: C_5  and  N_6
REMARK    6  A    between atoms: N_6  and  C_7
REMARK    7  A    between atoms: N_6  and  S_35
REMARK    8  A    between atoms: C_7  and  C_8
REMARK    9  A    between atoms: C_8  and  O_10
REMARK   10  A    between atoms: C_8  and  C_11
REMARK   11  A    between atoms: C_25  and  C_27
REMARK   12  A    between atoms: C_27  and  C_28
REMARK   13  A    between atoms: C_27  and  C_29
REMARK   14  A    between atoms: S_35  and  C_38
REMARK                            x       y       z     vdW  Elec       q    Type
REMARK                         _______ _______ _______ _____ _____    ______ ____
ROOT
ATOM      1  C   UNL     1       7.606  -0.924  23.747  0.00  0.00    +0.107 C 
ATOM      2  N   UNL     1       6.239   0.484  23.613  0.00  0.00    -0.308 N 
ATOM      3  H   UNL     1       5.591  -0.097  24.143  0.00  0.00    +0.149 HD
ATOM      4  C   UNL     1       5.461   1.886  24.184  0.00  0.00    +0.234 C 
ATOM      5  O   UNL     1       5.284   1.843  25.411  0.00  0.00    -0.274 OA
ATOM      6  C   UNL     1       4.643   3.599  23.476  0.00  0.00    +0.161 C 
ATOM      7  N   UNL     1       5.403   4.839  24.213  0.00  0.00    -0.304 N 
ATOM      8  H   UNL     1       4.720   5.270  24.812  0.00  0.00    +0.149 HD
ATOM      9  C   UNL     1       5.898   6.011  23.580  0.00  0.00    +0.214 C 
ATOM     10  O   UNL     1       5.277   6.960  23.222  0.00  0.00    -0.276 OA
ATOM     11  C   UNL     1       7.367   5.861  23.488  0.00  0.00    +0.099 C 
ATOM     12  C   UNL     1       7.502   4.897  22.349  0.00  0.00    +0.050 C 
ATOM     13  C   UNL     1       8.068   3.725  23.038  0.00  0.00    +0.229 C 
ATOM     14  O   UNL     1       8.186   2.659  22.146  0.00  0.00    -0.492 OA
ATOM     15  C   UNL     1       9.134   1.837  22.665  0.00  0.00    +0.121 A 
ATOM     16  C   UNL     1       9.665   1.953  23.984  0.00  0.00    +0.046 A 
ATOM     17  C   UNL     1      10.498   1.007  24.466  0.00  0.00    +0.007 A 
ATOM     18  C   UNL     1      10.184  -0.183  23.870  0.00  0.00    -0.045 A 
ATOM     19  C   UNL     1      10.128  -0.265  22.466  0.00  0.00    +0.007 A 
ATOM     20  C   UNL     1       9.465   0.775  21.854  0.00  0.00    +0.046 A 
ATOM     21  C   UNL     1       8.931  -0.749  24.624  0.00  0.00    +0.060 C 
ENDROOT
BRANCH   6  22
ATOM     22  C   UNL     1       3.056   4.671  23.409  0.00  0.00    +0.012 C 
ATOM     23  C   UNL     1       2.472   5.179  21.999  0.00  0.00    +0.009 C 
ATOM     24  C   UNL     1       1.860   5.165  24.383  0.00  0.00    +0.009 C 
ENDBRANCH   6  22
BRANCH   1  25
ATOM     25  C   UNL     1       7.923  -2.849  23.574  0.00  0.00    +0.151 C 
BRANCH  25  26
ATOM     26  O   UNL     1       8.258  -3.075  22.174  0.00  0.00    -0.389 OA
ATOM     27  H   UNL     1       8.078  -2.251  21.677  0.00  0.00    +0.210 HD
ENDBRANCH  25  26
BRANCH  25  28
ATOM     28  C   UNL     1       6.691  -4.305  23.852  0.00  0.00    +0.142 C 
BRANCH  28  29
ATOM     29  N   UNL     1       6.780  -5.603  25.206  0.00  0.00    -0.174 NA
BRANCH  29  30
ATOM     30  S   UNL     1       7.261  -4.702  26.875  0.00  0.00    +0.061 S 
ATOM     31  O   UNL     1       8.415  -3.881  26.576  0.00  0.00    -0.153 OA
ATOM     32  O   UNL     1       7.260  -5.717  27.880  0.00  0.00    -0.153 OA
BRANCH  30  33
ATOM     33  C   UNL     1       5.844  -3.528  27.238  0.00  0.00    +0.105 A 
ATOM     34  C   UNL     1       5.706  -2.258  26.623  0.00  0.00    +0.028 A 
ATOM     35  C   UNL     1       4.690  -1.355  27.042  0.00  0.00    +0.002 A 
ATOM     36  C   UNL     1       3.813  -1.715  28.071  0.00  0.00    +0.000 A 
ATOM     37  C   UNL     1       3.949  -2.970  28.667  0.00  0.00    +0.002 A 
ATOM     38  C   UNL     1       4.952  -3.853  28.250  0.00  0.00    +0.028 A 
ENDBRANCH  30  33
ENDBRANCH  29  30
BRANCH  29  39
ATOM     39  C   UNL     1       5.354  -6.442  25.894  0.00  0.00    +0.110 C 
BRANCH  39  40
ATOM     40  C   UNL     1       3.824  -6.240  25.596  0.00  0.00    +0.020 C 
BRANCH  40  42
ATOM     41  C   UNL     1       2.927  -5.011  23.464  0.00  0.00    +0.007 C 
ATOM     42  C   UNL     1       3.307  -4.803  24.954  0.00  0.00    -0.016 C 
ATOM     43  C   UNL     1       2.099  -4.043  25.564  0.00  0.00    +0.007 C 
ENDBRANCH  40  42
ENDBRANCH  39  40
ENDBRANCH  29  39
ENDBRANCH  28  29
ENDBRANCH  25  28
ENDBRANCH   1  25
TORSDOF 10
ENDMDL
MODEL 6
REMARK VINA RESULT:     -10.8      3.019      9.316
REMARK  Name = 
REMARK  14 active torsions:
REMARK  status: ('A' for Active; 'I' for Inactive)
REMARK    1  A    between atoms: C_1  and  C_2
REMARK    2  A    between atoms: C_2  and  C_3
REMARK    3  A    between atoms: C_2  and  C_4
REMARK    4  A    between atoms: C_4  and  C_5
REMARK    5  A    between atoms: C_5  and  N_6
REMARK    6  A    between atoms: N_6  and  C_7
REMARK    7  A    between atoms: N_6  and  S_35
REMARK    8  A    between atoms: C_7  and  C_8
REMARK    9  A    between atoms: C_8  and  O_10
REMARK   10  A    between atoms: C_8  and  C_11
REMARK   11  A    between atoms: C_25  and  C_27
REMARK   12  A    between atoms: C_27  and  C_28
REMARK   13  A    between atoms: C_27  and  C_29
REMARK   14  A    between atoms: S_35  and  C_38
REMARK                            x       y       z     vdW  Elec       q    Type
REMARK                         _______ _______ _______ _____ _____    ______ ____
ROOT
ATOM      1  C   UNL     1       7.863  -1.013  23.704  0.00  0.00    +0.107 C 
ATOM      2  N   UNL     1       6.386   0.286  23.679  0.00  0.00    -0.308 N 
ATOM      3  H   UNL     1       5.839  -0.329  24.281  0.00  0.00    +0.149 HD
ATOM      4  C   UNL     1       5.562   1.640  24.299  0.00  0.00    +0.234 C 
ATOM      5  O   UNL     1       5.508   1.615  25.538  0.00  0.00    -0.274 OA
ATOM      6  C   UNL     1       4.551   3.270  23.645  0.00  0.00    +0.161 C 
ATOM      7  N   UNL     1       5.281   4.580  24.282  0.00  0.00    -0.304 N 
ATOM      8  H   UNL     1       4.628   4.974  24.937  0.00  0.00    +0.149 HD
ATOM      9  C   UNL     1       5.623   5.770  23.583  0.00  0.00    +0.214 C 
ATOM     10  O   UNL     1       4.899   6.661  23.270  0.00  0.00    -0.276 OA
ATOM     11  C   UNL     1       7.083   5.727  23.350  0.00  0.00    +0.099 C 
ATOM     12  C   UNL     1       7.181   4.747  22.220  0.00  0.00    +0.050 C 
ATOM     13  C   UNL     1       7.898   3.639  22.871  0.00  0.00    +0.229 C 
ATOM     14  O   UNL     1       8.012   2.562  21.991  0.00  0.00    -0.492 OA
ATOM     15  C   UNL     1       9.065   1.826  22.430  0.00  0.00    +0.121 A 
ATOM     16  C   UNL     1       9.710   2.014  23.688  0.00  0.00    +0.046 A 
ATOM     17  C   UNL     1      10.655   1.145  24.103  0.00  0.00    +0.007 A 
ATOM     18  C   UNL     1      10.377  -0.079  23.562  0.00  0.00    -0.045 A 
ATOM     19  C   UNL     1      10.192  -0.200  22.171  0.00  0.00    +0.007 A 
ATOM     20  C   UNL     1       9.396   0.772  21.608  0.00  0.00    +0.046 A 
ATOM     21  C   UNL     1       9.249  -0.718  24.444  0.00  0.00    +0.060 C 
ENDROOT
BRANCH   6  22
ATOM     22  C   UNL     1       2.888   4.218  23.714  0.00  0.00    +0.012 C 
ATOM     23  C   UNL     1       2.036   4.474  22.373  0.00  0.00    +0.009 C 
ATOM     24  C   UNL     1       1.832   4.777  24.808  0.00  0.00    +0.009 C 
ENDBRANCH   6  22
BRANCH   1  25
ATOM     25  C   UNL     1       8.309  -2.913  23.534  0.00  0.00    +0.151 C 
BRANCH  25  26
ATOM     26  O   UNL     1       7.895  -3.302  22.193  0.00  0.00    -0.389 OA
ATOM     27  H   UNL     1       8.194  -2.613  21.566  0.00  0.00    +0.210 HD
ENDBRANCH  25  26
BRANCH  25  28
ATOM     28  C   UNL     1       7.617  -4.408  24.535  0.00  0.00    +0.142 C 
BRANCH  28  29
ATOM     29  N   UNL     1       5.807  -4.836  24.798  0.00  0.00    -0.174 NA
BRANCH  29  30
ATOM     30  S   UNL     1       4.989  -5.105  23.042  0.00  0.00    +0.061 S 
ATOM     31  O   UNL     1       5.643  -6.257  22.460  0.00  0.00    -0.153 OA
ATOM     32  O   UNL     1       4.966  -3.819  22.421  0.00  0.00    -0.153 OA
BRANCH  30  33
ATOM     33  C   UNL     1       3.215  -5.611  23.386  0.00  0.00    +0.105 A 
ATOM     34  C   UNL     1       2.714  -6.914  23.140  0.00  0.00    +0.028 A 
ATOM     35  C   UNL     1       1.328  -7.199  23.289  0.00  0.00    +0.002 A 
ATOM     36  C   UNL     1       0.443  -6.189  23.681  0.00  0.00    +0.000 A 
ATOM     37  C   UNL     1       0.945  -4.910  23.931  0.00  0.00    +0.002 A 
ATOM     38  C   UNL     1       2.309  -4.637  23.781  0.00  0.00    +0.028 A 
ENDBRANCH  30  33
ENDBRANCH  29  30
BRANCH  29  39
ATOM     39  C   UNL     1       5.227  -6.391  25.474  0.00  0.00    +0.110 C 
BRANCH  39  40
ATOM     40  C   UNL     1       4.815  -6.760  26.945  0.00  0.00    +0.020 C 
BRANCH  40  42
ATOM     41  C   UNL     1       3.179  -4.742  27.280  0.00  0.00    +0.007 C 
ATOM     42  C   UNL     1       3.342  -6.267  27.521  0.00  0.00    -0.016 C 
ATOM     43  C   UNL     1       2.025  -6.890  26.986  0.00  0.00    +0.007 C 
ENDBRANCH  40  42
ENDBRANCH  39  40
ENDBRANCH  29  39
ENDBRANCH  28  29
ENDBRANCH  25  28
ENDBRANCH   1  25
TORSDOF 10
ENDMDL
MODEL 7
REMARK VINA RESULT:     -10.8      2.023      3.681
REMARK  Name = 
REMARK  14 active torsions:
REMARK  status: ('A' for Active; 'I' for Inactive)
REMARK    1  A    between atoms: C_1  and  C_2
REMARK    2  A    between atoms: C_2  and  C_3
REMARK    3  A    between atoms: C_2  and  C_4
REMARK    4  A    between atoms: C_4  and  C_5
REMARK    5  A    between atoms: C_5  and  N_6
REMARK    6  A    between atoms: N_6  and  C_7
REMARK    7  A    between atoms: N_6  and  S_35
REMARK    8  A    between atoms: C_7  and  C_8
REMARK    9  A    between atoms: C_8  and  O_10
REMARK   10  A    between atoms: C_8  and  C_11
REMARK   11  A    between atoms: C_25  and  C_27
REMARK   12  A    between atoms: C_27  and  C_28
REMARK   13  A    between atoms: C_27  and  C_29
REMARK   14  A    between atoms: S_35  and  C_38
REMARK                            x       y       z     vdW  Elec       q    Type
REMARK                         _______ _______ _______ _____ _____    ______ ____
ROOT
ATOM      1  C   UNL     1       7.623  -0.414  22.580  0.00  0.00    +0.107 C 
ATOM      2  N   UNL     1       6.071  -1.605  22.789  0.00  0.00    -0.308 N 
ATOM      3  H   UNL     1       5.781  -1.390  21.836  0.00  0.00    +0.149 HD
ATOM      4  C   UNL     1       5.318  -3.128  22.684  0.00  0.00    +0.234 C 
ATOM      5  O   UNL     1       5.615  -3.714  21.632  0.00  0.00    -0.274 OA
ATOM      6  C   UNL     1       4.001  -4.276  23.710  0.00  0.00    +0.161 C 
ATOM      7  N   UNL     1       4.740  -5.694  24.027  0.00  0.00    -0.304 N 
ATOM      8  H   UNL     1       4.259  -6.389  23.483  0.00  0.00    +0.149 HD
ATOM      9  C   UNL     1       4.747  -6.373  25.277  0.00  0.00    +0.214 C 
ATOM     10  O   UNL     1       3.877  -7.030  25.750  0.00  0.00    -0.276 OA
ATOM     11  C   UNL     1       6.081  -6.151  25.878  0.00  0.00    +0.099 C 
ATOM     12  C   UNL     1       5.960  -4.740  26.371  0.00  0.00    +0.050 C 
ATOM     13  C   UNL     1       6.941  -4.057  25.511  0.00  0.00    +0.229 C 
ATOM     14  O   UNL     1       6.915  -2.684  25.756  0.00  0.00    -0.492 OA
ATOM     15  C   UNL     1       8.119  -2.206  25.349  0.00  0.00    +0.121 A 
ATOM     16  C   UNL     1       9.067  -2.953  24.590  0.00  0.00    +0.046 A 
ATOM     17  C   UNL     1      10.176  -2.354  24.108  0.00  0.00    +0.007 A 
ATOM     18  C   UNL     1       9.886  -1.036  23.885  0.00  0.00    -0.045 A 
ATOM     19  C   UNL     1       9.333  -0.260  24.922  0.00  0.00    +0.007 A 
ATOM     20  C   UNL     1       8.315  -0.870  25.619  0.00  0.00    +0.046 A 
ATOM     21  C   UNL     1       9.122  -0.965  22.517  0.00  0.00    +0.060 C 
ENDROOT
BRANCH   6  22
ATOM     22  C   UNL     1       2.334  -5.217  23.619  0.00  0.00    +0.012 C 
ATOM     23  C   UNL     1       1.090  -4.767  24.533  0.00  0.00    +0.009 C 
ATOM     24  C   UNL     1       1.602  -6.342  22.712  0.00  0.00    +0.009 C 
ENDBRANCH   6  22
BRANCH   1  25
ATOM     25  C   UNL     1       8.198   1.345  21.939  0.00  0.00    +0.151 C 
BRANCH  25  26
ATOM     26  O   UNL     1       9.051   1.091  20.786  0.00  0.00    -0.389 OA
ATOM     27  H   UNL     1       8.628   0.403  20.234  0.00  0.00    +0.210 HD
ENDBRANCH  25  26
BRANCH  25  28
ATOM     28  C   UNL     1       9.262   2.671  22.846  0.00  0.00    +0.142 C 
BRANCH  28  29
ATOM     29  N   UNL     1       9.035   3.273  24.611  0.00  0.00    -0.174 NA
BRANCH  29  30
ATOM     30  S   UNL     1       9.216   5.220  24.612  0.00  0.00    +0.061 S 
ATOM     31  O   UNL     1      10.385   5.521  23.814  0.00  0.00    -0.153 OA
ATOM     32  O   UNL     1       9.071   5.625  25.974  0.00  0.00    -0.153 OA
BRANCH  30  33
ATOM     33  C   UNL     1       7.734   5.863  23.659  0.00  0.00    +0.105 A 
ATOM     34  C   UNL     1       7.726   6.034  22.251  0.00  0.00    +0.028 A 
ATOM     35  C   UNL     1       6.625   6.656  21.601  0.00  0.00    +0.002 A 
ATOM     36  C   UNL     1       5.533   7.108  22.350  0.00  0.00    +0.000 A 
ATOM     37  C   UNL     1       5.543   6.929  23.735  0.00  0.00    +0.002 A 
ATOM     38  C   UNL     1       6.631   6.318  24.368  0.00  0.00    +0.028 A 
ENDBRANCH  30  33
ENDBRANCH  29  30
BRANCH  29  39
ATOM     39  C   UNL     1       7.471   3.266  25.484  0.00  0.00    +0.110 C 
BRANCH  39  40
ATOM     40  C   UNL     1       6.263   2.265  25.384  0.00  0.00    +0.020 C 
BRANCH  40  42
ATOM     41  C   UNL     1       4.077   3.651  24.982  0.00  0.00    +0.007 C 
ATOM     42  C   UNL     1       5.021   2.599  24.340  0.00  0.00    -0.016 C 
ATOM     43  C   UNL     1       5.299   3.141  22.913  0.00  0.00    +0.007 C 
ENDBRANCH  40  42
ENDBRANCH  39  40
ENDBRANCH  29  39
ENDBRANCH  28  29
ENDBRANCH  25  28
ENDBRANCH   1  25
TORSDOF 10
ENDMDL
MODEL 8
REMARK VINA RESULT:     -10.7      1.334      1.875
REMARK  Name = 
REMARK  14 active torsions:
REMARK  status: ('A' for Active; 'I' for Inactive)
REMARK    1  A    between atoms: C_1  and  C_2
REMARK    2  A    between atoms: C_2  and  C_3
REMARK    3  A    between atoms: C_2  and  C_4
REMARK    4  A    between atoms: C_4  and  C_5
REMARK    5  A    between atoms: C_5  and  N_6
REMARK    6  A    between atoms: N_6  and  C_7
REMARK    7  A    between atoms: N_6  and  S_35
REMARK    8  A    between atoms: C_7  and  C_8
REMARK    9  A    between atoms: C_8  and  O_10
REMARK   10  A    between atoms: C_8  and  C_11
REMARK   11  A    between atoms: C_25  and  C_27
REMARK   12  A    between atoms: C_27  and  C_28
REMARK   13  A    between atoms: C_27  and  C_29
REMARK   14  A    between atoms: S_35  and  C_38
REMARK                            x       y       z     vdW  Elec       q    Type
REMARK                         _______ _______ _______ _____ _____    ______ ____
ROOT
ATOM      1  C   UNL     1       7.505   0.650  22.799  0.00  0.00    +0.107 C 
ATOM      2  N   UNL     1       6.356  -0.674  23.691  0.00  0.00    -0.308 N 
ATOM      3  H   UNL     1       5.596  -0.442  23.052  0.00  0.00    +0.149 HD
ATOM      4  C   UNL     1       5.733  -2.248  23.871  0.00  0.00    +0.234 C 
ATOM      5  O   UNL     1       5.457  -2.760  22.775  0.00  0.00    -0.274 OA
ATOM      6  C   UNL     1       5.211  -3.547  25.336  0.00  0.00    +0.161 C 
ATOM      7  N   UNL     1       6.072  -4.911  25.101  0.00  0.00    -0.304 N 
ATOM      8  H   UNL     1       5.409  -5.619  24.834  0.00  0.00    +0.149 HD
ATOM      9  C   UNL     1       6.769  -5.643  26.102  0.00  0.00    +0.214 C 
ATOM     10  O   UNL     1       6.312  -6.391  26.904  0.00  0.00    -0.276 OA
ATOM     11  C   UNL     1       8.207  -5.338  25.932  0.00  0.00    +0.099 C 
ATOM     12  C   UNL     1       8.298  -3.966  26.529  0.00  0.00    +0.050 C 
ATOM     13  C   UNL     1       8.645  -3.166  25.343  0.00  0.00    +0.229 C 
ATOM     14  O   UNL     1       8.687  -1.812  25.676  0.00  0.00    -0.492 OA
ATOM     15  C   UNL     1       9.472  -1.218  24.741  0.00  0.00    +0.121 A 
ATOM     16  C   UNL     1       9.909  -1.849  23.539  0.00  0.00    +0.046 A 
ATOM     17  C   UNL     1      10.568  -1.138  22.599  0.00  0.00    +0.007 A 
ATOM     18  C   UNL     1      10.142   0.160  22.671  0.00  0.00    -0.045 A 
ATOM     19  C   UNL     1      10.184   0.840  23.903  0.00  0.00    +0.007 A 
ATOM     20  C   UNL     1       9.718   0.116  24.977  0.00  0.00    +0.046 A 
ATOM     21  C   UNL     1       8.770   0.229  21.916  0.00  0.00    +0.060 C 
ENDROOT
BRANCH   6  22
ATOM     22  C   UNL     1       3.794  -4.618  26.053  0.00  0.00    +0.012 C 
ATOM     23  C   UNL     1       3.392  -4.508  27.607  0.00  0.00    +0.009 C 
ATOM     24  C   UNL     1       2.606  -5.594  25.542  0.00  0.00    +0.009 C 
ENDBRANCH   6  22
BRANCH   1  25
ATOM     25  C   UNL     1       7.572   2.478  22.099  0.00  0.00    +0.151 C 
BRANCH  25  26
ATOM     26  O   UNL     1       8.401   3.232  23.029  0.00  0.00    -0.389 OA
ATOM     27  H   UNL     1       8.370   4.177  22.776  0.00  0.00    +0.210 HD
ENDBRANCH  25  26
BRANCH  25  28
ATOM     28  C   UNL     1       6.128   3.732  21.861  0.00  0.00    +0.142 C 
BRANCH  28  29
ATOM     29  N   UNL     1       5.945   5.401  22.702  0.00  0.00    -0.174 NA
BRANCH  29  30
ATOM     30  S   UNL     1       4.820   5.160  24.284  0.00  0.00    +0.061 S 
ATOM     31  O   UNL     1       3.495   4.843  23.796  0.00  0.00    -0.153 OA
ATOM     32  O   UNL     1       5.097   6.274  25.133  0.00  0.00    -0.153 OA
BRANCH  30  33
ATOM     33  C   UNL     1       5.466   3.615  25.129  0.00  0.00    +0.105 A 
ATOM     34  C   UNL     1       4.702   2.429  25.279  0.00  0.00    +0.028 A 
ATOM     35  C   UNL     1       5.194   1.342  26.051  0.00  0.00    +0.002 A 
ATOM     36  C   UNL     1       6.443   1.432  26.673  0.00  0.00    +0.000 A 
ATOM     37  C   UNL     1       7.194   2.598  26.515  0.00  0.00    +0.002 A 
ATOM     38  C   UNL     1       6.703   3.666  25.756  0.00  0.00    +0.028 A 
ENDBRANCH  30  33
ENDBRANCH  29  30
BRANCH  29  39
ATOM     39  C   UNL     1       7.264   6.236  23.582  0.00  0.00    +0.110 C 
BRANCH  39  40
ATOM     40  C   UNL     1       8.693   6.666  23.087  0.00  0.00    +0.020 C 
BRANCH  40  42
ATOM     41  C   UNL     1       9.497   5.997  25.489  0.00  0.00    +0.007 C 
ATOM     42  C   UNL     1       9.992   6.467  24.094  0.00  0.00    -0.016 C 
ATOM     43  C   UNL     1      11.139   5.484  23.736  0.00  0.00    +0.007 C 
ENDBRANCH  40  42
ENDBRANCH  39  40
ENDBRANCH  29  39
ENDBRANCH  28  29
ENDBRANCH  25  28
ENDBRANCH   1  25
TORSDOF 10
ENDMDL
MODEL 9
REMARK VINA RESULT:     -10.6      2.882      9.083
REMARK  Name = 
REMARK  14 active torsions:
REMARK  status: ('A' for Active; 'I' for Inactive)
REMARK    1  A    between atoms: C_1  and  C_2
REMARK    2  A    between atoms: C_2  and  C_3
REMARK    3  A    between atoms: C_2  and  C_4
REMARK    4  A    between atoms: C_4  and  C_5
REMARK    5  A    between atoms: C_5  and  N_6
REMARK    6  A    between atoms: N_6  and  C_7
REMARK    7  A    between atoms: N_6  and  S_35
REMARK    8  A    between atoms: C_7  and  C_8
REMARK    9  A    between atoms: C_8  and  O_10
REMARK   10  A    between atoms: C_8  and  C_11
REMARK   11  A    between atoms: C_25  and  C_27
REMARK   12  A    between atoms: C_27  and  C_28
REMARK   13  A    between atoms: C_27  and  C_29
REMARK   14  A    between atoms: S_35  and  C_38
REMARK                            x       y       z     vdW  Elec       q    Type
REMARK                         _______ _______ _______ _____ _____    ______ ____
ROOT
ATOM      1  C   UNL     1       7.747  -1.249  24.878  0.00  0.00    +0.107 C 
ATOM      2  N   UNL     1       6.291   0.024  24.514  0.00  0.00    -0.308 N 
ATOM      3  H   UNL     1       5.735  -0.405  25.254  0.00  0.00    +0.149 HD
ATOM      4  C   UNL     1       5.492   1.506  24.760  0.00  0.00    +0.234 C 
ATOM      5  O   UNL     1       5.440   1.804  25.963  0.00  0.00    -0.274 OA
ATOM      6  C   UNL     1       4.506   2.926  23.703  0.00  0.00    +0.161 C 
ATOM      7  N   UNL     1       5.260   4.345  23.980  0.00  0.00    -0.304 N 
ATOM      8  H   UNL     1       4.616   4.906  24.509  0.00  0.00    +0.149 HD
ATOM      9  C   UNL     1       5.620   5.307  22.996  0.00  0.00    +0.214 C 
ATOM     10  O   UNL     1       4.911   6.098  22.462  0.00  0.00    -0.276 OA
ATOM     11  C   UNL     1       7.079   5.180  22.785  0.00  0.00    +0.099 C 
ATOM     12  C   UNL     1       7.157   3.939  21.949  0.00  0.00    +0.050 C 
ATOM     13  C   UNL     1       7.857   3.025  22.866  0.00  0.00    +0.229 C 
ATOM     14  O   UNL     1       7.950   1.756  22.296  0.00  0.00    -0.492 OA
ATOM     15  C   UNL     1       8.992   1.141  22.913  0.00  0.00    +0.121 A 
ATOM     16  C   UNL     1       9.643   1.638  24.080  0.00  0.00    +0.046 A 
ATOM     17  C   UNL     1      10.576   0.891  24.708  0.00  0.00    +0.007 A 
ATOM     18  C   UNL     1      10.275  -0.427  24.503  0.00  0.00    -0.045 A 
ATOM     19  C   UNL     1      10.085  -0.902  23.191  0.00  0.00    +0.007 A 
ATOM     20  C   UNL     1       9.303  -0.096  22.394  0.00  0.00    +0.046 A 
ATOM     21  C   UNL     1       9.139  -0.796  25.519  0.00  0.00    +0.060 C 
ENDROOT
BRANCH   6  22
ATOM     22  C   UNL     1       2.860   3.889  23.521  0.00  0.00    +0.012 C 
ATOM     23  C   UNL     1       2.093   3.936  22.107  0.00  0.00    +0.009 C 
ATOM     24  C   UNL     1       1.752   4.622  24.447  0.00  0.00    +0.009 C 
ENDBRANCH   6  22
BRANCH   1  25
ATOM     25  C   UNL     1       8.159  -3.135  25.208  0.00  0.00    +0.151 C 
BRANCH  25  26
ATOM     26  O   UNL     1       8.564  -3.687  23.923  0.00  0.00    -0.389 OA
ATOM     27  H   UNL     1       8.513  -2.976  23.251  0.00  0.00    +0.210 HD
ENDBRANCH  25  26
BRANCH  25  28
ATOM     28  C   UNL     1       6.984  -4.540  25.809  0.00  0.00    +0.142 C 
BRANCH  28  29
ATOM     29  N   UNL     1       5.229  -4.335  26.446  0.00  0.00    -0.174 NA
BRANCH  29  30
ATOM     30  S   UNL     1       4.175  -3.473  25.042  0.00  0.00    +0.061 S 
ATOM     31  O   UNL     1       4.484  -2.060  25.110  0.00  0.00    -0.153 OA
ATOM     32  O   UNL     1       2.852  -3.993  25.173  0.00  0.00    -0.153 OA
BRANCH  30  33
ATOM     33  C   UNL     1       4.885  -4.101  23.423  0.00  0.00    +0.105 A 
ATOM     34  C   UNL     1       4.960  -5.477  23.085  0.00  0.00    +0.028 A 
ATOM     35  C   UNL     1       5.636  -5.899  21.908  0.00  0.00    +0.002 A 
ATOM     36  C   UNL     1       6.237  -4.956  21.067  0.00  0.00    +0.000 A 
ATOM     37  C   UNL     1       6.153  -3.602  21.401  0.00  0.00    +0.002 A 
ATOM     38  C   UNL     1       5.487  -3.194  22.562  0.00  0.00    +0.028 A 
ENDBRANCH  30  33
ENDBRANCH  29  30
BRANCH  29  39
ATOM     39  C   UNL     1       4.080  -5.688  26.688  0.00  0.00    +0.110 C 
BRANCH  39  40
ATOM     40  C   UNL     1       4.077  -7.132  26.067  0.00  0.00    +0.020 C 
BRANCH  40  42
ATOM     41  C   UNL     1       1.463  -7.036  26.212  0.00  0.00    +0.007 C 
ATOM     42  C   UNL     1       2.647  -7.783  25.542  0.00  0.00    -0.016 C 
ATOM     43  C   UNL     1       2.287  -7.812  24.032  0.00  0.00    +0.007 C 
ENDBRANCH  40  42
ENDBRANCH  39  40
ENDBRANCH  29  39
ENDBRANCH  28  29
ENDBRANCH  25  28
ENDBRANCH   1  25
TORSDOF 10
ENDMDL
