MODEL 1
REMARK VINA RESULT:      -6.1      0.000      0.000
REMARK  Name = 
REMARK  4 active torsions:
REMARK  status: ('A' for Active; 'I' for Inactive)
REMARK    1  A    between atoms: C_2  and  C_17
REMARK    2  A    between atoms: C_4  and  C_6
REMARK    3  A    between atoms: N_8  and  C_9
REMARK    4  A    between atoms: C_17  and  O_18
REMARK                            x       y       z     vdW  Elec       q    Type
REMARK                         _______ _______ _______ _____ _____    ______ ____
ROOT
ATOM      1  C   UNL     1       7.481  -2.675  22.626  0.00  0.00    +0.221 C 
ATOM      2  N   UNL     1       8.810  -2.316  22.578  0.00  0.00    -0.283 N 
ATOM      3  H   UNL     1       9.453  -2.935  22.092  0.00  0.00    +0.155 HD
ATOM      4  O   UNL     1       6.552  -1.961  22.978  0.00  0.00    -0.275 OA
ENDROOT
BRANCH   2   5
ATOM      5  C   UNL     1       9.367  -1.075  22.970  0.00  0.00    +0.072 A 
ATOM      6  C   UNL     1       9.641  -0.880  24.333  0.00  0.00    +0.145 A 
ATOM      7  F   UNL     1       9.350  -1.849  25.215  0.00  0.00    -0.204 F 
ATOM      8  C   UNL     1      10.198   0.309  24.806  0.00  0.00    +0.043 A 
ATOM      9  C   UNL     1      10.493   1.331  23.908  0.00  0.00    +0.041 A 
ATOM     10  C   UNL     1      10.217   1.150  22.558  0.00  0.00    +0.125 A 
ATOM     11  F   UNL     1      10.499   2.133  21.693  0.00  0.00    -0.205 F 
ATOM     12  C   UNL     1       9.655  -0.034  22.085  0.00  0.00    +0.064 A 
ENDBRANCH   2   5
BRANCH   1  14
ATOM     13  C   UNL     1       7.526  -5.257  23.064  0.00  0.00    +0.110 C 
ATOM     14  C   UNL     1       7.127  -4.065  22.219  0.00  0.00    +0.090 C 
ATOM     15  C   UNL     1       6.065  -4.942  22.817  0.00  0.00    +0.029 C 
BRANCH  13  16
ATOM     16  C   UNL     1       8.075  -5.096  24.433  0.00  0.00    +0.309 C 
ATOM     17  O   UNL     1       7.367  -5.144  25.426  0.00  0.00    -0.251 OA
BRANCH  16  18
ATOM     18  O   UNL     1       9.410  -4.907  24.474  0.00  0.00    -0.480 OA
ATOM     19  H   UNL     1       9.706  -4.043  24.132  0.00  0.00    +0.295 HD
ENDBRANCH  16  18
ENDBRANCH  13  16
ENDBRANCH   1  14
TORSDOF 4
ENDMDL
MODEL 2
REMARK VINA RESULT:      -6.0      2.565      5.955
REMARK  Name = 
REMARK  4 active torsions:
REMARK  status: ('A' for Active; 'I' for Inactive)
REMARK    1  A    between atoms: C_2  and  C_17
REMARK    2  A    between atoms: C_4  and  C_6
REMARK    3  A    between atoms: N_8  and  C_9
REMARK    4  A    between atoms: C_17  and  O_18
REMARK                            x       y       z     vdW  Elec       q    Type
REMARK                         _______ _______ _______ _____ _____    ______ ____
ROOT
ATOM      1  C   UNL     1       9.197  -0.232  24.565  0.00  0.00    +0.221 C 
ATOM      2  N   UNL     1       9.756  -1.400  24.094  0.00  0.00    -0.283 N 
ATOM      3  H   UNL     1      10.759  -1.415  23.930  0.00  0.00    +0.155 HD
ATOM      4  O   UNL     1       8.066  -0.101  25.009  0.00  0.00    -0.275 OA
ENDROOT
BRANCH   2   5
ATOM      5  C   UNL     1       9.119  -2.660  23.985  0.00  0.00    +0.072 A 
ATOM      6  C   UNL     1       8.189  -2.838  22.949  0.00  0.00    +0.145 A 
ATOM      7  F   UNL     1       7.916  -1.819  22.118  0.00  0.00    -0.204 F 
ATOM      8  C   UNL     1       7.522  -4.049  22.762  0.00  0.00    +0.043 A 
ATOM      9  C   UNL     1       7.782  -5.112  23.622  0.00  0.00    +0.041 A 
ATOM     10  C   UNL     1       8.695  -4.942  24.656  0.00  0.00    +0.125 A 
ATOM     11  F   UNL     1       8.946  -5.965  25.485  0.00  0.00    -0.205 F 
ATOM     12  C   UNL     1       9.357  -3.731  24.848  0.00  0.00    +0.064 A 
ENDBRANCH   2   5
BRANCH   1  14
ATOM     13  C   UNL     1      10.376   1.684  23.223  0.00  0.00    +0.110 C 
ATOM     14  C   UNL     1      10.039   0.998  24.531  0.00  0.00    +0.090 C 
ATOM     15  C   UNL     1       9.577   2.406  24.288  0.00  0.00    +0.029 C 
BRANCH  13  16
ATOM     16  C   UNL     1       9.707   1.313  21.951  0.00  0.00    +0.309 C 
ATOM     17  O   UNL     1       9.874   0.225  21.424  0.00  0.00    -0.251 OA
BRANCH  16  18
ATOM     18  O   UNL     1       8.901   2.273  21.451  0.00  0.00    -0.480 OA
ATOM     19  H   UNL     1       8.743   2.207  20.490  0.00  0.00    +0.295 HD
ENDBRANCH  16  18
ENDBRANCH  13  16
ENDBRANCH   1  14
TORSDOF 4
ENDMDL
MODEL 3
REMARK VINA RESULT:      -5.9      2.758      5.722
REMARK  Name = 
REMARK  4 active torsions:
REMARK  status: ('A' for Active; 'I' for Inactive)
REMARK    1  A    between atoms: C_2  and  C_17
REMARK    2  A    between atoms: C_4  and  C_6
REMARK    3  A    between atoms: N_8  and  C_9
REMARK    4  A    between atoms: C_17  and  O_18
REMARK                            x       y       z     vdW  Elec       q    Type
REMARK                         _______ _______ _______ _____ _____    ______ ____
ROOT
ATOM      1  C   UNL     1      10.136  -1.199  23.186  0.00  0.00    +0.221 C 
ATOM      2  N   UNL     1       8.974  -1.694  23.735  0.00  0.00    -0.283 N 
ATOM      3  H   UNL     1       8.462  -1.099  24.381  0.00  0.00    +0.155 HD
ATOM      4  O   UNL     1      10.756  -1.682  22.249  0.00  0.00    -0.275 OA
ENDROOT
BRANCH   2   5
ATOM      5  C   UNL     1       8.297  -2.879  23.359  0.00  0.00    +0.072 A 
ATOM      6  C   UNL     1       8.558  -4.045  24.097  0.00  0.00    +0.145 A 
ATOM      7  F   UNL     1       9.442  -4.010  25.106  0.00  0.00    -0.204 F 
ATOM      8  C   UNL     1       7.929  -5.255  23.801  0.00  0.00    +0.043 A 
ATOM      9  C   UNL     1       7.018  -5.314  22.749  0.00  0.00    +0.041 A 
ATOM     10  C   UNL     1       6.761  -4.166  22.009  0.00  0.00    +0.125 A 
ATOM     11  F   UNL     1       5.886  -4.221  20.996  0.00  0.00    -0.205 F 
ATOM     12  C   UNL     1       7.393  -2.958  22.298  0.00  0.00    +0.064 A 
ENDBRANCH   2   5
BRANCH   1  14
ATOM     13  C   UNL     1      10.232   1.414  23.354  0.00  0.00    +0.110 C 
ATOM     14  C   UNL     1      10.708   0.042  23.785  0.00  0.00    +0.090 C 
ATOM     15  C   UNL     1      10.054   0.951  24.785  0.00  0.00    +0.029 C 
BRANCH  13  16
ATOM     16  C   UNL     1       9.030   1.592  22.502  0.00  0.00    +0.309 C 
ATOM     17  O   UNL     1       7.906   1.339  22.905  0.00  0.00    -0.251 OA
BRANCH  16  18
ATOM     18  O   UNL     1       9.294   2.063  21.265  0.00  0.00    -0.480 OA
ATOM     19  H   UNL     1       9.323   1.379  20.571  0.00  0.00    +0.295 HD
ENDBRANCH  16  18
ENDBRANCH  13  16
ENDBRANCH   1  14
TORSDOF 4
ENDMDL
MODEL 4
REMARK VINA RESULT:      -5.9      1.104      2.127
REMARK  Name = 
REMARK  4 active torsions:
REMARK  status: ('A' for Active; 'I' for Inactive)
REMARK    1  A    between atoms: C_2  and  C_17
REMARK    2  A    between atoms: C_4  and  C_6
REMARK    3  A    between atoms: N_8  and  C_9
REMARK    4  A    between atoms: C_17  and  O_18
REMARK                            x       y       z     vdW  Elec       q    Type
REMARK                         _______ _______ _______ _____ _____    ______ ____
ROOT
ATOM      1  C   UNL     1       7.479  -2.582  22.499  0.00  0.00    +0.221 C 
ATOM      2  N   UNL     1       8.788  -2.214  22.283  0.00  0.00    -0.283 N 
ATOM      3  H   UNL     1       9.354  -2.802  21.676  0.00  0.00    +0.155 HD
ATOM      4  O   UNL     1       6.611  -1.894  23.018  0.00  0.00    -0.275 OA
ENDROOT
BRANCH   2   5
ATOM      5  C   UNL     1       9.399  -0.995  22.663  0.00  0.00    +0.072 A 
ATOM      6  C   UNL     1       9.472   0.030  21.706  0.00  0.00    +0.145 A 
ATOM      7  F   UNL     1       8.989  -0.179  20.471  0.00  0.00    -0.204 F 
ATOM      8  C   UNL     1      10.049   1.266  21.997  0.00  0.00    +0.043 A 
ATOM      9  C   UNL     1      10.567   1.496  23.269  0.00  0.00    +0.041 A 
ATOM     10  C   UNL     1      10.507   0.484  24.220  0.00  0.00    +0.125 A 
ATOM     11  F   UNL     1      11.007   0.704  25.444  0.00  0.00    -0.205 F 
ATOM     12  C   UNL     1       9.937  -0.753  23.929  0.00  0.00    +0.064 A 
ENDBRANCH   2   5
BRANCH   1  14
ATOM     13  C   UNL     1       7.462  -5.177  22.858  0.00  0.00    +0.110 C 
ATOM     14  C   UNL     1       7.065  -3.948  22.066  0.00  0.00    +0.090 C 
ATOM     15  C   UNL     1       6.002  -4.811  22.682  0.00  0.00    +0.029 C 
BRANCH  13  16
ATOM     16  C   UNL     1       8.071  -5.073  24.207  0.00  0.00    +0.309 C 
ATOM     17  O   UNL     1       9.252  -4.811  24.367  0.00  0.00    -0.251 OA
BRANCH  16  18
ATOM     18  O   UNL     1       7.206  -5.280  25.221  0.00  0.00    -0.480 OA
ATOM     19  H   UNL     1       7.572  -5.792  25.966  0.00  0.00    +0.295 HD
ENDBRANCH  16  18
ENDBRANCH  13  16
ENDBRANCH   1  14
TORSDOF 4
ENDMDL
MODEL 5
REMARK VINA RESULT:      -5.9      1.779      2.723
REMARK  Name = 
REMARK  4 active torsions:
REMARK  status: ('A' for Active; 'I' for Inactive)
REMARK    1  A    between atoms: C_2  and  C_17
REMARK    2  A    between atoms: C_4  and  C_6
REMARK    3  A    between atoms: N_8  and  C_9
REMARK    4  A    between atoms: C_17  and  O_18
REMARK                            x       y       z     vdW  Elec       q    Type
REMARK                         _______ _______ _______ _____ _____    ______ ____
ROOT
ATOM      1  C   UNL     1       9.347  -2.859  24.536  0.00  0.00    +0.221 C 
ATOM      2  N   UNL     1       8.800  -1.595  24.511  0.00  0.00    -0.283 N 
ATOM      3  H   UNL     1       8.111  -1.361  25.221  0.00  0.00    +0.155 HD
ATOM      4  O   UNL     1      10.323  -3.236  23.903  0.00  0.00    -0.275 OA
ENDROOT
BRANCH   2   5
ATOM      5  C   UNL     1       9.223  -0.505  23.714  0.00  0.00    +0.072 A 
ATOM      6  C   UNL     1       8.885  -0.517  22.351  0.00  0.00    +0.145 A 
ATOM      7  F   UNL     1       8.201  -1.556  21.845  0.00  0.00    -0.204 F 
ATOM      8  C   UNL     1       9.253   0.521  21.495  0.00  0.00    +0.043 A 
ATOM      9  C   UNL     1       9.975   1.600  21.999  0.00  0.00    +0.041 A 
ATOM     10  C   UNL     1      10.321   1.616  23.345  0.00  0.00    +0.125 A 
ATOM     11  F   UNL     1      11.016   2.653  23.831  0.00  0.00    -0.205 F 
ATOM     12  C   UNL     1       9.959   0.577  24.200  0.00  0.00    +0.064 A 
ENDBRANCH   2   5
BRANCH   1  14
ATOM     13  C   UNL     1       7.659  -4.835  24.866  0.00  0.00    +0.110 C 
ATOM     14  C   UNL     1       8.696  -3.876  25.412  0.00  0.00    +0.090 C 
ATOM     15  C   UNL     1       8.963  -5.353  25.438  0.00  0.00    +0.029 C 
BRANCH  13  16
ATOM     16  C   UNL     1       7.410  -4.969  23.409  0.00  0.00    +0.309 C 
ATOM     17  O   UNL     1       8.011  -5.778  22.720  0.00  0.00    -0.251 OA
BRANCH  16  18
ATOM     18  O   UNL     1       6.464  -4.135  22.931  0.00  0.00    -0.480 OA
ATOM     19  H   UNL     1       5.621  -4.570  22.701  0.00  0.00    +0.295 HD
ENDBRANCH  16  18
ENDBRANCH  13  16
ENDBRANCH   1  14
TORSDOF 4
ENDMDL
MODEL 6
REMARK VINA RESULT:      -5.8      2.856      5.728
REMARK  Name = 
REMARK  4 active torsions:
REMARK  status: ('A' for Active; 'I' for Inactive)
REMARK    1  A    between atoms: C_2  and  C_17
REMARK    2  A    between atoms: C_4  and  C_6
REMARK    3  A    between atoms: N_8  and  C_9
REMARK    4  A    between atoms: C_17  and  O_18
REMARK                            x       y       z     vdW  Elec       q    Type
REMARK                         _______ _______ _______ _____ _____    ______ ____
ROOT
ATOM      1  C   UNL     1       8.264  -1.856  24.178  0.00  0.00    +0.221 C 
ATOM      2  N   UNL     1       8.486  -3.164  23.808  0.00  0.00    -0.283 N 
ATOM      3  H   UNL     1       9.406  -3.559  23.984  0.00  0.00    +0.155 HD
ATOM      4  O   UNL     1       7.179  -1.295  24.235  0.00  0.00    -0.275 OA
ENDROOT
BRANCH   2   5
ATOM      5  C   UNL     1       7.514  -4.098  23.375  0.00  0.00    +0.072 A 
ATOM      6  C   UNL     1       6.751  -4.753  24.355  0.00  0.00    +0.145 A 
ATOM      7  F   UNL     1       6.975  -4.497  25.654  0.00  0.00    -0.204 F 
ATOM      8  C   UNL     1       5.766  -5.681  24.017  0.00  0.00    +0.043 A 
ATOM      9  C   UNL     1       5.528  -5.970  22.676  0.00  0.00    +0.041 A 
ATOM     10  C   UNL     1       6.285  -5.332  21.700  0.00  0.00    +0.125 A 
ATOM     11  F   UNL     1       6.058  -5.609  20.409  0.00  0.00    -0.205 F 
ATOM     12  C   UNL     1       7.274  -4.409  22.036  0.00  0.00    +0.064 A 
ENDBRANCH   2   5
BRANCH   1  14
ATOM     13  C   UNL     1      10.344  -0.425  23.478  0.00  0.00    +0.110 C 
ATOM     14  C   UNL     1       9.452  -1.031  24.542  0.00  0.00    +0.090 C 
ATOM     15  C   UNL     1       9.584   0.462  24.443  0.00  0.00    +0.029 C 
BRANCH  13  16
ATOM     16  C   UNL     1       9.959  -0.423  22.045  0.00  0.00    +0.309 C 
ATOM     17  O   UNL     1       9.520   0.573  21.493  0.00  0.00    -0.251 OA
BRANCH  16  18
ATOM     18  O   UNL     1      10.151  -1.603  21.420  0.00  0.00    -0.480 OA
ATOM     19  H   UNL     1       9.631  -2.342  21.786  0.00  0.00    +0.295 HD
ENDBRANCH  16  18
ENDBRANCH  13  16
ENDBRANCH   1  14
TORSDOF 4
ENDMDL
MODEL 7
REMARK VINA RESULT:      -5.8      2.678      5.946
REMARK  Name = 
REMARK  4 active torsions:
REMARK  status: ('A' for Active; 'I' for Inactive)
REMARK    1  A    between atoms: C_2  and  C_17
REMARK    2  A    between atoms: C_4  and  C_6
REMARK    3  A    between atoms: N_8  and  C_9
REMARK    4  A    between atoms: C_17  and  O_18
REMARK                            x       y       z     vdW  Elec       q    Type
REMARK                         _______ _______ _______ _____ _____    ______ ____
ROOT
ATOM      1  C   UNL     1       9.937  -1.293  23.203  0.00  0.00    +0.221 C 
ATOM      2  N   UNL     1       8.690  -1.620  23.688  0.00  0.00    -0.283 N 
ATOM      3  H   UNL     1       8.282  -1.016  24.397  0.00  0.00    +0.155 HD
ATOM      4  O   UNL     1      10.478  -1.774  22.218  0.00  0.00    -0.275 OA
ENDROOT
BRANCH   2   5
ATOM      5  C   UNL     1       7.814  -2.607  23.176  0.00  0.00    +0.072 A 
ATOM      6  C   UNL     1       6.571  -2.187  22.676  0.00  0.00    +0.145 A 
ATOM      7  F   UNL     1       6.243  -0.885  22.717  0.00  0.00    -0.204 F 
ATOM      8  C   UNL     1       5.651  -3.091  22.144  0.00  0.00    +0.043 A 
ATOM      9  C   UNL     1       5.968  -4.446  22.105  0.00  0.00    +0.041 A 
ATOM     10  C   UNL     1       7.193  -4.872  22.605  0.00  0.00    +0.125 A 
ATOM     11  F   UNL     1       7.499  -6.176  22.569  0.00  0.00    -0.205 F 
ATOM     12  C   UNL     1       8.110  -3.971  23.143  0.00  0.00    +0.064 A 
ENDBRANCH   2   5
BRANCH   1  14
ATOM     13  C   UNL     1      10.579   1.215  23.609  0.00  0.00    +0.110 C 
ATOM     14  C   UNL     1      10.715  -0.257  23.942  0.00  0.00    +0.090 C 
ATOM     15  C   UNL     1      10.196   0.697  24.980  0.00  0.00    +0.029 C 
BRANCH  13  16
ATOM     16  C   UNL     1       9.512   1.716  22.706  0.00  0.00    +0.309 C 
ATOM     17  O   UNL     1       8.332   1.679  23.014  0.00  0.00    -0.251 OA
BRANCH  16  18
ATOM     18  O   UNL     1       9.967   2.220  21.540  0.00  0.00    -0.480 OA
ATOM     19  H   UNL     1       9.783   1.663  20.761  0.00  0.00    +0.295 HD
ENDBRANCH  16  18
ENDBRANCH  13  16
ENDBRANCH   1  14
TORSDOF 4
ENDMDL
MODEL 8
REMARK VINA RESULT:      -5.8      2.660      5.584
REMARK  Name = 
REMARK  4 active torsions:
REMARK  status: ('A' for Active; 'I' for Inactive)
REMARK    1  A    between atoms: C_2  and  C_17
REMARK    2  A    between atoms: C_4  and  C_6
REMARK    3  A    between atoms: N_8  and  C_9
REMARK    4  A    between atoms: C_17  and  O_18
REMARK                            x       y       z     vdW  Elec       q    Type
REMARK                         _______ _______ _______ _____ _____    ______ ____
ROOT
ATOM      1  C   UNL     1       8.876  -0.531  22.210  0.00  0.00    +0.221 C 
ATOM      2  N   UNL     1       7.831  -1.216  22.791  0.00  0.00    -0.283 N 
ATOM      3  H   UNL     1       7.022  -0.680  23.095  0.00  0.00    +0.155 HD
ATOM      4  O   UNL     1       9.818  -1.026  21.607  0.00  0.00    -0.275 OA
ENDROOT
BRANCH   2   5
ATOM      5  C   UNL     1       7.668  -2.620  22.850  0.00  0.00    +0.072 A 
ATOM      6  C   UNL     1       8.339  -3.317  23.867  0.00  0.00    +0.145 A 
ATOM      7  F   UNL     1       9.123  -2.647  24.727  0.00  0.00    -0.204 F 
ATOM      8  C   UNL     1       8.227  -4.701  24.005  0.00  0.00    +0.043 A 
ATOM      9  C   UNL     1       7.430  -5.415  23.114  0.00  0.00    +0.041 A 
ATOM     10  C   UNL     1       6.768  -4.734  22.099  0.00  0.00    +0.125 A 
ATOM     11  F   UNL     1       6.002  -5.420  21.240  0.00  0.00    -0.205 F 
ATOM     12  C   UNL     1       6.884  -3.353  21.956  0.00  0.00    +0.064 A 
ENDBRANCH   2   5
BRANCH   1  14
ATOM     13  C   UNL     1       9.428   1.652  23.548  0.00  0.00    +0.110 C 
ATOM     14  C   UNL     1       8.874   0.956  22.322  0.00  0.00    +0.090 C 
ATOM     15  C   UNL     1      10.052   1.877  22.186  0.00  0.00    +0.029 C 
BRANCH  13  16
ATOM     16  C   UNL     1      10.201   0.919  24.581  0.00  0.00    +0.309 C 
ATOM     17  O   UNL     1      11.404   0.742  24.487  0.00  0.00    -0.251 OA
BRANCH  16  18
ATOM     18  O   UNL     1       9.459   0.485  25.621  0.00  0.00    -0.480 OA
ATOM     19  H   UNL     1       8.580   0.143  25.375  0.00  0.00    +0.295 HD
ENDBRANCH  16  18
ENDBRANCH  13  16
ENDBRANCH   1  14
TORSDOF 4
ENDMDL
MODEL 9
REMARK VINA RESULT:      -5.7      1.733      2.392
REMARK  Name = 
REMARK  4 active torsions:
REMARK  status: ('A' for Active; 'I' for Inactive)
REMARK    1  A    between atoms: C_2  and  C_17
REMARK    2  A    between atoms: C_4  and  C_6
REMARK    3  A    between atoms: N_8  and  C_9
REMARK    4  A    between atoms: C_17  and  O_18
REMARK                            x       y       z     vdW  Elec       q    Type
REMARK                         _______ _______ _______ _____ _____    ______ ____
ROOT
ATOM      1  C   UNL     1       8.448  -2.329  25.315  0.00  0.00    +0.221 C 
ATOM      2  N   UNL     1       9.512  -2.023  24.495  0.00  0.00    -0.283 N 
ATOM      3  H   UNL     1      10.223  -2.736  24.353  0.00  0.00    +0.155 HD
ATOM      4  O   UNL     1       7.416  -1.684  25.430  0.00  0.00    -0.275 OA
ENDROOT
BRANCH   2   5
ATOM      5  C   UNL     1       9.643  -0.883  23.667  0.00  0.00    +0.072 A 
ATOM      6  C   UNL     1      10.277   0.249  24.204  0.00  0.00    +0.145 A 
ATOM      7  F   UNL     1      10.713   0.228  25.473  0.00  0.00    -0.204 F 
ATOM      8  C   UNL     1      10.456   1.413  23.455  0.00  0.00    +0.043 A 
ATOM      9  C   UNL     1       9.998   1.459  22.141  0.00  0.00    +0.041 A 
ATOM     10  C   UNL     1       9.362   0.345  21.605  0.00  0.00    +0.125 A 
ATOM     11  F   UNL     1       8.919   0.388  20.341  0.00  0.00    -0.205 F 
ATOM     12  C   UNL     1       9.176  -0.815  22.353  0.00  0.00    +0.064 A 
ENDBRANCH   2   5
BRANCH   1  14
ATOM     13  C   UNL     1       7.927  -4.866  25.709  0.00  0.00    +0.110 C 
ATOM     14  C   UNL     1       8.553  -3.559  26.152  0.00  0.00    +0.090 C 
ATOM     15  C   UNL     1       9.426  -4.755  25.900  0.00  0.00    +0.029 C 
BRANCH  13  16
ATOM     16  C   UNL     1       7.389  -5.050  24.338  0.00  0.00    +0.309 C 
ATOM     17  O   UNL     1       6.223  -4.817  24.062  0.00  0.00    -0.251 OA
BRANCH  16  18
ATOM     18  O   UNL     1       8.300  -5.478  23.440  0.00  0.00    -0.480 OA
ATOM     19  H   UNL     1       7.972  -5.523  22.522  0.00  0.00    +0.295 HD
ENDBRANCH  16  18
ENDBRANCH  13  16
ENDBRANCH   1  14
TORSDOF 4
ENDMDL
