MODEL 1
REMARK VINA RESULT:      -4.8      0.000      0.000
REMARK  Name = 
REMARK  0 active torsions:
REMARK  status: ('A' for Active; 'I' for Inactive)
REMARK                            x       y       z     vdW  Elec       q    Type
REMARK                         _______ _______ _______ _____ _____    ______ ____
ROOT
ATOM      1  N   UNL     1      10.301  -5.493  25.672  0.00  0.00    -0.341 N 
ATOM      2  H   UNL     1      10.433  -6.234  26.344  0.00  0.00    +0.144 HD
ATOM      3  H   UNL     1      10.910  -5.539  24.862  0.00  0.00    +0.144 HD
ATOM      4  C   UNL     1       8.993  -5.311  25.251  0.00  0.00    +0.144 A 
ATOM      5  C   UNL     1       7.887  -5.475  26.067  0.00  0.00    +0.105 A 
ATOM      6  C   UNL     1       6.611  -5.281  25.559  0.00  0.00    +0.094 A 
ATOM      7  C   UNL     1       5.690  -5.507  26.609  0.00  0.00    +0.047 A 
ATOM      8  C   UNL     1       6.420  -5.828  27.735  0.00  0.00    +0.085 A 
ATOM      9  N   UNL     1       6.380  -4.937  24.275  0.00  0.00    -0.234 NA
ATOM     10  C   UNL     1       7.507  -4.798  23.562  0.00  0.00    +0.224 A 
ATOM     11  N   UNL     1       7.750  -5.795  27.395  0.00  0.00    -0.357 N 
ATOM     12  H   UNL     1       8.521  -5.964  28.027  0.00  0.00    +0.165 HD
ATOM     13  N   UNL     1       8.780  -4.966  23.971  0.00  0.00    -0.219 NA
ENDROOT
TORSDOF 0
ENDMDL
MODEL 2
REMARK VINA RESULT:      -4.6      5.572      6.944
REMARK  Name = 
REMARK  0 active torsions:
REMARK  status: ('A' for Active; 'I' for Inactive)
REMARK                            x       y       z     vdW  Elec       q    Type
REMARK                         _______ _______ _______ _____ _____    ______ ____
ROOT
ATOM      1  N   UNL     1       9.850   2.136  21.464  0.00  0.00    -0.341 N 
ATOM      2  H   UNL     1       9.013   1.992  20.919  0.00  0.00    +0.144 HD
ATOM      3  H   UNL     1      10.002   3.091  21.769  0.00  0.00    +0.144 HD
ATOM      4  C   UNL     1       9.999   1.281  22.546  0.00  0.00    +0.144 A 
ATOM      5  C   UNL     1       9.599  -0.044  22.546  0.00  0.00    +0.105 A 
ATOM      6  C   UNL     1       9.777  -0.825  23.678  0.00  0.00    +0.094 A 
ATOM      7  C   UNL     1       9.290  -2.121  23.388  0.00  0.00    +0.047 A 
ATOM      8  C   UNL     1       8.830  -2.107  22.087  0.00  0.00    +0.085 A 
ATOM      9  N   UNL     1      10.329  -0.351  24.814  0.00  0.00    -0.234 NA
ATOM     10  C   UNL     1      10.687   0.938  24.721  0.00  0.00    +0.224 A 
ATOM     11  N   UNL     1       9.033  -0.846  21.585  0.00  0.00    -0.357 N 
ATOM     12  H   UNL     1       8.816  -0.546  20.644  0.00  0.00    +0.165 HD
ATOM     13  N   UNL     1      10.551   1.768  23.668  0.00  0.00    -0.219 NA
ENDROOT
TORSDOF 0
ENDMDL
MODEL 3
REMARK VINA RESULT:      -4.5      6.168      7.586
REMARK  Name = 
REMARK  0 active torsions:
REMARK  status: ('A' for Active; 'I' for Inactive)
REMARK                            x       y       z     vdW  Elec       q    Type
REMARK                         _______ _______ _______ _____ _____    ______ ____
ROOT
ATOM      1  N   UNL     1       9.448  -0.922  20.875  0.00  0.00    -0.341 N 
ATOM      2  H   UNL     1       9.989  -0.447  20.169  0.00  0.00    +0.144 HD
ATOM      3  H   UNL     1       9.471  -1.935  20.822  0.00  0.00    +0.144 HD
ATOM      4  C   UNL     1       9.709  -0.527  22.178  0.00  0.00    +0.144 A 
ATOM      5  C   UNL     1      10.018   0.771  22.546  0.00  0.00    +0.105 A 
ATOM      6  C   UNL     1      10.275   1.076  23.874  0.00  0.00    +0.094 A 
ATOM      7  C   UNL     1      10.550   2.461  23.953  0.00  0.00    +0.047 A 
ATOM      8  C   UNL     1      10.450   2.975  22.676  0.00  0.00    +0.085 A 
ATOM      9  N   UNL     1      10.246   0.151  24.856  0.00  0.00    -0.234 NA
ATOM     10  C   UNL     1       9.936  -1.074  24.408  0.00  0.00    +0.224 A 
ATOM     11  N   UNL     1      10.117   1.942  21.835  0.00  0.00    -0.357 N 
ATOM     12  H   UNL     1       9.951   2.024  20.841  0.00  0.00    +0.165 HD
ATOM     13  N   UNL     1       9.673  -1.459  23.143  0.00  0.00    -0.219 NA
ENDROOT
TORSDOF 0
ENDMDL
MODEL 4
REMARK VINA RESULT:      -4.4      5.788      6.978
REMARK  Name = 
REMARK  0 active torsions:
REMARK  status: ('A' for Active; 'I' for Inactive)
REMARK                            x       y       z     vdW  Elec       q    Type
REMARK                         _______ _______ _______ _____ _____    ______ ____
ROOT
ATOM      1  N   UNL     1       9.380  -0.329  26.252  0.00  0.00    -0.341 N 
ATOM      2  H   UNL     1       8.794   0.444  26.529  0.00  0.00    +0.144 HD
ATOM      3  H   UNL     1       9.089  -1.233  26.608  0.00  0.00    +0.144 HD
ATOM      4  C   UNL     1       9.615  -0.428  24.889  0.00  0.00    +0.144 A 
ATOM      5  C   UNL     1       9.760   0.662  24.048  0.00  0.00    +0.105 A 
ATOM      6  C   UNL     1       9.983   0.470  22.693  0.00  0.00    +0.094 A 
ATOM      7  C   UNL     1      10.099   1.745  22.091  0.00  0.00    +0.047 A 
ATOM      8  C   UNL     1       9.950   2.687  23.088  0.00  0.00    +0.085 A 
ATOM      9  N   UNL     1      10.063  -0.754  22.130  0.00  0.00    -0.234 NA
ATOM     10  C   UNL     1       9.913  -1.747  23.019  0.00  0.00    +0.224 A 
ATOM     11  N   UNL     1       9.756   2.017  24.270  0.00  0.00    -0.357 N 
ATOM     12  H   UNL     1       9.642   2.448  25.178  0.00  0.00    +0.165 HD
ATOM     13  N   UNL     1       9.693  -1.653  24.346  0.00  0.00    -0.219 NA
ENDROOT
TORSDOF 0
ENDMDL
MODEL 5
REMARK VINA RESULT:      -4.2      2.738      4.480
REMARK  Name = 
REMARK  0 active torsions:
REMARK  status: ('A' for Active; 'I' for Inactive)
REMARK                            x       y       z     vdW  Elec       q    Type
REMARK                         _______ _______ _______ _____ _____    ______ ____
ROOT
ATOM      1  N   UNL     1       6.279  -1.553  22.911  0.00  0.00    -0.341 N 
ATOM      2  H   UNL     1       5.325  -1.689  22.612  0.00  0.00    +0.144 HD
ATOM      3  H   UNL     1       6.398  -0.897  23.675  0.00  0.00    +0.144 HD
ATOM      4  C   UNL     1       6.976  -2.718  23.196  0.00  0.00    +0.144 A 
ATOM      5  C   UNL     1       6.811  -3.907  22.506  0.00  0.00    +0.105 A 
ATOM      6  C   UNL     1       7.543  -5.028  22.867  0.00  0.00    +0.094 A 
ATOM      7  C   UNL     1       7.179  -6.080  21.994  0.00  0.00    +0.047 A 
ATOM      8  C   UNL     1       6.239  -5.580  21.116  0.00  0.00    +0.085 A 
ATOM      9  N   UNL     1       8.428  -5.028  23.885  0.00  0.00    -0.234 NA
ATOM     10  C   UNL     1       8.523  -3.835  24.492  0.00  0.00    +0.224 A 
ATOM     11  N   UNL     1       6.032  -4.259  21.432  0.00  0.00    -0.357 N 
ATOM     12  H   UNL     1       5.413  -3.628  20.941  0.00  0.00    +0.165 HD
ATOM     13  N   UNL     1       7.854  -2.700  24.211  0.00  0.00    -0.219 NA
ENDROOT
TORSDOF 0
ENDMDL
MODEL 6
REMARK VINA RESULT:      -4.2      5.918      7.122
REMARK  Name = 
REMARK  0 active torsions:
REMARK  status: ('A' for Active; 'I' for Inactive)
REMARK                            x       y       z     vdW  Elec       q    Type
REMARK                         _______ _______ _______ _____ _____    ______ ____
ROOT
ATOM      1  N   UNL     1       9.129   0.485  25.882  0.00  0.00    -0.341 N 
ATOM      2  H   UNL     1       9.361  -0.470  26.109  0.00  0.00    +0.144 HD
ATOM      3  H   UNL     1       9.489   1.178  26.531  0.00  0.00    +0.144 HD
ATOM      4  C   UNL     1       9.435   0.871  24.586  0.00  0.00    +0.144 A 
ATOM      5  C   UNL     1       9.334   0.036  23.486  0.00  0.00    +0.105 A 
ATOM      6  C   UNL     1       9.671   0.502  22.225  0.00  0.00    +0.094 A 
ATOM      7  C   UNL     1       9.464  -0.553  21.306  0.00  0.00    +0.047 A 
ATOM      8  C   UNL     1       9.001  -1.638  22.021  0.00  0.00    +0.085 A 
ATOM      9  N   UNL     1      10.110   1.758  22.002  0.00  0.00    -0.234 NA
ATOM     10  C   UNL     1      10.173   2.494  23.122  0.00  0.00    +0.224 A 
ATOM     11  N   UNL     1       8.917  -1.264  23.340  0.00  0.00    -0.357 N 
ATOM     12  H   UNL     1       8.584  -1.848  24.095  0.00  0.00    +0.165 HD
ATOM     13  N   UNL     1       9.868   2.124  24.382  0.00  0.00    -0.219 NA
ENDROOT
TORSDOF 0
ENDMDL
MODEL 7
REMARK VINA RESULT:      -4.2      1.214      2.785
REMARK  Name = 
REMARK  0 active torsions:
REMARK  status: ('A' for Active; 'I' for Inactive)
REMARK                            x       y       z     vdW  Elec       q    Type
REMARK                         _______ _______ _______ _____ _____    ______ ____
ROOT
ATOM      1  N   UNL     1       7.542  -5.952  27.520  0.00  0.00    -0.341 N 
ATOM      2  H   UNL     1       6.952  -6.765  27.427  0.00  0.00    +0.144 HD
ATOM      3  H   UNL     1       8.366  -6.086  28.095  0.00  0.00    +0.144 HD
ATOM      4  C   UNL     1       7.911  -5.355  26.324  0.00  0.00    +0.144 A 
ATOM      5  C   UNL     1       7.089  -5.278  25.212  0.00  0.00    +0.105 A 
ATOM      6  C   UNL     1       7.544  -4.672  24.051  0.00  0.00    +0.094 A 
ATOM      7  C   UNL     1       6.502  -4.732  23.097  0.00  0.00    +0.047 A 
ATOM      8  C   UNL     1       5.433  -5.366  23.694  0.00  0.00    +0.085 A 
ATOM      9  N   UNL     1       8.780  -4.142  23.938  0.00  0.00    -0.234 NA
ATOM     10  C   UNL     1       9.502  -4.260  25.063  0.00  0.00    +0.224 A 
ATOM     11  N   UNL     1       5.798  -5.683  24.978  0.00  0.00    -0.357 N 
ATOM     12  H   UNL     1       5.206  -6.133  25.663  0.00  0.00    +0.165 HD
ATOM     13  N   UNL     1       9.142  -4.831  26.229  0.00  0.00    -0.219 NA
ENDROOT
TORSDOF 0
ENDMDL
MODEL 8
REMARK VINA RESULT:      -4.1      8.038      9.408
REMARK  Name = 
REMARK  0 active torsions:
REMARK  status: ('A' for Active; 'I' for Inactive)
REMARK                            x       y       z     vdW  Elec       q    Type
REMARK                         _______ _______ _______ _____ _____    ______ ____
ROOT
ATOM      1  N   UNL     1       6.331   3.923  21.810  0.00  0.00    -0.341 N 
ATOM      2  H   UNL     1       5.771   3.109  21.609  0.00  0.00    +0.144 HD
ATOM      3  H   UNL     1       5.853   4.653  22.327  0.00  0.00    +0.144 HD
ATOM      4  C   UNL     1       7.552   3.661  22.413  0.00  0.00    +0.144 A 
ATOM      5  C   UNL     1       8.330   2.550  22.133  0.00  0.00    +0.105 A 
ATOM      6  C   UNL     1       9.535   2.361  22.793  0.00  0.00    +0.094 A 
ATOM      7  C   UNL     1      10.109   1.164  22.305  0.00  0.00    +0.047 A 
ATOM      8  C   UNL     1       9.249   0.650  21.357  0.00  0.00    +0.085 A 
ATOM      9  N   UNL     1      10.003   3.219  23.722  0.00  0.00    -0.234 NA
ATOM     10  C   UNL     1       9.187   4.264  23.925  0.00  0.00    +0.224 A 
ATOM     11  N   UNL     1       8.180   1.505  21.255  0.00  0.00    -0.357 N 
ATOM     12  H   UNL     1       7.401   1.399  20.620  0.00  0.00    +0.165 HD
ATOM     13  N   UNL     1       8.004   4.526  23.334  0.00  0.00    -0.219 NA
ENDROOT
TORSDOF 0
ENDMDL
MODEL 9
REMARK VINA RESULT:      -4.1      5.155      6.576
REMARK  Name = 
REMARK  0 active torsions:
REMARK  status: ('A' for Active; 'I' for Inactive)
REMARK                            x       y       z     vdW  Elec       q    Type
REMARK                         _______ _______ _______ _____ _____    ______ ____
ROOT
ATOM      1  N   UNL     1       6.071   0.180  23.789  0.00  0.00    -0.341 N 
ATOM      2  H   UNL     1       6.190  -0.208  24.713  0.00  0.00    +0.144 HD
ATOM      3  H   UNL     1       5.558   1.055  23.757  0.00  0.00    +0.144 HD
ATOM      4  C   UNL     1       7.238   0.307  23.052  0.00  0.00    +0.144 A 
ATOM      5  C   UNL     1       8.289  -0.593  23.106  0.00  0.00    +0.105 A 
ATOM      6  C   UNL     1       9.425  -0.382  22.340  0.00  0.00    +0.094 A 
ATOM      7  C   UNL     1      10.317  -1.452  22.589  0.00  0.00    +0.047 A 
ATOM      8  C   UNL     1       9.706  -2.295  23.494  0.00  0.00    +0.085 A 
ATOM      9  N   UNL     1       9.572   0.683  21.525  0.00  0.00    -0.234 NA
ATOM     10  C   UNL     1       8.505   1.497  21.535  0.00  0.00    +0.224 A 
ATOM     11  N   UNL     1       8.474  -1.768  23.792  0.00  0.00    -0.357 N 
ATOM     12  H   UNL     1       7.791  -2.184  24.410  0.00  0.00    +0.165 HD
ATOM     13  N   UNL     1       7.366   1.371  22.245  0.00  0.00    -0.219 NA
ENDROOT
TORSDOF 0
ENDMDL
