MODEL 1
REMARK VINA RESULT:      -8.3      0.000      0.000
REMARK  Name = 
REMARK  4 active torsions:
REMARK  status: ('A' for Active; 'I' for Inactive)
REMARK    1  A    between atoms: C_12  and  O_13
REMARK    2  A    between atoms: N_17  and  C_18
REMARK    3  A    between atoms: C_18  and  C_19
REMARK    4  A    between atoms: C_22  and  N_23
REMARK                            x       y       z     vdW  Elec       q    Type
REMARK                         _______ _______ _______ _____ _____    ______ ____
ROOT
ATOM      1  C   UNL     1       6.842  -3.675  23.022  0.00  0.00    +0.127 C 
ATOM      2  N   UNL     1       7.622  -3.563  24.263  0.00  0.00    -0.313 N 
ATOM      3  C   UNL     1       7.159  -4.153  25.446  0.00  0.00    +0.038 A 
ATOM      4  C   UNL     1       5.934  -3.747  26.045  0.00  0.00    -0.001 A 
ATOM      5  C   UNL     1       5.596  -4.189  27.337  0.00  0.00    +0.055 A 
ATOM      6  C   UNL     1       6.405  -5.110  27.991  0.00  0.00    +0.118 A 
ATOM      7  C   UNL     1       7.531  -5.621  27.370  0.00  0.00    +0.047 A 
ATOM      8  C   UNL     1       4.951  -2.877  25.362  0.00  0.00    +0.010 C 
ATOM      9  C   UNL     1       4.646  -3.026  24.063  0.00  0.00    +0.006 C 
ATOM     10  C   UNL     1       7.913  -5.131  26.119  0.00  0.00    +0.027 A 
ATOM     11  C   UNL     1       5.356  -3.969  23.223  0.00  0.00    -0.027 C 
ATOM     12  C   UNL     1       4.762  -5.078  22.729  0.00  0.00    -0.017 C 
ATOM     13  C   UNL     1       5.543  -6.165  22.018  0.00  0.00    +0.054 C 
ATOM     14  C   UNL     1       7.040  -5.995  22.232  0.00  0.00    -0.025 C 
ATOM     15  C   UNL     1       7.490  -4.726  22.109  0.00  0.00    -0.004 C 
ENDROOT
BRANCH   6  16
ATOM     16  O   UNL     1       6.115  -5.551  29.248  0.00  0.00    -0.507 OA
ATOM     17  H   UNL     1       5.272  -6.032  29.219  0.00  0.00    +0.292 HD
ENDBRANCH   6  16
BRANCH   2  18
ATOM     18  C   UNL     1       9.064  -3.306  24.085  0.00  0.00    +0.163 C 
BRANCH  18  19
ATOM     19  C   UNL     1       9.384  -1.865  23.768  0.00  0.00    +0.077 A 
ATOM     20  C   UNL     1      10.102  -1.503  22.643  0.00  0.00    +0.138 A 
ATOM     21  N   UNL     1      10.331  -0.210  22.296  0.00  0.00    -0.232 NA
ATOM     22  C   UNL     1       9.814   0.742  23.078  0.00  0.00    +0.185 A 
ATOM     23  C   UNL     1       9.148   0.376  24.255  0.00  0.00    +0.148 A 
ATOM     24  C   UNL     1       8.698   1.444  25.016  0.00  0.00    +0.149 A 
ATOM     25  N   UNL     1       8.819   2.727  24.645  0.00  0.00    -0.198 NA
ATOM     26  C   UNL     1       9.401   2.946  23.473  0.00  0.00    +0.216 A 
ATOM     27  N   UNL     1       9.454   4.249  23.029  0.00  0.00    -0.327 N 
ATOM     28  H   UNL     1      10.200   4.368  22.358  0.00  0.00    +0.145 HD
ATOM     29  H   UNL     1       9.405   4.895  23.802  0.00  0.00    +0.145 HD
ATOM     30  N   UNL     1       9.946   2.012  22.696  0.00  0.00    -0.193 NA
ATOM     31  N   UNL     1       8.930  -0.917  24.618  0.00  0.00    -0.242 NA
BRANCH  24  32
ATOM     32  N   UNL     1       8.150   1.218  26.291  0.00  0.00    -0.341 N 
ATOM     33  H   UNL     1       7.361   0.586  26.220  0.00  0.00    +0.144 HD
ATOM     34  H   UNL     1       8.870   0.934  26.951  0.00  0.00    +0.144 HD
ENDBRANCH  24  32
ENDBRANCH  18  19
ENDBRANCH   2  18
TORSDOF 4
ENDMDL
MODEL 2
REMARK VINA RESULT:      -8.1      2.014      4.286
REMARK  Name = 
REMARK  4 active torsions:
REMARK  status: ('A' for Active; 'I' for Inactive)
REMARK    1  A    between atoms: C_12  and  O_13
REMARK    2  A    between atoms: N_17  and  C_18
REMARK    3  A    between atoms: C_18  and  C_19
REMARK    4  A    between atoms: C_22  and  N_23
REMARK                            x       y       z     vdW  Elec       q    Type
REMARK                         _______ _______ _______ _____ _____    ______ ____
ROOT
ATOM      1  C   UNL     1       6.923  -3.049  26.470  0.00  0.00    +0.127 C 
ATOM      2  N   UNL     1       6.526  -2.733  25.090  0.00  0.00    -0.313 N 
ATOM      3  C   UNL     1       6.396  -3.753  24.139  0.00  0.00    +0.038 A 
ATOM      4  C   UNL     1       7.507  -4.554  23.756  0.00  0.00    -0.001 A 
ATOM      5  C   UNL     1       7.410  -5.418  22.650  0.00  0.00    +0.055 A 
ATOM      6  C   UNL     1       6.195  -5.574  21.994  0.00  0.00    +0.118 A 
ATOM      7  C   UNL     1       5.067  -4.905  22.435  0.00  0.00    +0.047 A 
ATOM      8  C   UNL     1       8.794  -4.549  24.485  0.00  0.00    +0.010 C 
ATOM      9  C   UNL     1       8.856  -4.526  25.826  0.00  0.00    +0.006 C 
ATOM     10  C   UNL     1       5.174  -3.989  23.485  0.00  0.00    +0.027 A 
ATOM     11  C   UNL     1       7.663  -4.376  26.635  0.00  0.00    -0.027 C 
ATOM     12  C   UNL     1       7.193  -5.378  27.411  0.00  0.00    -0.017 C 
ATOM     13  C   UNL     1       5.847  -5.300  28.103  0.00  0.00    +0.054 C 
ATOM     14  C   UNL     1       5.012  -4.151  27.555  0.00  0.00    -0.025 C 
ATOM     15  C   UNL     1       5.688  -2.993  27.380  0.00  0.00    -0.004 C 
ENDROOT
BRANCH   6  16
ATOM     16  O   UNL     1       6.068  -6.392  20.911  0.00  0.00    -0.507 OA
ATOM     17  H   UNL     1       6.785  -6.192  20.287  0.00  0.00    +0.292 HD
ENDBRANCH   6  16
BRANCH   2  18
ATOM     18  C   UNL     1       5.788  -1.467  24.918  0.00  0.00    +0.163 C 
BRANCH  18  19
ATOM     19  C   UNL     1       6.679  -0.285  24.622  0.00  0.00    +0.077 A 
ATOM     20  C   UNL     1       6.690   0.844  25.420  0.00  0.00    +0.138 A 
ATOM     21  N   UNL     1       7.541   1.884  25.220  0.00  0.00    -0.232 NA
ATOM     22  C   UNL     1       8.414   1.784  24.213  0.00  0.00    +0.185 A 
ATOM     23  C   UNL     1       8.355   0.673  23.362  0.00  0.00    +0.148 A 
ATOM     24  C   UNL     1       9.273   0.697  22.323  0.00  0.00    +0.149 A 
ATOM     25  N   UNL     1      10.193   1.659  22.163  0.00  0.00    -0.198 NA
ATOM     26  C   UNL     1      10.200   2.622  23.076  0.00  0.00    +0.216 A 
ATOM     27  N   UNL     1      11.194   3.571  22.985  0.00  0.00    -0.327 N 
ATOM     28  H   UNL     1      10.920   4.422  23.455  0.00  0.00    +0.145 HD
ATOM     29  H   UNL     1      11.539   3.642  22.039  0.00  0.00    +0.145 HD
ATOM     30  N   UNL     1       9.320   2.750  24.067  0.00  0.00    -0.193 NA
ATOM     31  N   UNL     1       7.494  -0.364  23.547  0.00  0.00    -0.242 NA
BRANCH  24  32
ATOM     32  N   UNL     1       9.218  -0.280  21.313  0.00  0.00    -0.341 N 
ATOM     33  H   UNL     1       9.790   0.005  20.526  0.00  0.00    +0.144 HD
ATOM     34  H   UNL     1       9.429  -1.201  21.687  0.00  0.00    +0.144 HD
ENDBRANCH  24  32
ENDBRANCH  18  19
ENDBRANCH   2  18
TORSDOF 4
ENDMDL
MODEL 3
REMARK VINA RESULT:      -8.0      2.893      6.987
REMARK  Name = 
REMARK  4 active torsions:
REMARK  status: ('A' for Active; 'I' for Inactive)
REMARK    1  A    between atoms: C_12  and  O_13
REMARK    2  A    between atoms: N_17  and  C_18
REMARK    3  A    between atoms: C_18  and  C_19
REMARK    4  A    between atoms: C_22  and  N_23
REMARK                            x       y       z     vdW  Elec       q    Type
REMARK                         _______ _______ _______ _____ _____    ______ ____
ROOT
ATOM      1  C   UNL     1       9.969  -1.289  23.376  0.00  0.00    +0.127 C 
ATOM      2  N   UNL     1       8.845  -1.923  24.082  0.00  0.00    -0.313 N 
ATOM      3  C   UNL     1       7.862  -1.138  24.697  0.00  0.00    +0.038 A 
ATOM      4  C   UNL     1       8.181  -0.253  25.764  0.00  0.00    -0.001 A 
ATOM      5  C   UNL     1       7.156   0.357  26.510  0.00  0.00    +0.055 A 
ATOM      6  C   UNL     1       5.829   0.184  26.138  0.00  0.00    +0.118 A 
ATOM      7  C   UNL     1       5.504  -0.564  25.021  0.00  0.00    +0.047 A 
ATOM      8  C   UNL     1       9.571   0.092  26.138  0.00  0.00    +0.010 C 
ATOM      9  C   UNL     1      10.519   0.335  25.218  0.00  0.00    +0.006 C 
ATOM     10  C   UNL     1       6.511  -1.233  24.320  0.00  0.00    +0.027 A 
ATOM     11  C   UNL     1      10.265   0.149  23.804  0.00  0.00    -0.027 C 
ATOM     12  C   UNL     1      10.207   1.189  22.943  0.00  0.00    -0.017 C 
ATOM     13  C   UNL     1       9.749   1.025  21.507  0.00  0.00    +0.054 C 
ATOM     14  C   UNL     1       9.086  -0.328  21.293  0.00  0.00    -0.025 C 
ATOM     15  C   UNL     1       9.730  -1.372  21.862  0.00  0.00    -0.004 C 
ENDROOT
BRANCH   6  16
ATOM     16  O   UNL     1       4.809   0.749  26.845  0.00  0.00    -0.507 OA
ATOM     17  H   UNL     1       3.980   0.308  26.597  0.00  0.00    +0.292 HD
ENDBRANCH   6  16
BRANCH   2  18
ATOM     18  C   UNL     1       8.530  -3.301  23.662  0.00  0.00    +0.163 C 
BRANCH  18  19
ATOM     19  C   UNL     1       8.016  -4.170  24.784  0.00  0.00    +0.077 A 
ATOM     20  C   UNL     1       8.658  -4.246  26.007  0.00  0.00    +0.138 A 
ATOM     21  N   UNL     1       8.169  -4.958  27.056  0.00  0.00    -0.232 NA
ATOM     22  C   UNL     1       7.003  -5.590  26.887  0.00  0.00    +0.185 A 
ATOM     23  C   UNL     1       6.391  -5.570  25.628  0.00  0.00    +0.148 A 
ATOM     24  C   UNL     1       5.214  -6.300  25.552  0.00  0.00    +0.149 A 
ATOM     25  N   UNL     1       4.655  -6.925  26.598  0.00  0.00    -0.198 NA
ATOM     26  C   UNL     1       5.289  -6.808  27.758  0.00  0.00    +0.216 A 
ATOM     27  N   UNL     1       4.687  -7.364  28.865  0.00  0.00    -0.327 N 
ATOM     28  H   UNL     1       5.368  -7.553  29.586  0.00  0.00    +0.145 HD
ATOM     29  H   UNL     1       4.060  -8.109  28.598  0.00  0.00    +0.145 HD
ATOM     30  N   UNL     1       6.464  -6.207  27.937  0.00  0.00    -0.193 NA
ATOM     31  N   UNL     1       6.883  -4.875  24.568  0.00  0.00    -0.242 NA
BRANCH  24  32
ATOM     32  N   UNL     1       4.581  -6.487  24.309  0.00  0.00    -0.341 N 
ATOM     33  H   UNL     1       3.575  -6.489  24.432  0.00  0.00    +0.144 HD
ATOM     34  H   UNL     1       4.929  -5.825  23.621  0.00  0.00    +0.144 HD
ENDBRANCH  24  32
ENDBRANCH  18  19
ENDBRANCH   2  18
TORSDOF 4
ENDMDL
MODEL 4
REMARK VINA RESULT:      -8.0      2.031      3.323
REMARK  Name = 
REMARK  4 active torsions:
REMARK  status: ('A' for Active; 'I' for Inactive)
REMARK    1  A    between atoms: C_12  and  O_13
REMARK    2  A    between atoms: N_17  and  C_18
REMARK    3  A    between atoms: C_18  and  C_19
REMARK    4  A    between atoms: C_22  and  N_23
REMARK                            x       y       z     vdW  Elec       q    Type
REMARK                         _______ _______ _______ _____ _____    ______ ____
ROOT
ATOM      1  C   UNL     1       4.212  -4.291  24.946  0.00  0.00    +0.127 C 
ATOM      2  N   UNL     1       5.493  -3.692  24.543  0.00  0.00    -0.313 N 
ATOM      3  C   UNL     1       6.702  -4.297  24.906  0.00  0.00    +0.038 A 
ATOM      4  C   UNL     1       7.073  -4.452  26.270  0.00  0.00    -0.001 A 
ATOM      5  C   UNL     1       8.378  -4.858  26.609  0.00  0.00    +0.055 A 
ATOM      6  C   UNL     1       9.276  -5.214  25.611  0.00  0.00    +0.118 A 
ATOM      7  C   UNL     1       8.892  -5.201  24.282  0.00  0.00    +0.047 A 
ATOM      8  C   UNL     1       6.136  -4.224  27.392  0.00  0.00    +0.010 C 
ATOM      9  C   UNL     1       4.860  -4.639  27.352  0.00  0.00    +0.006 C 
ATOM     10  C   UNL     1       7.623  -4.728  23.934  0.00  0.00    +0.027 A 
ATOM     11  C   UNL     1       4.292  -5.223  26.154  0.00  0.00    -0.027 C 
ATOM     12  C   UNL     1       3.943  -6.527  26.089  0.00  0.00    -0.017 C 
ATOM     13  C   UNL     1       3.536  -7.191  24.788  0.00  0.00    +0.054 C 
ATOM     14  C   UNL     1       3.885  -6.316  23.592  0.00  0.00    -0.025 C 
ATOM     15  C   UNL     1       3.585  -5.007  23.741  0.00  0.00    -0.004 C 
ENDROOT
BRANCH   6  16
ATOM     16  O   UNL     1      10.551  -5.600  25.902  0.00  0.00    -0.507 OA
ATOM     17  H   UNL     1      10.667  -6.521  25.616  0.00  0.00    +0.292 HD
ENDBRANCH   6  16
BRANCH   2  18
ATOM     18  C   UNL     1       5.437  -2.810  23.363  0.00  0.00    +0.163 C 
BRANCH  18  19
ATOM     19  C   UNL     1       6.281  -1.565  23.500  0.00  0.00    +0.077 A 
ATOM     20  C   UNL     1       6.010  -0.594  24.447  0.00  0.00    +0.138 A 
ATOM     21  N   UNL     1       6.802   0.492  24.640  0.00  0.00    -0.232 NA
ATOM     22  C   UNL     1       7.901   0.600  23.887  0.00  0.00    +0.185 A 
ATOM     23  C   UNL     1       8.136  -0.346  22.880  0.00  0.00    +0.148 A 
ATOM     24  C   UNL     1       9.276  -0.108  22.126  0.00  0.00    +0.149 A 
ATOM     25  N   UNL     1      10.131   0.896  22.364  0.00  0.00    -0.198 NA
ATOM     26  C   UNL     1       9.841   1.683  23.393  0.00  0.00    +0.216 A 
ATOM     27  N   UNL     1      10.752   2.665  23.713  0.00  0.00    -0.327 N 
ATOM     28  H   UNL     1      10.308   3.411  24.229  0.00  0.00    +0.145 HD
ATOM     29  H   UNL     1      11.311   2.913  22.910  0.00  0.00    +0.145 HD
ATOM     30  N   UNL     1       8.738   1.606  24.135  0.00  0.00    -0.193 NA
ATOM     31  N   UNL     1       7.338  -1.426  22.669  0.00  0.00    -0.242 NA
BRANCH  24  32
ATOM     32  N   UNL     1       9.545  -0.894  20.991  0.00  0.00    -0.341 N 
ATOM     33  H   UNL     1       9.902  -1.799  21.275  0.00  0.00    +0.144 HD
ATOM     34  H   UNL     1       8.739  -0.925  20.372  0.00  0.00    +0.144 HD
ENDBRANCH  24  32
ENDBRANCH  18  19
ENDBRANCH   2  18
TORSDOF 4
ENDMDL
MODEL 5
REMARK VINA RESULT:      -7.9      0.986      1.891
REMARK  Name = 
REMARK  4 active torsions:
REMARK  status: ('A' for Active; 'I' for Inactive)
REMARK    1  A    between atoms: C_12  and  O_13
REMARK    2  A    between atoms: N_17  and  C_18
REMARK    3  A    between atoms: C_18  and  C_19
REMARK    4  A    between atoms: C_22  and  N_23
REMARK                            x       y       z     vdW  Elec       q    Type
REMARK                         _______ _______ _______ _____ _____    ______ ____
ROOT
ATOM      1  C   UNL     1       6.307  -3.542  22.905  0.00  0.00    +0.127 C 
ATOM      2  N   UNL     1       7.073  -3.242  24.124  0.00  0.00    -0.313 N 
ATOM      3  C   UNL     1       6.906  -4.023  25.275  0.00  0.00    +0.038 A 
ATOM      4  C   UNL     1       5.653  -4.097  25.943  0.00  0.00    -0.001 A 
ATOM      5  C   UNL     1       5.560  -4.704  27.210  0.00  0.00    +0.055 A 
ATOM      6  C   UNL     1       6.670  -5.328  27.765  0.00  0.00    +0.118 A 
ATOM      7  C   UNL     1       7.865  -5.384  27.070  0.00  0.00    +0.047 A 
ATOM      8  C   UNL     1       4.396  -3.578  25.362  0.00  0.00    +0.010 C 
ATOM      9  C   UNL     1       4.084  -3.747  24.066  0.00  0.00    +0.006 C 
ATOM     10  C   UNL     1       7.985  -4.720  25.846  0.00  0.00    +0.027 A 
ATOM     11  C   UNL     1       5.023  -4.338  23.135  0.00  0.00    -0.027 C 
ATOM     12  C   UNL     1       4.813  -5.553  22.580  0.00  0.00    -0.017 C 
ATOM     13  C   UNL     1       5.875  -6.263  21.764  0.00  0.00    +0.054 C 
ATOM     14  C   UNL     1       7.235  -5.602  21.938  0.00  0.00    -0.025 C 
ATOM     15  C   UNL     1       7.219  -4.251  21.894  0.00  0.00    -0.004 C 
ENDROOT
BRANCH   6  16
ATOM     16  O   UNL     1       6.620  -5.913  28.995  0.00  0.00    -0.507 OA
ATOM     17  H   UNL     1       7.130  -6.740  28.964  0.00  0.00    +0.292 HD
ENDBRANCH   6  16
BRANCH   2  18
ATOM     18  C   UNL     1       8.328  -2.496  23.917  0.00  0.00    +0.163 C 
BRANCH  18  19
ATOM     19  C   UNL     1       8.216  -1.026  24.241  0.00  0.00    +0.077 A 
ATOM     20  C   UNL     1       7.634  -0.574  25.411  0.00  0.00    +0.138 A 
ATOM     21  N   UNL     1       7.595   0.738  25.760  0.00  0.00    -0.232 NA
ATOM     22  C   UNL     1       8.171   1.616  24.933  0.00  0.00    +0.185 A 
ATOM     23  C   UNL     1       8.697   1.167  23.715  0.00  0.00    +0.148 A 
ATOM     24  C   UNL     1       9.223   2.168  22.913  0.00  0.00    +0.149 A 
ATOM     25  N   UNL     1       9.293   3.457  23.279  0.00  0.00    -0.198 NA
ATOM     26  C   UNL     1       8.829   3.749  24.487  0.00  0.00    +0.216 A 
ATOM     27  N   UNL     1       8.974   5.049  24.920  0.00  0.00    -0.327 N 
ATOM     28  H   UNL     1       8.300   5.263  25.642  0.00  0.00    +0.145 HD
ATOM     29  H   UNL     1       9.048   5.683  24.139  0.00  0.00    +0.145 HD
ATOM     30  N   UNL     1       8.228   2.893  25.310  0.00  0.00    -0.193 NA
ATOM     31  N   UNL     1       8.723  -0.144  23.352  0.00  0.00    -0.242 NA
BRANCH  24  32
ATOM     32  N   UNL     1       9.645   1.873  21.604  0.00  0.00    -0.341 N 
ATOM     33  H   UNL     1       9.764   0.872  21.499  0.00  0.00    +0.144 HD
ATOM     34  H   UNL     1       9.033   2.308  20.919  0.00  0.00    +0.144 HD
ENDBRANCH  24  32
ENDBRANCH  18  19
ENDBRANCH   2  18
TORSDOF 4
ENDMDL
MODEL 6
REMARK VINA RESULT:      -7.6      2.753      6.961
REMARK  Name = 
REMARK  4 active torsions:
REMARK  status: ('A' for Active; 'I' for Inactive)
REMARK    1  A    between atoms: C_12  and  O_13
REMARK    2  A    between atoms: N_17  and  C_18
REMARK    3  A    between atoms: C_18  and  C_19
REMARK    4  A    between atoms: C_22  and  N_23
REMARK                            x       y       z     vdW  Elec       q    Type
REMARK                         _______ _______ _______ _____ _____    ______ ____
ROOT
ATOM      1  C   UNL     1       9.565  -0.572  22.952  0.00  0.00    +0.127 C 
ATOM      2  N   UNL     1       8.254  -1.039  23.429  0.00  0.00    -0.313 N 
ATOM      3  C   UNL     1       7.512  -0.265  24.330  0.00  0.00    +0.038 A 
ATOM      4  C   UNL     1       8.005   0.035  25.630  0.00  0.00    -0.001 A 
ATOM      5  C   UNL     1       7.160   0.621  26.591  0.00  0.00    +0.055 A 
ATOM      6  C   UNL     1       5.873   1.008  26.241  0.00  0.00    +0.118 A 
ATOM      7  C   UNL     1       5.419   0.848  24.944  0.00  0.00    +0.047 A 
ATOM      8  C   UNL     1       9.403  -0.220  26.041  0.00  0.00    +0.010 C 
ATOM      9  C   UNL     1      10.444   0.033  25.231  0.00  0.00    +0.006 C 
ATOM     10  C   UNL     1       6.225   0.200  24.005  0.00  0.00    +0.027 A 
ATOM     11  C   UNL     1      10.248   0.452  23.859  0.00  0.00    -0.027 C 
ATOM     12  C   UNL     1      10.568   1.695  23.436  0.00  0.00    -0.017 C 
ATOM     13  C   UNL     1      10.188   2.205  22.060  0.00  0.00    +0.054 C 
ATOM     14  C   UNL     1       9.165   1.291  21.400  0.00  0.00    -0.025 C 
ATOM     15  C   UNL     1       9.422  -0.030  21.523  0.00  0.00    -0.004 C 
ENDROOT
BRANCH   6  16
ATOM     16  O   UNL     1       5.023   1.567  27.149  0.00  0.00    -0.507 OA
ATOM     17  H   UNL     1       4.542   0.853  27.600  0.00  0.00    +0.292 HD
ENDBRANCH   6  16
BRANCH   2  18
ATOM     18  C   UNL     1       7.570  -2.008  22.553  0.00  0.00    +0.163 C 
BRANCH  18  19
ATOM     19  C   UNL     1       6.657  -2.954  23.297  0.00  0.00    +0.077 A 
ATOM     20  C   UNL     1       5.355  -3.185  22.895  0.00  0.00    +0.138 A 
ATOM     21  N   UNL     1       4.543  -4.091  23.501  0.00  0.00    -0.232 NA
ATOM     22  C   UNL     1       5.052  -4.796  24.516  0.00  0.00    +0.185 A 
ATOM     23  C   UNL     1       6.347  -4.511  24.968  0.00  0.00    +0.148 A 
ATOM     24  C   UNL     1       6.753  -5.266  26.058  0.00  0.00    +0.149 A 
ATOM     25  N   UNL     1       6.013  -6.239  26.609  0.00  0.00    -0.198 NA
ATOM     26  C   UNL     1       4.833  -6.468  26.046  0.00  0.00    +0.216 A 
ATOM     27  N   UNL     1       4.095  -7.522  26.536  0.00  0.00    -0.327 N 
ATOM     28  H   UNL     1       3.114  -7.400  26.327  0.00  0.00    +0.145 HD
ATOM     29  H   UNL     1       4.353  -7.731  27.489  0.00  0.00    +0.145 HD
ATOM     30  N   UNL     1       4.301  -5.757  25.054  0.00  0.00    -0.193 NA
ATOM     31  N   UNL     1       7.158  -3.593  24.377  0.00  0.00    -0.242 NA
BRANCH  24  32
ATOM     32  N   UNL     1       7.969  -4.974  26.702  0.00  0.00    -0.341 N 
ATOM     33  H   UNL     1       8.717  -5.521  26.290  0.00  0.00    +0.144 HD
ATOM     34  H   UNL     1       8.134  -3.971  26.729  0.00  0.00    +0.144 HD
ENDBRANCH  24  32
ENDBRANCH  18  19
ENDBRANCH   2  18
TORSDOF 4
ENDMDL
MODEL 7
REMARK VINA RESULT:      -7.6      1.249      2.128
REMARK  Name = 
REMARK  4 active torsions:
REMARK  status: ('A' for Active; 'I' for Inactive)
REMARK    1  A    between atoms: C_12  and  O_13
REMARK    2  A    between atoms: N_17  and  C_18
REMARK    3  A    between atoms: C_18  and  C_19
REMARK    4  A    between atoms: C_22  and  N_23
REMARK                            x       y       z     vdW  Elec       q    Type
REMARK                         _______ _______ _______ _____ _____    ______ ____
ROOT
ATOM      1  C   UNL     1       5.514  -3.550  24.003  0.00  0.00    +0.127 C 
ATOM      2  N   UNL     1       6.526  -3.590  25.068  0.00  0.00    -0.313 N 
ATOM      3  C   UNL     1       6.256  -4.245  26.277  0.00  0.00    +0.038 A 
ATOM      4  C   UNL     1       5.207  -3.814  27.134  0.00  0.00    -0.001 A 
ATOM      5  C   UNL     1       5.092  -4.339  28.435  0.00  0.00    +0.055 A 
ATOM      6  C   UNL     1       5.938  -5.360  28.849  0.00  0.00    +0.118 A 
ATOM      7  C   UNL     1       6.879  -5.888  27.983  0.00  0.00    +0.047 A 
ATOM      8  C   UNL     1       4.182  -2.829  26.722  0.00  0.00    +0.010 C 
ATOM      9  C   UNL     1       3.619  -2.851  25.503  0.00  0.00    +0.006 C 
ATOM     10  C   UNL     1       7.048  -5.321  26.717  0.00  0.00    +0.027 A 
ATOM     11  C   UNL     1       4.077  -3.764  24.476  0.00  0.00    -0.027 C 
ATOM     12  C   UNL     1       3.313  -4.788  24.036  0.00  0.00    -0.017 C 
ATOM     13  C   UNL     1       3.853  -5.860  23.111  0.00  0.00    +0.054 C 
ATOM     14  C   UNL     1       5.372  -5.804  23.032  0.00  0.00    -0.025 C 
ATOM     15  C   UNL     1       5.887  -4.560  22.909  0.00  0.00    -0.004 C 
ENDROOT
BRANCH   6  16
ATOM     16  O   UNL     1       5.864  -5.883  30.105  0.00  0.00    -0.507 OA
ATOM     17  H   UNL     1       6.209  -5.227  30.733  0.00  0.00    +0.292 HD
ENDBRANCH   6  16
BRANCH   2  18
ATOM     18  C   UNL     1       7.921  -3.411  24.624  0.00  0.00    +0.163 C 
BRANCH  18  19
ATOM     19  C   UNL     1       8.341  -1.964  24.525  0.00  0.00    +0.077 A 
ATOM     20  C   UNL     1       8.388  -1.135  25.630  0.00  0.00    +0.138 A 
ATOM     21  N   UNL     1       8.839   0.145  25.577  0.00  0.00    -0.232 NA
ATOM     22  C   UNL     1       9.272   0.600  24.397  0.00  0.00    +0.185 A 
ATOM     23  C   UNL     1       9.158  -0.215  23.264  0.00  0.00    +0.148 A 
ATOM     24  C   UNL     1       9.590   0.375  22.086  0.00  0.00    +0.149 A 
ATOM     25  N   UNL     1      10.137   1.598  22.022  0.00  0.00    -0.198 NA
ATOM     26  C   UNL     1      10.262   2.246  23.174  0.00  0.00    +0.216 A 
ATOM     27  N   UNL     1      10.903   3.464  23.146  0.00  0.00    -0.327 N 
ATOM     28  H   UNL     1      10.636   4.028  23.940  0.00  0.00    +0.145 HD
ATOM     29  H   UNL     1      10.844   3.881  22.228  0.00  0.00    +0.145 HD
ATOM     30  N   UNL     1       9.810   1.818  24.351  0.00  0.00    -0.193 NA
ATOM     31  N   UNL     1       8.691  -1.492  23.307  0.00  0.00    -0.242 NA
BRANCH  24  32
ATOM     32  N   UNL     1       9.390  -0.278  20.857  0.00  0.00    -0.341 N 
ATOM     33  H   UNL     1       8.402  -0.286  20.628  0.00  0.00    +0.144 HD
ATOM     34  H   UNL     1       9.995   0.110  20.137  0.00  0.00    +0.144 HD
ENDBRANCH  24  32
ENDBRANCH  18  19
ENDBRANCH   2  18
TORSDOF 4
ENDMDL
MODEL 8
REMARK VINA RESULT:      -7.4      3.654      7.688
REMARK  Name = 
REMARK  4 active torsions:
REMARK  status: ('A' for Active; 'I' for Inactive)
REMARK    1  A    between atoms: C_12  and  O_13
REMARK    2  A    between atoms: N_17  and  C_18
REMARK    3  A    between atoms: C_18  and  C_19
REMARK    4  A    between atoms: C_22  and  N_23
REMARK                            x       y       z     vdW  Elec       q    Type
REMARK                         _______ _______ _______ _____ _____    ______ ____
ROOT
ATOM      1  C   UNL     1       6.503  -0.847  25.462  0.00  0.00    +0.127 C 
ATOM      2  N   UNL     1       7.328  -1.177  24.291  0.00  0.00    -0.313 N 
ATOM      3  C   UNL     1       8.136  -0.199  23.696  0.00  0.00    +0.038 A 
ATOM      4  C   UNL     1       7.574   0.971  23.113  0.00  0.00    -0.001 A 
ATOM      5  C   UNL     1       8.373   1.827  22.332  0.00  0.00    +0.055 A 
ATOM      6  C   UNL     1       9.737   1.592  22.217  0.00  0.00    +0.118 A 
ATOM      7  C   UNL     1      10.327   0.536  22.887  0.00  0.00    +0.047 A 
ATOM      8  C   UNL     1       6.161   1.367  23.300  0.00  0.00    +0.010 C 
ATOM      9  C   UNL     1       5.541   1.264  24.487  0.00  0.00    +0.006 C 
ATOM     10  C   UNL     1       9.529  -0.361  23.603  0.00  0.00    +0.027 A 
ATOM     11  C   UNL     1       6.185   0.639  25.624  0.00  0.00    -0.027 C 
ATOM     12  C   UNL     1       6.558   1.346  26.714  0.00  0.00    -0.017 C 
ATOM     13  C   UNL     1       7.405   0.744  27.817  0.00  0.00    +0.054 C 
ATOM     14  C   UNL     1       8.015  -0.580  27.381  0.00  0.00    -0.025 C 
ATOM     15  C   UNL     1       7.169  -1.406  26.727  0.00  0.00    -0.004 C 
ENDROOT
BRANCH   6  16
ATOM     16  O   UNL     1      10.538   2.393  21.458  0.00  0.00    -0.507 OA
ATOM     17  H   UNL     1      10.268   3.317  21.595  0.00  0.00    +0.292 HD
ENDBRANCH   6  16
BRANCH   2  18
ATOM     18  C   UNL     1       7.665  -2.604  24.135  0.00  0.00    +0.163 C 
BRANCH  18  19
ATOM     19  C   UNL     1       6.461  -3.487  23.911  0.00  0.00    +0.077 A 
ATOM     20  C   UNL     1       5.600  -3.299  22.845  0.00  0.00    +0.138 A 
ATOM     21  N   UNL     1       4.558  -4.129  22.580  0.00  0.00    -0.232 NA
ATOM     22  C   UNL     1       4.386  -5.182  23.384  0.00  0.00    +0.185 A 
ATOM     23  C   UNL     1       5.214  -5.333  24.504  0.00  0.00    +0.148 A 
ATOM     24  C   UNL     1       4.913  -6.430  25.296  0.00  0.00    +0.149 A 
ATOM     25  N   UNL     1       3.958  -7.324  25.000  0.00  0.00    -0.198 NA
ATOM     26  C   UNL     1       3.290  -7.117  23.873  0.00  0.00    +0.216 A 
ATOM     27  N   UNL     1       2.368  -8.071  23.502  0.00  0.00    -0.327 N 
ATOM     28  H   UNL     1       1.678  -7.678  22.878  0.00  0.00    +0.145 HD
ATOM     29  H   UNL     1       2.041  -8.587  24.305  0.00  0.00    +0.145 HD
ATOM     30  N   UNL     1       3.431  -6.059  23.077  0.00  0.00    -0.193 NA
ATOM     31  N   UNL     1       6.248  -4.495  24.785  0.00  0.00    -0.242 NA
BRANCH  24  32
ATOM     32  N   UNL     1       5.568  -6.609  26.528  0.00  0.00    -0.341 N 
ATOM     33  H   UNL     1       4.887  -6.656  27.277  0.00  0.00    +0.144 HD
ATOM     34  H   UNL     1       6.214  -7.393  26.484  0.00  0.00    +0.144 HD
ENDBRANCH  24  32
ENDBRANCH  18  19
ENDBRANCH   2  18
TORSDOF 4
ENDMDL
MODEL 9
REMARK VINA RESULT:      -7.4      3.467      7.428
REMARK  Name = 
REMARK  4 active torsions:
REMARK  status: ('A' for Active; 'I' for Inactive)
REMARK    1  A    between atoms: C_12  and  O_13
REMARK    2  A    between atoms: N_17  and  C_18
REMARK    3  A    between atoms: C_18  and  C_19
REMARK    4  A    between atoms: C_22  and  N_23
REMARK                            x       y       z     vdW  Elec       q    Type
REMARK                         _______ _______ _______ _____ _____    ______ ____
ROOT
ATOM      1  C   UNL     1       8.453   2.468  24.481  0.00  0.00    +0.127 C 
ATOM      2  N   UNL     1       7.402   1.886  23.633  0.00  0.00    -0.313 N 
ATOM      3  C   UNL     1       6.123   2.455  23.601  0.00  0.00    +0.038 A 
ATOM      4  C   UNL     1       5.309   2.514  24.765  0.00  0.00    -0.001 A 
ATOM      5  C   UNL     1       3.955   2.885  24.666  0.00  0.00    +0.055 A 
ATOM      6  C   UNL     1       3.436   3.299  23.446  0.00  0.00    +0.118 A 
ATOM      7  C   UNL     1       4.246   3.379  22.328  0.00  0.00    +0.047 A 
ATOM      8  C   UNL     1       5.819   2.220  26.122  0.00  0.00    +0.010 C 
ATOM      9  C   UNL     1       7.021   2.648  26.542  0.00  0.00    +0.006 C 
ATOM     10  C   UNL     1       5.571   2.941  22.402  0.00  0.00    +0.027 A 
ATOM     11  C   UNL     1       7.941   3.316  25.645  0.00  0.00    -0.027 C 
ATOM     12  C   UNL     1       8.251   4.625  25.780  0.00  0.00    -0.017 C 
ATOM     13  C   UNL     1       9.052   5.378  24.736  0.00  0.00    +0.054 C 
ATOM     14  C   UNL     1       9.155   4.582  23.443  0.00  0.00    -0.025 C 
ATOM     15  C   UNL     1       9.427   3.268  23.606  0.00  0.00    -0.004 C 
ENDROOT
BRANCH   6  16
ATOM     16  O   UNL     1       2.126   3.653  23.310  0.00  0.00    -0.507 OA
ATOM     17  H   UNL     1       1.575   2.876  23.503  0.00  0.00    +0.292 HD
ENDBRANCH   6  16
BRANCH   2  18
ATOM     18  C   UNL     1       7.881   1.085  22.491  0.00  0.00    +0.163 C 
BRANCH  18  19
ATOM     19  C   UNL     1       8.434  -0.262  22.889  0.00  0.00    +0.077 A 
ATOM     20  C   UNL     1       9.723  -0.650  22.573  0.00  0.00    +0.138 A 
ATOM     21  N   UNL     1      10.267  -1.823  22.990  0.00  0.00    -0.232 NA
ATOM     22  C   UNL     1       9.513  -2.616  23.758  0.00  0.00    +0.185 A 
ATOM     23  C   UNL     1       8.185  -2.257  24.018  0.00  0.00    +0.148 A 
ATOM     24  C   UNL     1       7.481  -3.177  24.780  0.00  0.00    +0.149 A 
ATOM     25  N   UNL     1       8.023  -4.291  25.293  0.00  0.00    -0.198 NA
ATOM     26  C   UNL     1       9.312  -4.485  25.041  0.00  0.00    +0.216 A 
ATOM     27  N   UNL     1       9.912  -5.574  25.633  0.00  0.00    -0.327 N 
ATOM     28  H   UNL     1      10.738  -5.850  25.120  0.00  0.00    +0.145 HD
ATOM     29  H   UNL     1       9.231  -6.287  25.852  0.00  0.00    +0.145 HD
ATOM     30  N   UNL     1      10.067  -3.720  24.256  0.00  0.00    -0.193 NA
ATOM     31  N   UNL     1       7.628  -1.092  23.588  0.00  0.00    -0.242 NA
BRANCH  24  32
ATOM     32  N   UNL     1       6.099  -3.011  24.985  0.00  0.00    -0.341 N 
ATOM     33  H   UNL     1       5.937  -2.520  25.857  0.00  0.00    +0.144 HD
ATOM     34  H   UNL     1       5.659  -2.594  24.169  0.00  0.00    +0.144 HD
ENDBRANCH  24  32
ENDBRANCH  18  19
ENDBRANCH   2  18
TORSDOF 4
ENDMDL
