MODEL 1
REMARK VINA RESULT:      -6.2      0.000      0.000
REMARK  Name = 
REMARK  6 active torsions:
REMARK  status: ('A' for Active; 'I' for Inactive)
REMARK    1  A    between atoms: C_1  and  C_2
REMARK    2  A    between atoms: C_2  and  C_3
REMARK    3  A    between atoms: C_2  and  C_4
REMARK    4  A    between atoms: C_2  and  C_6
REMARK    5  A    between atoms: N_8  and  C_9
REMARK    6  A    between atoms: C_12  and  C_15
REMARK                            x       y       z     vdW  Elec       q    Type
REMARK                         _______ _______ _______ _____ _____    ______ ____
ROOT
ATOM      1  C   UNL     1      10.380   2.138  23.290  0.00  0.00    +0.033 A 
ATOM      2  C   UNL     1      10.667   1.294  24.365  0.00  0.00    +0.024 A 
ATOM      3  C   UNL     1      10.391  -0.068  24.279  0.00  0.00    +0.014 A 
ATOM      4  C   UNL     1       9.821  -0.602  23.117  0.00  0.00    +0.055 A 
ATOM      5  C   UNL     1       9.639   0.235  22.003  0.00  0.00    +0.014 A 
ATOM      6  C   UNL     1       9.939   1.598  22.084  0.00  0.00    +0.024 A 
ENDROOT
BRANCH   1   8
ATOM      7  C   UNL     1       9.512   4.289  24.073  0.00  0.00    +0.224 C 
ATOM      8  N   UNL     1      10.471   3.538  23.408  0.00  0.00    -0.285 N 
ATOM      9  H   UNL     1      11.009   4.024  22.697  0.00  0.00    +0.155 HD
ATOM     10  O   UNL     1       8.479   3.814  24.549  0.00  0.00    -0.275 OA
BRANCH   7  12
ATOM     11  C   UNL     1       9.464   6.386  25.486  0.00  0.00    +0.022 C 
ATOM     12  C   UNL     1       9.762   5.802  24.096  0.00  0.00    +0.055 C 
ATOM     13  C   UNL     1       8.768   6.444  23.098  0.00  0.00    +0.022 C 
BRANCH  12  14
ATOM     14  C   UNL     1      11.188   6.123  23.606  0.00  0.00    +0.124 C 
ATOM     15 CL   UNL     1      12.320   6.607  24.898  0.00  0.00    -0.124 Cl
ENDBRANCH  12  14
ENDBRANCH   7  12
ENDBRANCH   1   8
BRANCH   4  16
ATOM     16  C   UNL     1       9.369  -2.042  23.105  0.00  0.00    +0.417 C 
ATOM     17  F   UNL     1       8.286  -2.251  23.903  0.00  0.00    -0.166 F 
ATOM     18  F   UNL     1      10.330  -2.897  23.545  0.00  0.00    -0.166 F 
ATOM     19  F   UNL     1       9.008  -2.484  21.868  0.00  0.00    -0.166 F 
ENDBRANCH   4  16
TORSDOF 4
ENDMDL
MODEL 2
REMARK VINA RESULT:      -6.1      3.897      5.433
REMARK  Name = 
REMARK  6 active torsions:
REMARK  status: ('A' for Active; 'I' for Inactive)
REMARK    1  A    between atoms: C_1  and  C_2
REMARK    2  A    between atoms: C_2  and  C_3
REMARK    3  A    between atoms: C_2  and  C_4
REMARK    4  A    between atoms: C_2  and  C_6
REMARK    5  A    between atoms: N_8  and  C_9
REMARK    6  A    between atoms: C_12  and  C_15
REMARK                            x       y       z     vdW  Elec       q    Type
REMARK                         _______ _______ _______ _____ _____    ______ ____
ROOT
ATOM      1  C   UNL     1       7.548  -2.157  23.511  0.00  0.00    +0.033 A 
ATOM      2  C   UNL     1       6.379  -2.138  22.747  0.00  0.00    +0.024 A 
ATOM      3  C   UNL     1       5.878  -3.317  22.203  0.00  0.00    +0.014 A 
ATOM      4  C   UNL     1       6.544  -4.531  22.413  0.00  0.00    +0.055 A 
ATOM      5  C   UNL     1       7.655  -4.557  23.272  0.00  0.00    +0.014 A 
ATOM      6  C   UNL     1       8.142  -3.376  23.837  0.00  0.00    +0.024 A 
ENDROOT
BRANCH   1   8
ATOM      7  C   UNL     1       9.168  -0.356  23.158  0.00  0.00    +0.224 C 
ATOM      8  N   UNL     1       8.182  -0.968  23.919  0.00  0.00    -0.285 N 
ATOM      9  H   UNL     1       8.201  -0.778  24.917  0.00  0.00    +0.155 HD
ATOM     10  O   UNL     1       9.617  -0.828  22.113  0.00  0.00    -0.275 OA
BRANCH   7  12
ATOM     11  C   UNL     1      11.079   0.632  24.488  0.00  0.00    +0.022 C 
ATOM     12  C   UNL     1       9.759   0.926  23.758  0.00  0.00    +0.055 C 
ATOM     13  C   UNL     1       8.751   1.444  24.811  0.00  0.00    +0.022 C 
BRANCH  12  14
ATOM     14  C   UNL     1       9.904   2.013  22.676  0.00  0.00    +0.124 C 
ATOM     15 CL   UNL     1       8.401   2.367  21.780  0.00  0.00    -0.124 Cl
ENDBRANCH  12  14
ENDBRANCH   7  12
ENDBRANCH   1   8
BRANCH   4  16
ATOM     16  C   UNL     1       6.087  -5.765  21.673  0.00  0.00    +0.417 C 
ATOM     17  F   UNL     1       6.117  -5.600  20.321  0.00  0.00    -0.166 F 
ATOM     18  F   UNL     1       4.811  -6.119  21.979  0.00  0.00    -0.166 F 
ATOM     19  F   UNL     1       6.855  -6.861  21.928  0.00  0.00    -0.166 F 
ENDBRANCH   4  16
TORSDOF 4
ENDMDL
MODEL 3
REMARK VINA RESULT:      -6.1      5.161      7.851
REMARK  Name = 
REMARK  6 active torsions:
REMARK  status: ('A' for Active; 'I' for Inactive)
REMARK    1  A    between atoms: C_1  and  C_2
REMARK    2  A    between atoms: C_2  and  C_3
REMARK    3  A    between atoms: C_2  and  C_4
REMARK    4  A    between atoms: C_2  and  C_6
REMARK    5  A    between atoms: N_8  and  C_9
REMARK    6  A    between atoms: C_12  and  C_15
REMARK                            x       y       z     vdW  Elec       q    Type
REMARK                         _______ _______ _______ _____ _____    ______ ____
ROOT
ATOM      1  C   UNL     1       9.185  -1.862  23.237  0.00  0.00    +0.033 A 
ATOM      2  C   UNL     1       9.395  -1.301  21.976  0.00  0.00    +0.024 A 
ATOM      3  C   UNL     1       9.830   0.017  21.860  0.00  0.00    +0.014 A 
ATOM      4  C   UNL     1      10.056   0.790  23.005  0.00  0.00    +0.055 A 
ATOM      5  C   UNL     1       9.948   0.184  24.267  0.00  0.00    +0.014 A 
ATOM      6  C   UNL     1       9.535  -1.146  24.381  0.00  0.00    +0.024 A 
ENDROOT
BRANCH   1   8
ATOM      7  C   UNL     1       7.236  -3.336  23.084  0.00  0.00    +0.224 C 
ATOM      8  N   UNL     1       8.572  -3.120  23.391  0.00  0.00    -0.285 N 
ATOM      9  H   UNL     1       8.985  -3.750  24.073  0.00  0.00    +0.155 HD
ATOM     10  O   UNL     1       6.465  -2.446  22.724  0.00  0.00    -0.275 OA
BRANCH   7  12
ATOM     11  C   UNL     1       5.203  -4.783  23.497  0.00  0.00    +0.022 C 
ATOM     12  C   UNL     1       6.730  -4.764  23.323  0.00  0.00    +0.055 C 
ATOM     13  C   UNL     1       7.356  -5.255  24.651  0.00  0.00    +0.022 C 
BRANCH  12  14
ATOM     14  C   UNL     1       7.215  -5.705  22.202  0.00  0.00    +0.124 C 
ATOM     15 CL   UNL     1       6.185  -5.708  20.744  0.00  0.00    -0.124 Cl
ENDBRANCH  12  14
ENDBRANCH   7  12
ENDBRANCH   1   8
BRANCH   4  16
ATOM     16  C   UNL     1      10.356   2.263  22.858  0.00  0.00    +0.417 C 
ATOM     17  F   UNL     1      10.835   2.573  21.621  0.00  0.00    -0.166 F 
ATOM     18  F   UNL     1      11.292   2.699  23.742  0.00  0.00    -0.166 F 
ATOM     19  F   UNL     1       9.264   3.056  23.041  0.00  0.00    -0.166 F 
ENDBRANCH   4  16
TORSDOF 4
ENDMDL
MODEL 4
REMARK VINA RESULT:      -6.1      3.738      5.287
REMARK  Name = 
REMARK  6 active torsions:
REMARK  status: ('A' for Active; 'I' for Inactive)
REMARK    1  A    between atoms: C_1  and  C_2
REMARK    2  A    between atoms: C_2  and  C_3
REMARK    3  A    between atoms: C_2  and  C_4
REMARK    4  A    between atoms: C_2  and  C_6
REMARK    5  A    between atoms: N_8  and  C_9
REMARK    6  A    between atoms: C_12  and  C_15
REMARK                            x       y       z     vdW  Elec       q    Type
REMARK                         _______ _______ _______ _____ _____    ______ ____
ROOT
ATOM      1  C   UNL     1       7.561  -2.130  23.439  0.00  0.00    +0.033 A 
ATOM      2  C   UNL     1       6.337  -2.130  22.766  0.00  0.00    +0.024 A 
ATOM      3  C   UNL     1       5.823  -3.316  22.250  0.00  0.00    +0.014 A 
ATOM      4  C   UNL     1       6.528  -4.516  22.396  0.00  0.00    +0.055 A 
ATOM      5  C   UNL     1       7.702  -4.525  23.168  0.00  0.00    +0.014 A 
ATOM      6  C   UNL     1       8.204  -3.338  23.707  0.00  0.00    +0.024 A 
ENDROOT
BRANCH   1   8
ATOM      7  C   UNL     1       9.020  -0.229  22.939  0.00  0.00    +0.224 C 
ATOM      8  N   UNL     1       8.198  -0.931  23.810  0.00  0.00    -0.285 N 
ATOM      9  H   UNL     1       8.369  -0.791  24.801  0.00  0.00    +0.155 HD
ATOM     10  O   UNL     1       9.315  -0.622  21.810  0.00  0.00    -0.275 OA
BRANCH   7  12
ATOM     11  C   UNL     1      10.121   1.979  22.385  0.00  0.00    +0.022 C 
ATOM     12  C   UNL     1       9.642   1.051  23.512  0.00  0.00    +0.055 C 
ATOM     13  C   UNL     1      10.887   0.628  24.328  0.00  0.00    +0.022 C 
BRANCH  12  14
ATOM     14  C   UNL     1       8.662   1.743  24.480  0.00  0.00    +0.124 C 
ATOM     15 CL   UNL     1       8.941   3.495  24.683  0.00  0.00    -0.124 Cl
ENDBRANCH  12  14
ENDBRANCH   7  12
ENDBRANCH   1   8
BRANCH   4  16
ATOM     16  C   UNL     1       6.043  -5.754  21.680  0.00  0.00    +0.417 C 
ATOM     17  F   UNL     1       4.768  -6.085  22.023  0.00  0.00    -0.166 F 
ATOM     18  F   UNL     1       6.801  -6.849  21.953  0.00  0.00    -0.166 F 
ATOM     19  F   UNL     1       6.039  -5.625  20.324  0.00  0.00    -0.166 F 
ENDBRANCH   4  16
TORSDOF 4
ENDMDL
MODEL 5
REMARK VINA RESULT:      -6.0      5.220      7.919
REMARK  Name = 
REMARK  6 active torsions:
REMARK  status: ('A' for Active; 'I' for Inactive)
REMARK    1  A    between atoms: C_1  and  C_2
REMARK    2  A    between atoms: C_2  and  C_3
REMARK    3  A    between atoms: C_2  and  C_4
REMARK    4  A    between atoms: C_2  and  C_6
REMARK    5  A    between atoms: N_8  and  C_9
REMARK    6  A    between atoms: C_12  and  C_15
REMARK                            x       y       z     vdW  Elec       q    Type
REMARK                         _______ _______ _______ _____ _____    ______ ____
ROOT
ATOM      1  C   UNL     1       9.049  -1.969  23.102  0.00  0.00    +0.033 A 
ATOM      2  C   UNL     1       9.278  -1.363  21.865  0.00  0.00    +0.024 A 
ATOM      3  C   UNL     1       9.729  -0.048  21.803  0.00  0.00    +0.014 A 
ATOM      4  C   UNL     1       9.952   0.680  22.978  0.00  0.00    +0.055 A 
ATOM      5  C   UNL     1       9.824   0.028  24.216  0.00  0.00    +0.014 A 
ATOM      6  C   UNL     1       9.395  -1.301  24.275  0.00  0.00    +0.024 A 
ENDROOT
BRANCH   1   8
ATOM      7  C   UNL     1       7.054  -3.387  23.018  0.00  0.00    +0.224 C 
ATOM      8  N   UNL     1       8.420  -3.225  23.203  0.00  0.00    -0.285 N 
ATOM      9  H   UNL     1       8.883  -3.924  23.776  0.00  0.00    +0.155 HD
ATOM     10  O   UNL     1       6.275  -2.453  22.825  0.00  0.00    -0.275 OA
BRANCH   7  12
ATOM     11  C   UNL     1       7.176  -5.754  22.135  0.00  0.00    +0.022 C 
ATOM     12  C   UNL     1       6.535  -4.822  23.175  0.00  0.00    +0.055 C 
ATOM     13  C   UNL     1       5.013  -4.789  22.897  0.00  0.00    +0.022 C 
BRANCH  12  14
ATOM     14  C   UNL     1       6.735  -5.314  24.622  0.00  0.00    +0.124 C 
ATOM     15 CL   UNL     1       5.309  -6.125  25.328  0.00  0.00    -0.124 Cl
ENDBRANCH  12  14
ENDBRANCH   7  12
ENDBRANCH   1   8
BRANCH   4  16
ATOM     16  C   UNL     1      10.270   2.153  22.890  0.00  0.00    +0.417 C 
ATOM     17  F   UNL     1      11.183   2.542  23.822  0.00  0.00    -0.166 F 
ATOM     18  F   UNL     1       9.178   2.939  23.084  0.00  0.00    -0.166 F 
ATOM     19  F   UNL     1      10.791   2.520  21.686  0.00  0.00    -0.166 F 
ENDBRANCH   4  16
TORSDOF 4
ENDMDL
MODEL 6
REMARK VINA RESULT:      -5.5      5.003      7.607
REMARK  Name = 
REMARK  6 active torsions:
REMARK  status: ('A' for Active; 'I' for Inactive)
REMARK    1  A    between atoms: C_1  and  C_2
REMARK    2  A    between atoms: C_2  and  C_3
REMARK    3  A    between atoms: C_2  and  C_4
REMARK    4  A    between atoms: C_2  and  C_6
REMARK    5  A    between atoms: N_8  and  C_9
REMARK    6  A    between atoms: C_12  and  C_15
REMARK                            x       y       z     vdW  Elec       q    Type
REMARK                         _______ _______ _______ _____ _____    ______ ____
ROOT
ATOM      1  C   UNL     1       9.054  -0.845  25.156  0.00  0.00    +0.033 A 
ATOM      2  C   UNL     1      10.278  -0.392  24.658  0.00  0.00    +0.024 A 
ATOM      3  C   UNL     1      10.445   0.949  24.325  0.00  0.00    +0.014 A 
ATOM      4  C   UNL     1       9.388   1.853  24.481  0.00  0.00    +0.055 A 
ATOM      5  C   UNL     1       8.199   1.412  25.084  0.00  0.00    +0.014 A 
ATOM      6  C   UNL     1       8.042   0.070  25.441  0.00  0.00    +0.024 A 
ENDROOT
BRANCH   1   8
ATOM      7  C   UNL     1       8.443  -3.042  24.267  0.00  0.00    +0.224 C 
ATOM      8  N   UNL     1       8.790  -2.217  25.327  0.00  0.00    -0.285 N 
ATOM      9  H   UNL     1       8.479  -2.512  26.248  0.00  0.00    +0.155 HD
ATOM     10  O   UNL     1       8.268  -2.641  23.116  0.00  0.00    -0.275 OA
BRANCH   7  12
ATOM     11  C   UNL     1       9.453  -5.177  25.173  0.00  0.00    +0.022 C 
ATOM     12  C   UNL     1       8.179  -4.508  24.635  0.00  0.00    +0.055 C 
ATOM     13  C   UNL     1       7.782  -5.242  23.331  0.00  0.00    +0.022 C 
BRANCH  12  14
ATOM     14  C   UNL     1       6.990  -4.616  25.610  0.00  0.00    +0.124 C 
ATOM     15 CL   UNL     1       7.412  -5.268  27.218  0.00  0.00    -0.124 Cl
ENDBRANCH  12  14
ENDBRANCH   7  12
ENDBRANCH   1   8
BRANCH   4  16
ATOM     16  C   UNL     1       9.531   3.260  23.952  0.00  0.00    +0.417 C 
ATOM     17  F   UNL     1       9.214   4.199  24.886  0.00  0.00    -0.166 F 
ATOM     18  F   UNL     1       8.726   3.505  22.885  0.00  0.00    -0.166 F 
ATOM     19  F   UNL     1      10.797   3.557  23.546  0.00  0.00    -0.166 F 
ENDBRANCH   4  16
TORSDOF 4
ENDMDL
MODEL 7
REMARK VINA RESULT:      -5.5      4.990      7.614
REMARK  Name = 
REMARK  6 active torsions:
REMARK  status: ('A' for Active; 'I' for Inactive)
REMARK    1  A    between atoms: C_1  and  C_2
REMARK    2  A    between atoms: C_2  and  C_3
REMARK    3  A    between atoms: C_2  and  C_4
REMARK    4  A    between atoms: C_2  and  C_6
REMARK    5  A    between atoms: N_8  and  C_9
REMARK    6  A    between atoms: C_12  and  C_15
REMARK                            x       y       z     vdW  Elec       q    Type
REMARK                         _______ _______ _______ _____ _____    ______ ____
ROOT
ATOM      1  C   UNL     1       8.982  -1.452  23.892  0.00  0.00    +0.033 A 
ATOM      2  C   UNL     1       9.313  -0.572  24.925  0.00  0.00    +0.024 A 
ATOM      3  C   UNL     1       9.737   0.721  24.633  0.00  0.00    +0.014 A 
ATOM      4  C   UNL     1       9.838   1.150  23.304  0.00  0.00    +0.055 A 
ATOM      5  C   UNL     1       9.399   0.296  22.280  0.00  0.00    +0.014 A 
ATOM      6  C   UNL     1       8.950  -0.995  22.576  0.00  0.00    +0.024 A 
ENDROOT
BRANCH   1   8
ATOM      7  C   UNL     1       7.455  -3.298  24.399  0.00  0.00    +0.224 C 
ATOM      8  N   UNL     1       8.730  -2.816  24.137  0.00  0.00    -0.285 N 
ATOM      9  H   UNL     1       9.503  -3.366  24.501  0.00  0.00    +0.155 HD
ATOM     10  O   UNL     1       6.461  -2.580  24.507  0.00  0.00    -0.275 OA
BRANCH   7  12
ATOM     11  C   UNL     1       6.804  -5.093  26.057  0.00  0.00    +0.022 C 
ATOM     12  C   UNL     1       7.364  -4.808  24.655  0.00  0.00    +0.055 C 
ATOM     13  C   UNL     1       8.807  -5.367  24.606  0.00  0.00    +0.022 C 
BRANCH  12  14
ATOM     14  C   UNL     1       6.558  -5.499  23.537  0.00  0.00    +0.124 C 
ATOM     15 CL   UNL     1       7.164  -5.182  21.888  0.00  0.00    -0.124 Cl
ENDBRANCH  12  14
ENDBRANCH   7  12
ENDBRANCH   1   8
BRANCH   4  16
ATOM     16  C   UNL     1      10.464   2.490  23.003  0.00  0.00    +0.417 C 
ATOM     17  F   UNL     1       9.601   3.523  23.212  0.00  0.00    -0.166 F 
ATOM     18  F   UNL     1      10.874   2.600  21.711  0.00  0.00    -0.166 F 
ATOM     19  F   UNL     1      11.556   2.760  23.770  0.00  0.00    -0.166 F 
ENDBRANCH   4  16
TORSDOF 4
ENDMDL
MODEL 8
REMARK VINA RESULT:      -5.5      3.830      4.996
REMARK  Name = 
REMARK  6 active torsions:
REMARK  status: ('A' for Active; 'I' for Inactive)
REMARK    1  A    between atoms: C_1  and  C_2
REMARK    2  A    between atoms: C_2  and  C_3
REMARK    3  A    between atoms: C_2  and  C_4
REMARK    4  A    between atoms: C_2  and  C_6
REMARK    5  A    between atoms: N_8  and  C_9
REMARK    6  A    between atoms: C_12  and  C_15
REMARK                            x       y       z     vdW  Elec       q    Type
REMARK                         _______ _______ _______ _____ _____    ______ ____
ROOT
ATOM      1  C   UNL     1       7.374  -1.965  23.249  0.00  0.00    +0.033 A 
ATOM      2  C   UNL     1       8.259  -3.039  23.368  0.00  0.00    +0.024 A 
ATOM      3  C   UNL     1       7.894  -4.301  22.908  0.00  0.00    +0.014 A 
ATOM      4  C   UNL     1       6.637  -4.506  22.326  0.00  0.00    +0.055 A 
ATOM      5  C   UNL     1       5.800  -3.399  22.111  0.00  0.00    +0.014 A 
ATOM      6  C   UNL     1       6.178  -2.128  22.552  0.00  0.00    +0.024 A 
ENDROOT
BRANCH   1   8
ATOM      7  C   UNL     1       8.245   0.322  23.194  0.00  0.00    +0.224 C 
ATOM      8  N   UNL     1       7.632  -0.726  23.866  0.00  0.00    -0.285 N 
ATOM      9  H   UNL     1       7.725  -0.728  24.877  0.00  0.00    +0.155 HD
ATOM     10  O   UNL     1       8.674   0.239  22.042  0.00  0.00    -0.275 OA
BRANCH   7  12
ATOM     11  C   UNL     1       7.693   1.522  25.351  0.00  0.00    +0.022 C 
ATOM     12  C   UNL     1       8.458   1.597  24.021  0.00  0.00    +0.055 C 
ATOM     13  C   UNL     1       7.866   2.773  23.208  0.00  0.00    +0.022 C 
BRANCH  12  14
ATOM     14  C   UNL     1       9.963   1.872  24.211  0.00  0.00    +0.124 C 
ATOM     15 CL   UNL     1      10.895   0.480  24.829  0.00  0.00    -0.124 Cl
ENDBRANCH  12  14
ENDBRANCH   7  12
ENDBRANCH   1   8
BRANCH   4  16
ATOM     16  C   UNL     1       6.193  -5.910  21.994  0.00  0.00    +0.417 C 
ATOM     17  F   UNL     1       5.202  -6.348  22.819  0.00  0.00    -0.166 F 
ATOM     18  F   UNL     1       7.198  -6.818  22.101  0.00  0.00    -0.166 F 
ATOM     19  F   UNL     1       5.703  -6.035  20.729  0.00  0.00    -0.166 F 
ENDBRANCH   4  16
TORSDOF 4
ENDMDL
MODEL 9
REMARK VINA RESULT:      -5.4      3.086      3.864
REMARK  Name = 
REMARK  6 active torsions:
REMARK  status: ('A' for Active; 'I' for Inactive)
REMARK    1  A    between atoms: C_1  and  C_2
REMARK    2  A    between atoms: C_2  and  C_3
REMARK    3  A    between atoms: C_2  and  C_4
REMARK    4  A    between atoms: C_2  and  C_6
REMARK    5  A    between atoms: N_8  and  C_9
REMARK    6  A    between atoms: C_12  and  C_15
REMARK                            x       y       z     vdW  Elec       q    Type
REMARK                         _______ _______ _______ _____ _____    ______ ____
ROOT
ATOM      1  C   UNL     1       8.490  -0.819  23.812  0.00  0.00    +0.033 A 
ATOM      2  C   UNL     1       9.446  -1.648  24.403  0.00  0.00    +0.024 A 
ATOM      3  C   UNL     1       9.310  -3.032  24.337  0.00  0.00    +0.014 A 
ATOM      4  C   UNL     1       8.213  -3.604  23.682  0.00  0.00    +0.055 A 
ATOM      5  C   UNL     1       7.317  -2.766  22.998  0.00  0.00    +0.014 A 
ATOM      6  C   UNL     1       7.469  -1.378  23.044  0.00  0.00    +0.024 A 
ENDROOT
BRANCH   1   8
ATOM      7  C   UNL     1       9.173   1.443  23.174  0.00  0.00    +0.224 C 
ATOM      8  N   UNL     1       8.494   0.574  24.016  0.00  0.00    -0.285 N 
ATOM      9  H   UNL     1       8.336   0.898  24.965  0.00  0.00    +0.155 HD
ATOM     10  O   UNL     1       9.877   1.075  22.233  0.00  0.00    -0.275 OA
BRANCH   7  12
ATOM     11  C   UNL     1      10.467   3.591  23.511  0.00  0.00    +0.022 C 
ATOM     12  C   UNL     1       9.081   2.928  23.551  0.00  0.00    +0.055 C 
ATOM     13  C   UNL     1       8.573   2.998  25.011  0.00  0.00    +0.022 C 
BRANCH  12  14
ATOM     14  C   UNL     1       8.048   3.648  22.662  0.00  0.00    +0.124 C 
ATOM     15 CL   UNL     1       6.887   2.561  21.852  0.00  0.00    -0.124 Cl
ENDBRANCH  12  14
ENDBRANCH   7  12
ENDBRANCH   1   8
BRANCH   4  16
ATOM     16  C   UNL     1       7.990  -5.095  23.772  0.00  0.00    +0.417 C 
ATOM     17  F   UNL     1       6.868  -5.409  24.475  0.00  0.00    -0.166 F 
ATOM     18  F   UNL     1       9.014  -5.742  24.389  0.00  0.00    -0.166 F 
ATOM     19  F   UNL     1       7.844  -5.691  22.556  0.00  0.00    -0.166 F 
ENDBRANCH   4  16
TORSDOF 4
ENDMDL
