MODEL 1
REMARK VINA RESULT:      -5.1      0.000      0.000
REMARK  Name = 
REMARK  9 active torsions:
REMARK  status: ('A' for Active; 'I' for Inactive)
REMARK    1  A    between atoms: O_1  and  C_2
REMARK    2  A    between atoms: C_2  and  C_3
REMARK    3  A    between atoms: C_6  and  O_8
REMARK    4  A    between atoms: O_8  and  C_9
REMARK    5  A    between atoms: C_9  and  C_10
REMARK    6  A    between atoms: C_10  and  C_11
REMARK    7  A    between atoms: C_15  and  O_17
REMARK    8  A    between atoms: C_18  and  O_20
REMARK    9  A    between atoms: C_21  and  O_23
REMARK                            x       y       z     vdW  Elec       q    Type
REMARK                         _______ _______ _______ _____ _____    ______ ____
ROOT
ATOM      1  C   UNL     1       6.676  -4.517  26.020  0.00  0.00    +0.178 C 
ATOM      2  C   UNL     1       7.887  -5.444  26.143  0.00  0.00    +0.177 C 
ATOM      3  C   UNL     1       9.137  -4.681  25.695  0.00  0.00    +0.179 C 
ATOM      4  C   UNL     1       8.969  -4.032  24.315  0.00  0.00    +0.201 C 
ATOM      5  C   UNL     1       7.642  -3.239  24.273  0.00  0.00    +0.282 C 
ATOM      6  O   UNL     1       6.561  -4.086  24.656  0.00  0.00    -0.341 OA
ENDROOT
BRANCH   2   7
ATOM      7  O   UNL     1       8.066  -5.875  27.492  0.00  0.00    -0.386 OA
ATOM      8  H   UNL     1       7.428  -5.353  28.017  0.00  0.00    +0.210 HD
ENDBRANCH   2   7
BRANCH   3   9
ATOM      9  O   UNL     1      10.262  -5.577  25.697  0.00  0.00    -0.386 OA
ATOM     10  H   UNL     1      10.231  -6.035  24.833  0.00  0.00    +0.210 HD
ENDBRANCH   3   9
BRANCH   4  11
ATOM     11  O   UNL     1      10.139  -3.224  24.082  0.00  0.00    -0.384 OA
ATOM     12  H   UNL     1      10.732  -3.316  24.850  0.00  0.00    +0.210 HD
ENDBRANCH   4  11
BRANCH   1  13
ATOM     13  C   UNL     1       5.367  -5.190  26.435  0.00  0.00    +0.190 C 
BRANCH  13  14
ATOM     14  O   UNL     1       5.566  -6.609  26.450  0.00  0.00    -0.392 OA
ATOM     15  H   UNL     1       4.722  -7.015  26.200  0.00  0.00    +0.210 HD
ENDBRANCH  13  14
ENDBRANCH   1  13
BRANCH   5  16
ATOM     16  O   UNL     1       7.414  -2.730  22.953  0.00  0.00    -0.349 OA
BRANCH  16  17
ATOM     17  C   UNL     1       7.224  -1.313  22.991  0.00  0.00    +0.165 C 
BRANCH  17  18
ATOM     18  C   UNL     1       8.477  -0.588  22.511  0.00  0.00    +0.062 C 
BRANCH  18  19
ATOM     19  C   UNL     1       9.043   0.263  23.608  0.00  0.00    +0.146 C 
ATOM     20  O   UNL     1       9.781  -0.459  24.600  0.00  0.00    -0.372 OA
ATOM     21  C   UNL     1      10.528   0.443  23.770  0.00  0.00    +0.191 C 
ENDBRANCH  18  19
ENDBRANCH  17  18
ENDBRANCH  16  17
ENDBRANCH   5  16
TORSDOF 9
ENDMDL
MODEL 2
REMARK VINA RESULT:      -5.0      1.966      3.186
REMARK  Name = 
REMARK  9 active torsions:
REMARK  status: ('A' for Active; 'I' for Inactive)
REMARK    1  A    between atoms: O_1  and  C_2
REMARK    2  A    between atoms: C_2  and  C_3
REMARK    3  A    between atoms: C_6  and  O_8
REMARK    4  A    between atoms: O_8  and  C_9
REMARK    5  A    between atoms: C_9  and  C_10
REMARK    6  A    between atoms: C_10  and  C_11
REMARK    7  A    between atoms: C_15  and  O_17
REMARK    8  A    between atoms: C_18  and  O_20
REMARK    9  A    between atoms: C_21  and  O_23
REMARK                            x       y       z     vdW  Elec       q    Type
REMARK                         _______ _______ _______ _____ _____    ______ ____
ROOT
ATOM      1  C   UNL     1       6.888  -4.031  26.600  0.00  0.00    +0.178 C 
ATOM      2  C   UNL     1       7.808  -5.221  26.321  0.00  0.00    +0.177 C 
ATOM      3  C   UNL     1       9.075  -4.712  25.627  0.00  0.00    +0.179 C 
ATOM      4  C   UNL     1       8.766  -3.843  24.400  0.00  0.00    +0.201 C 
ATOM      5  C   UNL     1       7.722  -2.766  24.777  0.00  0.00    +0.282 C 
ATOM      6  O   UNL     1       6.576  -3.387  25.356  0.00  0.00    -0.341 OA
ENDROOT
BRANCH   2   7
ATOM      7  O   UNL     1       8.176  -5.878  27.534  0.00  0.00    -0.386 OA
ATOM      8  H   UNL     1       7.524  -5.580  28.198  0.00  0.00    +0.210 HD
ENDBRANCH   2   7
BRANCH   3   9
ATOM      9  O   UNL     1       9.893  -5.834  25.257  0.00  0.00    -0.386 OA
ATOM     10  H   UNL     1       9.524  -6.598  25.744  0.00  0.00    +0.210 HD
ENDBRANCH   3   9
BRANCH   4  11
ATOM     11  O   UNL     1      10.019  -3.304  23.939  0.00  0.00    -0.384 OA
ATOM     12  H   UNL     1      10.267  -3.765  23.117  0.00  0.00    +0.210 HD
ENDBRANCH   4  11
BRANCH   1  13
ATOM     13  C   UNL     1       5.582  -4.435  27.285  0.00  0.00    +0.190 C 
BRANCH  13  14
ATOM     14  O   UNL     1       5.870  -4.802  28.640  0.00  0.00    -0.392 OA
ATOM     15  H   UNL     1       6.418  -5.602  28.606  0.00  0.00    +0.210 HD
ENDBRANCH  13  14
ENDBRANCH   1  13
BRANCH   5  16
ATOM     16  O   UNL     1       7.335  -2.028  23.612  0.00  0.00    -0.349 OA
BRANCH  16  17
ATOM     17  C   UNL     1       6.056  -2.468  23.145  0.00  0.00    +0.165 C 
BRANCH  17  18
ATOM     18  C   UNL     1       6.187  -3.170  21.796  0.00  0.00    +0.062 C 
BRANCH  18  19
ATOM     19  C   UNL     1       5.947  -4.641  21.946  0.00  0.00    +0.146 C 
ATOM     20  O   UNL     1       5.950  -5.372  20.715  0.00  0.00    -0.372 OA
ATOM     21  C   UNL     1       7.023  -5.645  21.628  0.00  0.00    +0.191 C 
ENDBRANCH  18  19
ENDBRANCH  17  18
ENDBRANCH  16  17
ENDBRANCH   5  16
TORSDOF 9
ENDMDL
MODEL 3
REMARK VINA RESULT:      -4.9      2.052      3.220
REMARK  Name = 
REMARK  9 active torsions:
REMARK  status: ('A' for Active; 'I' for Inactive)
REMARK    1  A    between atoms: O_1  and  C_2
REMARK    2  A    between atoms: C_2  and  C_3
REMARK    3  A    between atoms: C_6  and  O_8
REMARK    4  A    between atoms: O_8  and  C_9
REMARK    5  A    between atoms: C_9  and  C_10
REMARK    6  A    between atoms: C_10  and  C_11
REMARK    7  A    between atoms: C_15  and  O_17
REMARK    8  A    between atoms: C_18  and  O_20
REMARK    9  A    between atoms: C_21  and  O_23
REMARK                            x       y       z     vdW  Elec       q    Type
REMARK                         _______ _______ _______ _____ _____    ______ ____
ROOT
ATOM      1  C   UNL     1       6.914  -5.554  25.545  0.00  0.00    +0.178 C 
ATOM      2  C   UNL     1       5.456  -6.002  25.415  0.00  0.00    +0.177 C 
ATOM      3  C   UNL     1       5.243  -6.580  24.014  0.00  0.00    +0.179 C 
ATOM      4  C   UNL     1       5.719  -5.630  22.906  0.00  0.00    +0.201 C 
ATOM      5  C   UNL     1       7.151  -5.140  23.224  0.00  0.00    +0.282 C 
ATOM      6  O   UNL     1       7.188  -4.575  24.532  0.00  0.00    -0.341 OA
ENDROOT
BRANCH   2   7
ATOM      7  O   UNL     1       5.142  -7.004  26.383  0.00  0.00    -0.386 OA
ATOM      8  H   UNL     1       5.592  -7.814  26.073  0.00  0.00    +0.210 HD
ENDBRANCH   2   7
BRANCH   3   9
ATOM      9  O   UNL     1       3.851  -6.896  23.842  0.00  0.00    -0.386 OA
ATOM     10  H   UNL     1       3.821  -7.557  23.121  0.00  0.00    +0.210 HD
ENDBRANCH   3   9
BRANCH   4  11
ATOM     11  O   UNL     1       5.610  -6.346  21.661  0.00  0.00    -0.384 OA
ATOM     12  H   UNL     1       6.463  -6.781  21.482  0.00  0.00    +0.210 HD
ENDBRANCH   4  11
BRANCH   1  13
ATOM     13  C   UNL     1       7.232  -4.948  26.913  0.00  0.00    +0.190 C 
BRANCH  13  14
ATOM     14  O   UNL     1       7.597  -6.005  27.809  0.00  0.00    -0.392 OA
ATOM     15  H   UNL     1       7.965  -6.721  27.266  0.00  0.00    +0.210 HD
ENDBRANCH  13  14
ENDBRANCH   1  13
BRANCH   5  16
ATOM     16  O   UNL     1       7.559  -4.159  22.262  0.00  0.00    -0.349 OA
BRANCH  16  17
ATOM     17  C   UNL     1       7.049  -2.871  22.616  0.00  0.00    +0.165 C 
BRANCH  17  18
ATOM     18  C   UNL     1       8.065  -1.780  22.291  0.00  0.00    +0.062 C 
BRANCH  18  19
ATOM     19  C   UNL     1       9.344  -2.016  23.036  0.00  0.00    +0.146 C 
ATOM     20  O   UNL     1      10.530  -1.815  22.260  0.00  0.00    -0.372 OA
ATOM     21  C   UNL     1      10.296  -0.889  23.332  0.00  0.00    +0.191 C 
ENDBRANCH  18  19
ENDBRANCH  17  18
ENDBRANCH  16  17
ENDBRANCH   5  16
TORSDOF 9
ENDMDL
MODEL 4
REMARK VINA RESULT:      -4.9      2.301      6.542
REMARK  Name = 
REMARK  9 active torsions:
REMARK  status: ('A' for Active; 'I' for Inactive)
REMARK    1  A    between atoms: O_1  and  C_2
REMARK    2  A    between atoms: C_2  and  C_3
REMARK    3  A    between atoms: C_6  and  O_8
REMARK    4  A    between atoms: O_8  and  C_9
REMARK    5  A    between atoms: C_9  and  C_10
REMARK    6  A    between atoms: C_10  and  C_11
REMARK    7  A    between atoms: C_15  and  O_17
REMARK    8  A    between atoms: C_18  and  O_20
REMARK    9  A    between atoms: C_21  and  O_23
REMARK                            x       y       z     vdW  Elec       q    Type
REMARK                         _______ _______ _______ _____ _____    ______ ____
ROOT
ATOM      1  C   UNL     1       9.213   1.763  23.676  0.00  0.00    +0.178 C 
ATOM      2  C   UNL     1       9.756   1.169  22.374  0.00  0.00    +0.177 C 
ATOM      3  C   UNL     1       9.188  -0.243  22.203  0.00  0.00    +0.179 C 
ATOM      4  C   UNL     1       9.407  -1.119  23.443  0.00  0.00    +0.201 C 
ATOM      5  C   UNL     1       8.948  -0.354  24.707  0.00  0.00    +0.282 C 
ATOM      6  O   UNL     1       9.598   0.913  24.766  0.00  0.00    -0.341 OA
ENDROOT
BRANCH   2   7
ATOM      7  O   UNL     1       9.370   1.963  21.251  0.00  0.00    -0.386 OA
ATOM      8  H   UNL     1       8.524   2.379  21.506  0.00  0.00    +0.210 HD
ENDBRANCH   2   7
BRANCH   3   9
ATOM      9  O   UNL     1       9.781  -0.852  21.044  0.00  0.00    -0.386 OA
ATOM     10  H   UNL     1       9.094  -1.448  20.683  0.00  0.00    +0.210 HD
ENDBRANCH   3   9
BRANCH   4  11
ATOM     11  O   UNL     1       8.697  -2.353  23.218  0.00  0.00    -0.384 OA
ATOM     12  H   UNL     1       7.747  -2.150  23.142  0.00  0.00    +0.210 HD
ENDBRANCH   4  11
BRANCH   1  13
ATOM     13  C   UNL     1       9.732   3.176  23.947  0.00  0.00    +0.190 C 
BRANCH  13  14
ATOM     14  O   UNL     1      10.880   3.410  23.122  0.00  0.00    -0.392 OA
ATOM     15  H   UNL     1      10.884   2.718  22.442  0.00  0.00    +0.210 HD
ENDBRANCH  13  14
ENDBRANCH   1  13
BRANCH   5  16
ATOM     16  O   UNL     1       9.260  -1.113  25.881  0.00  0.00    -0.349 OA
BRANCH  16  17
ATOM     17  C   UNL     1       8.093  -1.277  26.693  0.00  0.00    +0.165 C 
BRANCH  17  18
ATOM     18  C   UNL     1       7.442  -2.633  26.435  0.00  0.00    +0.062 C 
BRANCH  18  19
ATOM     19  C   UNL     1       8.444  -3.735  26.595  0.00  0.00    +0.146 C 
ATOM     20  O   UNL     1       7.933  -4.917  27.220  0.00  0.00    -0.372 OA
ATOM     21  C   UNL     1       8.310  -5.030  25.840  0.00  0.00    +0.191 C 
ENDBRANCH  18  19
ENDBRANCH  17  18
ENDBRANCH  16  17
ENDBRANCH   5  16
TORSDOF 9
ENDMDL
MODEL 5
REMARK VINA RESULT:      -4.8      1.743      3.208
REMARK  Name = 
REMARK  9 active torsions:
REMARK  status: ('A' for Active; 'I' for Inactive)
REMARK    1  A    between atoms: O_1  and  C_2
REMARK    2  A    between atoms: C_2  and  C_3
REMARK    3  A    between atoms: C_6  and  O_8
REMARK    4  A    between atoms: O_8  and  C_9
REMARK    5  A    between atoms: C_9  and  C_10
REMARK    6  A    between atoms: C_10  and  C_11
REMARK    7  A    between atoms: C_15  and  O_17
REMARK    8  A    between atoms: C_18  and  O_20
REMARK    9  A    between atoms: C_21  and  O_23
REMARK                            x       y       z     vdW  Elec       q    Type
REMARK                         _______ _______ _______ _____ _____    ______ ____
ROOT
ATOM      1  C   UNL     1       8.576  -3.913  25.112  0.00  0.00    +0.178 C 
ATOM      2  C   UNL     1       7.403  -3.878  24.130  0.00  0.00    +0.177 C 
ATOM      3  C   UNL     1       7.910  -3.372  22.777  0.00  0.00    +0.179 C 
ATOM      4  C   UNL     1       8.683  -2.052  22.894  0.00  0.00    +0.201 C 
ATOM      5  C   UNL     1       9.745  -2.170  24.012  0.00  0.00    +0.282 C 
ATOM      6  O   UNL     1       9.124  -2.592  25.224  0.00  0.00    -0.341 OA
ENDROOT
BRANCH   2   7
ATOM      7  O   UNL     1       6.842  -5.180  23.957  0.00  0.00    -0.386 OA
ATOM      8  H   UNL     1       6.078  -5.216  24.567  0.00  0.00    +0.210 HD
ENDBRANCH   2   7
BRANCH   3   9
ATOM      9  O   UNL     1       6.795  -3.225  21.881  0.00  0.00    -0.386 OA
ATOM     10  H   UNL     1       6.886  -2.330  21.497  0.00  0.00    +0.210 HD
ENDBRANCH   3   9
BRANCH   4  11
ATOM     11  O   UNL     1       9.235  -1.769  21.593  0.00  0.00    -0.384 OA
ATOM     12  H   UNL     1       9.137  -0.815  21.420  0.00  0.00    +0.210 HD
ENDBRANCH   4  11
BRANCH   1  13
ATOM     13  C   UNL     1       8.172  -4.398  26.505  0.00  0.00    +0.190 C 
BRANCH  13  14
ATOM     14  O   UNL     1       8.267  -5.827  26.539  0.00  0.00    -0.392 OA
ATOM     15  H   UNL     1       7.583  -6.170  25.944  0.00  0.00    +0.210 HD
ENDBRANCH  13  14
ENDBRANCH   1  13
BRANCH   5  16
ATOM     16  O   UNL     1      10.390  -0.906  24.214  0.00  0.00    -0.349 OA
BRANCH  16  17
ATOM     17  C   UNL     1       9.667  -0.124  25.169  0.00  0.00    +0.165 C 
BRANCH  17  18
ATOM     18  C   UNL     1       9.413   1.282  24.634  0.00  0.00    +0.062 C 
BRANCH  18  19
ATOM     19  C   UNL     1      10.592   1.763  23.844  0.00  0.00    +0.146 C 
ATOM     20  O   UNL     1      10.287   2.159  22.502  0.00  0.00    -0.372 OA
ATOM     21  C   UNL     1      10.704   3.197  23.401  0.00  0.00    +0.191 C 
ENDBRANCH  18  19
ENDBRANCH  17  18
ENDBRANCH  16  17
ENDBRANCH   5  16
TORSDOF 9
ENDMDL
MODEL 6
REMARK VINA RESULT:      -4.8      2.853      6.316
REMARK  Name = 
REMARK  9 active torsions:
REMARK  status: ('A' for Active; 'I' for Inactive)
REMARK    1  A    between atoms: O_1  and  C_2
REMARK    2  A    between atoms: C_2  and  C_3
REMARK    3  A    between atoms: C_6  and  O_8
REMARK    4  A    between atoms: O_8  and  C_9
REMARK    5  A    between atoms: C_9  and  C_10
REMARK    6  A    between atoms: C_10  and  C_11
REMARK    7  A    between atoms: C_15  and  O_17
REMARK    8  A    between atoms: C_18  and  O_20
REMARK    9  A    between atoms: C_21  and  O_23
REMARK                            x       y       z     vdW  Elec       q    Type
REMARK                         _______ _______ _______ _____ _____    ______ ____
ROOT
ATOM      1  C   UNL     1       6.758   1.656  22.834  0.00  0.00    +0.178 C 
ATOM      2  C   UNL     1       8.090   2.375  22.603  0.00  0.00    +0.177 C 
ATOM      3  C   UNL     1       8.967   1.505  21.699  0.00  0.00    +0.179 C 
ATOM      4  C   UNL     1       9.100   0.066  22.214  0.00  0.00    +0.201 C 
ATOM      5  C   UNL     1       7.699  -0.500  22.541  0.00  0.00    +0.282 C 
ATOM      6  O   UNL     1       7.021   0.380  23.435  0.00  0.00    -0.341 OA
ENDROOT
BRANCH   2   7
ATOM      7  O   UNL     1       7.885   3.640  21.973  0.00  0.00    -0.386 OA
ATOM      8  H   UNL     1       7.325   4.149  22.592  0.00  0.00    +0.210 HD
ENDBRANCH   2   7
BRANCH   3   9
ATOM      9  O   UNL     1      10.262   2.116  21.570  0.00  0.00    -0.386 OA
ATOM     10  H   UNL     1      10.238   2.602  20.721  0.00  0.00    +0.210 HD
ENDBRANCH   3   9
BRANCH   4  11
ATOM     11  O   UNL     1       9.809  -0.680  21.205  0.00  0.00    -0.384 OA
ATOM     12  H   UNL     1       9.183  -0.904  20.494  0.00  0.00    +0.210 HD
ENDBRANCH   4  11
BRANCH   1  13
ATOM     13  C   UNL     1       5.807   2.440  23.739  0.00  0.00    +0.190 C 
BRANCH  13  14
ATOM     14  O   UNL     1       4.846   1.531  24.290  0.00  0.00    -0.392 OA
ATOM     15  H   UNL     1       4.632   0.890  23.595  0.00  0.00    +0.210 HD
ENDBRANCH  13  14
ENDBRANCH   1  13
BRANCH   5  16
ATOM     16  O   UNL     1       7.819  -1.797  23.138  0.00  0.00    -0.349 OA
BRANCH  16  17
ATOM     17  C   UNL     1       8.734  -1.758  24.237  0.00  0.00    +0.165 C 
BRANCH  17  18
ATOM     18  C   UNL     1       9.592  -3.018  24.269  0.00  0.00    +0.062 C 
BRANCH  18  19
ATOM     19  C   UNL     1       8.814  -4.169  24.832  0.00  0.00    +0.146 C 
ATOM     20  O   UNL     1       8.950  -5.393  24.102  0.00  0.00    -0.372 OA
ATOM     21  C   UNL     1       9.506  -5.366  25.425  0.00  0.00    +0.191 C 
ENDBRANCH  18  19
ENDBRANCH  17  18
ENDBRANCH  16  17
ENDBRANCH   5  16
TORSDOF 9
ENDMDL
MODEL 7
REMARK VINA RESULT:      -4.7      3.082      6.301
REMARK  Name = 
REMARK  9 active torsions:
REMARK  status: ('A' for Active; 'I' for Inactive)
REMARK    1  A    between atoms: O_1  and  C_2
REMARK    2  A    between atoms: C_2  and  C_3
REMARK    3  A    between atoms: C_6  and  O_8
REMARK    4  A    between atoms: O_8  and  C_9
REMARK    5  A    between atoms: C_9  and  C_10
REMARK    6  A    between atoms: C_10  and  C_11
REMARK    7  A    between atoms: C_15  and  O_17
REMARK    8  A    between atoms: C_18  and  O_20
REMARK    9  A    between atoms: C_21  and  O_23
REMARK                            x       y       z     vdW  Elec       q    Type
REMARK                         _______ _______ _______ _____ _____    ______ ____
ROOT
ATOM      1  C   UNL     1       6.698   0.734  23.272  0.00  0.00    +0.178 C 
ATOM      2  C   UNL     1       7.792   1.719  22.853  0.00  0.00    +0.177 C 
ATOM      3  C   UNL     1       8.636   1.076  21.749  0.00  0.00    +0.179 C 
ATOM      4  C   UNL     1       9.146  -0.319  22.135  0.00  0.00    +0.201 C 
ATOM      5  C   UNL     1       7.972  -1.171  22.671  0.00  0.00    +0.282 C 
ATOM      6  O   UNL     1       7.317  -0.477  23.729  0.00  0.00    -0.341 OA
ENDROOT
BRANCH   2   7
ATOM      7  O   UNL     1       7.225   2.932  22.357  0.00  0.00    -0.386 OA
ATOM      8  H   UNL     1       6.321   2.697  22.070  0.00  0.00    +0.210 HD
ENDBRANCH   2   7
BRANCH   3   9
ATOM      9  O   UNL     1       9.736   1.944  21.430  0.00  0.00    -0.386 OA
ATOM     10  H   UNL     1       9.546   2.287  20.533  0.00  0.00    +0.210 HD
ENDBRANCH   3   9
BRANCH   4  11
ATOM     11  O   UNL     1       9.783  -0.873  20.967  0.00  0.00    -0.384 OA
ATOM     12  H   UNL     1       9.513  -1.805  20.884  0.00  0.00    +0.210 HD
ENDBRANCH   4  11
BRANCH   1  13
ATOM     13  C   UNL     1       5.801   1.278  24.384  0.00  0.00    +0.190 C 
BRANCH  13  14
ATOM     14  O   UNL     1       4.702   1.977  23.786  0.00  0.00    -0.392 OA
ATOM     15  H   UNL     1       4.186   2.365  24.510  0.00  0.00    +0.210 HD
ENDBRANCH  13  14
ENDBRANCH   1  13
BRANCH   5  16
ATOM     16  O   UNL     1       8.458  -2.432  23.148  0.00  0.00    -0.349 OA
BRANCH  16  17
ATOM     17  C   UNL     1       7.373  -3.239  23.616  0.00  0.00    +0.165 C 
BRANCH  17  18
ATOM     18  C   UNL     1       7.471  -4.654  23.051  0.00  0.00    +0.062 C 
BRANCH  18  19
ATOM     19  C   UNL     1       6.194  -5.033  22.365  0.00  0.00    +0.146 C 
ATOM     20  O   UNL     1       5.899  -4.269  21.191  0.00  0.00    -0.372 OA
ATOM     21  C   UNL     1       6.197  -5.659  20.997  0.00  0.00    +0.191 C 
ENDBRANCH  18  19
ENDBRANCH  17  18
ENDBRANCH  16  17
ENDBRANCH   5  16
TORSDOF 9
ENDMDL
MODEL 8
REMARK VINA RESULT:      -4.7      1.911      2.939
REMARK  Name = 
REMARK  9 active torsions:
REMARK  status: ('A' for Active; 'I' for Inactive)
REMARK    1  A    between atoms: O_1  and  C_2
REMARK    2  A    between atoms: C_2  and  C_3
REMARK    3  A    between atoms: C_6  and  O_8
REMARK    4  A    between atoms: O_8  and  C_9
REMARK    5  A    between atoms: C_9  and  C_10
REMARK    6  A    between atoms: C_10  and  C_11
REMARK    7  A    between atoms: C_15  and  O_17
REMARK    8  A    between atoms: C_18  and  O_20
REMARK    9  A    between atoms: C_21  and  O_23
REMARK                            x       y       z     vdW  Elec       q    Type
REMARK                         _______ _______ _______ _____ _____    ______ ____
ROOT
ATOM      1  C   UNL     1       6.470  -4.631  23.296  0.00  0.00    +0.178 C 
ATOM      2  C   UNL     1       6.121  -5.671  24.364  0.00  0.00    +0.177 C 
ATOM      3  C   UNL     1       6.676  -5.198  25.710  0.00  0.00    +0.179 C 
ATOM      4  C   UNL     1       8.165  -4.833  25.638  0.00  0.00    +0.201 C 
ATOM      5  C   UNL     1       8.410  -3.888  24.438  0.00  0.00    +0.282 C 
ATOM      6  O   UNL     1       7.896  -4.480  23.247  0.00  0.00    -0.341 OA
ENDROOT
BRANCH   2   7
ATOM      7  O   UNL     1       4.707  -5.834  24.476  0.00  0.00    -0.386 OA
ATOM      8  H   UNL     1       4.579  -6.498  25.182  0.00  0.00    +0.210 HD
ENDBRANCH   2   7
BRANCH   3   9
ATOM      9  O   UNL     1       6.456  -6.221  26.696  0.00  0.00    -0.386 OA
ATOM     10  H   UNL     1       6.721  -7.059  26.266  0.00  0.00    +0.210 HD
ENDBRANCH   3   9
BRANCH   4  11
ATOM     11  O   UNL     1       8.521  -4.260  26.912  0.00  0.00    -0.384 OA
ATOM     12  H   UNL     1       8.711  -4.988  27.532  0.00  0.00    +0.210 HD
ENDBRANCH   4  11
BRANCH   1  13
ATOM     13  C   UNL     1       5.967  -5.015  21.904  0.00  0.00    +0.190 C 
BRANCH  13  14
ATOM     14  O   UNL     1       5.784  -6.436  21.859  0.00  0.00    -0.392 OA
ATOM     15  H   UNL     1       5.001  -6.602  21.311  0.00  0.00    +0.210 HD
ENDBRANCH  13  14
ENDBRANCH   1  13
BRANCH   5  16
ATOM     16  O   UNL     1       9.812  -3.638  24.287  0.00  0.00    -0.349 OA
BRANCH  16  17
ATOM     17  C   UNL     1      10.028  -2.379  23.644  0.00  0.00    +0.165 C 
BRANCH  17  18
ATOM     18  C   UNL     1       9.149  -1.298  24.266  0.00  0.00    +0.062 C 
BRANCH  18  19
ATOM     19  C   UNL     1       9.994  -0.243  24.913  0.00  0.00    +0.146 C 
ATOM     20  O   UNL     1      10.937   0.384  24.037  0.00  0.00    -0.372 OA
ATOM     21  C   UNL     1       9.868   1.206  24.527  0.00  0.00    +0.191 C 
ENDBRANCH  18  19
ENDBRANCH  17  18
ENDBRANCH  16  17
ENDBRANCH   5  16
TORSDOF 9
ENDMDL
MODEL 9
REMARK VINA RESULT:      -4.7      2.222      3.544
REMARK  Name = 
REMARK  9 active torsions:
REMARK  status: ('A' for Active; 'I' for Inactive)
REMARK    1  A    between atoms: O_1  and  C_2
REMARK    2  A    between atoms: C_2  and  C_3
REMARK    3  A    between atoms: C_6  and  O_8
REMARK    4  A    between atoms: O_8  and  C_9
REMARK    5  A    between atoms: C_9  and  C_10
REMARK    6  A    between atoms: C_10  and  C_11
REMARK    7  A    between atoms: C_15  and  O_17
REMARK    8  A    between atoms: C_18  and  O_20
REMARK    9  A    between atoms: C_21  and  O_23
REMARK                            x       y       z     vdW  Elec       q    Type
REMARK                         _______ _______ _______ _____ _____    ______ ____
ROOT
ATOM      1  C   UNL     1       8.379  -2.899  24.583  0.00  0.00    +0.178 C 
ATOM      2  C   UNL     1       8.632  -2.535  26.048  0.00  0.00    +0.177 C 
ATOM      3  C   UNL     1       8.692  -1.009  26.171  0.00  0.00    +0.179 C 
ATOM      4  C   UNL     1       9.675  -0.376  25.177  0.00  0.00    +0.201 C 
ATOM      5  C   UNL     1       9.406  -0.929  23.758  0.00  0.00    +0.282 C 
ATOM      6  O   UNL     1       9.437  -2.354  23.782  0.00  0.00    -0.341 OA
ENDROOT
BRANCH   2   7
ATOM      7  O   UNL     1       7.585  -3.027  26.885  0.00  0.00    -0.386 OA
ATOM      8  H   UNL     1       6.759  -2.670  26.504  0.00  0.00    +0.210 HD
ENDBRANCH   2   7
BRANCH   3   9
ATOM      9  O   UNL     1       9.044  -0.659  27.520  0.00  0.00    -0.386 OA
ATOM     10  H   UNL     1      10.008  -0.492  27.503  0.00  0.00    +0.210 HD
ENDBRANCH   3   9
BRANCH   4  11
ATOM     11  O   UNL     1       9.522   1.053  25.286  0.00  0.00    -0.384 OA
ATOM     12  H   UNL     1       8.659   1.238  25.697  0.00  0.00    +0.210 HD
ENDBRANCH   4  11
BRANCH   1  13
ATOM     13  C   UNL     1       8.312  -4.409  24.348  0.00  0.00    +0.190 C 
BRANCH  13  14
ATOM     14  O   UNL     1       6.994  -4.866  24.676  0.00  0.00    -0.392 OA
ATOM     15  H   UNL     1       6.715  -5.459  23.962  0.00  0.00    +0.210 HD
ENDBRANCH  13  14
ENDBRANCH   1  13
BRANCH   5  16
ATOM     16  O   UNL     1      10.394  -0.439  22.844  0.00  0.00    -0.349 OA
BRANCH  16  17
ATOM     17  C   UNL     1       9.767   0.174  21.713  0.00  0.00    +0.165 C 
BRANCH  17  18
ATOM     18  C   UNL     1       9.758   1.693  21.858  0.00  0.00    +0.062 C 
BRANCH  18  19
ATOM     19  C   UNL     1       8.351   2.206  21.903  0.00  0.00    +0.146 C 
ATOM     20  O   UNL     1       7.707   2.066  23.174  0.00  0.00    -0.372 OA
ATOM     21  C   UNL     1       7.983   3.404  22.736  0.00  0.00    +0.191 C 
ENDBRANCH  18  19
ENDBRANCH  17  18
ENDBRANCH  16  17
ENDBRANCH   5  16
TORSDOF 9
ENDMDL
