MODEL 1
REMARK VINA RESULT:      -6.1      0.000      0.000
REMARK  Name = 
REMARK  12 active torsions:
REMARK  status: ('A' for Active; 'I' for Inactive)
REMARK    1  A    between atoms: C_1  and  C_2
REMARK    2  A    between atoms: C_5  and  C_6
REMARK    3  A    between atoms: C_6  and  O_7
REMARK    4  A    between atoms: O_7  and  P_8
REMARK    5  A    between atoms: P_8  and  O_9
REMARK    6  A    between atoms: P_8  and  O_10
REMARK    7  A    between atoms: C_12  and  C_13
REMARK    8  A    between atoms: C_13  and  N_14
REMARK    9  A    between atoms: N_14  and  C_15
REMARK   10  A    between atoms: C_15  and  C_18
REMARK   11  A    between atoms: C_18  and  O_19
REMARK   12  A    between atoms: C_21  and  O_22
REMARK                            x       y       z     vdW  Elec       q    Type
REMARK                         _______ _______ _______ _____ _____    ______ ____
ROOT
ATOM      1  C   UNL     1       6.363  -5.487  21.061  0.00  0.00    +0.069 C 
ATOM      2  C   UNL     1       6.401  -5.109  22.512  0.00  0.00    +0.080 A 
ATOM      3  C   UNL     1       7.054  -3.948  22.936  0.00  0.00    +0.142 A 
ATOM      4  C   UNL     1       7.130  -3.648  24.311  0.00  0.00    +0.016 A 
ATOM      5  C   UNL     1       6.577  -4.576  25.233  0.00  0.00    +0.005 A 
ATOM      6  C   UNL     1       5.920  -5.688  24.700  0.00  0.00    +0.117 A 
ATOM      7  N   UNL     1       5.820  -5.967  23.380  0.00  0.00    -0.256 NA
ENDROOT
BRANCH   3   8
ATOM      8  O   UNL     1       7.637  -3.159  21.981  0.00  0.00    -0.505 OA
ATOM      9  H   UNL     1       8.309  -3.664  21.495  0.00  0.00    +0.292 HD
ENDBRANCH   3   8
BRANCH   4  10
ATOM     10  C   UNL     1       7.895  -2.437  24.786  0.00  0.00    +0.121 C 
BRANCH  10  11
ATOM     11  N   UNL     1       9.261  -2.305  24.250  0.00  0.00    -0.297 NA
ATOM     12  H   UNL     1       9.317  -2.864  23.390  0.00  0.00    +0.123 HD
BRANCH  11  13
ATOM     13  C   UNL     1       9.619  -0.861  23.904  0.00  0.00    +0.117 C 
ATOM     14  C   UNL     1      10.380   0.014  24.891  0.00  0.00    +0.036 C 
ATOM     15  C   UNL     1       8.923   0.270  24.645  0.00  0.00    +0.036 C 
BRANCH  13  16
ATOM     16  C   UNL     1       9.864  -0.644  22.414  0.00  0.00    +0.325 C 
ATOM     17  O   UNL     1       9.629   0.405  21.847  0.00  0.00    -0.249 OA
BRANCH  16  18
ATOM     18  O   UNL     1      10.360  -1.749  21.804  0.00  0.00    -0.479 OA
ATOM     19  H   UNL     1      10.677  -2.355  22.504  0.00  0.00    +0.295 HD
ENDBRANCH  16  18
ENDBRANCH  13  16
ENDBRANCH  11  13
ENDBRANCH  10  11
ENDBRANCH   4  10
BRANCH   5  20
ATOM     20  C   UNL     1       6.624  -4.397  26.737  0.00  0.00    +0.209 C 
BRANCH  20  21
ATOM     21  O   UNL     1       5.541  -5.051  27.369  0.00  0.00    -0.282 OA
BRANCH  21  22
ATOM     22  P   UNL     1       5.964  -6.088  28.687  0.00  0.00    +0.473 P 
ATOM     23  O   UNL     1       6.341  -7.017  29.868  0.00  0.00    -0.228 OA
BRANCH  22  24
ATOM     24  O   UNL     1       7.454  -6.139  28.017  0.00  0.00    -0.303 OA
ATOM     25  H   UNL     1       7.498  -5.681  27.163  0.00  0.00    +0.222 HD
ENDBRANCH  22  24
BRANCH  22  26
ATOM     26  O   UNL     1       5.306  -7.284  27.783  0.00  0.00    -0.303 OA
ATOM     27  H   UNL     1       4.928  -7.993  28.326  0.00  0.00    +0.222 HD
ENDBRANCH  22  26
ENDBRANCH  21  22
ENDBRANCH  20  21
ENDBRANCH   5  20
TORSDOF 11
ENDMDL
MODEL 2
REMARK VINA RESULT:      -6.0      2.450      5.190
REMARK  Name = 
REMARK  12 active torsions:
REMARK  status: ('A' for Active; 'I' for Inactive)
REMARK    1  A    between atoms: C_1  and  C_2
REMARK    2  A    between atoms: C_5  and  C_6
REMARK    3  A    between atoms: C_6  and  O_7
REMARK    4  A    between atoms: O_7  and  P_8
REMARK    5  A    between atoms: P_8  and  O_9
REMARK    6  A    between atoms: P_8  and  O_10
REMARK    7  A    between atoms: C_12  and  C_13
REMARK    8  A    between atoms: C_13  and  N_14
REMARK    9  A    between atoms: N_14  and  C_15
REMARK   10  A    between atoms: C_15  and  C_18
REMARK   11  A    between atoms: C_18  and  O_19
REMARK   12  A    between atoms: C_21  and  O_22
REMARK                            x       y       z     vdW  Elec       q    Type
REMARK                         _______ _______ _______ _____ _____    ______ ____
ROOT
ATOM      1  C   UNL     1       8.867   1.945  21.873  0.00  0.00    +0.069 C 
ATOM      2  C   UNL     1       8.831   0.537  22.388  0.00  0.00    +0.080 A 
ATOM      3  C   UNL     1       7.620  -0.072  22.731  0.00  0.00    +0.142 A 
ATOM      4  C   UNL     1       7.618  -1.373  23.273  0.00  0.00    +0.016 A 
ATOM      5  C   UNL     1       8.868  -2.008  23.503  0.00  0.00    +0.005 A 
ATOM      6  C   UNL     1      10.015  -1.321  23.095  0.00  0.00    +0.117 A 
ATOM      7  N   UNL     1      10.020  -0.084  22.549  0.00  0.00    -0.256 NA
ENDROOT
BRANCH   3   8
ATOM      8  O   UNL     1       6.471   0.652  22.559  0.00  0.00    -0.505 OA
ATOM      9  H   UNL     1       6.665   1.602  22.598  0.00  0.00    +0.292 HD
ENDBRANCH   3   8
BRANCH   4  10
ATOM     10  C   UNL     1       6.324  -2.012  23.715  0.00  0.00    +0.121 C 
BRANCH  10  11
ATOM     11  N   UNL     1       5.527  -2.628  22.640  0.00  0.00    -0.297 NA
ATOM     12  H   UNL     1       6.038  -2.501  21.758  0.00  0.00    +0.123 HD
BRANCH  11  13
ATOM     13  C   UNL     1       5.308  -4.124  22.855  0.00  0.00    +0.117 C 
ATOM     14  C   UNL     1       3.939  -4.665  23.247  0.00  0.00    +0.036 C 
ATOM     15  C   UNL     1       5.043  -4.637  24.262  0.00  0.00    +0.036 C 
BRANCH  13  16
ATOM     16  C   UNL     1       6.199  -4.993  21.974  0.00  0.00    +0.325 C 
ATOM     17  O   UNL     1       7.055  -5.733  22.418  0.00  0.00    -0.249 OA
BRANCH  16  18
ATOM     18  O   UNL     1       5.933  -4.838  20.654  0.00  0.00    -0.479 OA
ATOM     19  H   UNL     1       5.255  -5.502  20.409  0.00  0.00    +0.295 HD
ENDBRANCH  16  18
ENDBRANCH  13  16
ENDBRANCH  11  13
ENDBRANCH  10  11
ENDBRANCH   4  10
BRANCH   5  20
ATOM     20  C   UNL     1       9.011  -3.386  24.116  0.00  0.00    +0.209 C 
BRANCH  20  21
ATOM     21  O   UNL     1       9.013  -3.325  25.528  0.00  0.00    -0.282 OA
BRANCH  21  22
ATOM     22  P   UNL     1       8.230  -4.642  26.332  0.00  0.00    +0.473 P 
ATOM     23  O   UNL     1       7.527  -5.821  27.050  0.00  0.00    -0.228 OA
BRANCH  22  24
ATOM     24  O   UNL     1       9.658  -4.875  27.091  0.00  0.00    -0.303 OA
ATOM     25  H   UNL     1       9.584  -5.464  27.859  0.00  0.00    +0.222 HD
ENDBRANCH  22  24
BRANCH  22  26
ATOM     26  O   UNL     1       8.587  -5.501  24.984  0.00  0.00    -0.303 OA
ATOM     27  H   UNL     1       9.021  -6.344  25.188  0.00  0.00    +0.222 HD
ENDBRANCH  22  26
ENDBRANCH  21  22
ENDBRANCH  20  21
ENDBRANCH   5  20
TORSDOF 11
ENDMDL
MODEL 3
REMARK VINA RESULT:      -5.9      1.762      4.378
REMARK  Name = 
REMARK  12 active torsions:
REMARK  status: ('A' for Active; 'I' for Inactive)
REMARK    1  A    between atoms: C_1  and  C_2
REMARK    2  A    between atoms: C_5  and  C_6
REMARK    3  A    between atoms: C_6  and  O_7
REMARK    4  A    between atoms: O_7  and  P_8
REMARK    5  A    between atoms: P_8  and  O_9
REMARK    6  A    between atoms: P_8  and  O_10
REMARK    7  A    between atoms: C_12  and  C_13
REMARK    8  A    between atoms: C_13  and  N_14
REMARK    9  A    between atoms: N_14  and  C_15
REMARK   10  A    between atoms: C_15  and  C_18
REMARK   11  A    between atoms: C_18  and  O_19
REMARK   12  A    between atoms: C_21  and  O_22
REMARK                            x       y       z     vdW  Elec       q    Type
REMARK                         _______ _______ _______ _____ _____    ______ ____
ROOT
ATOM      1  C   UNL     1       7.743   0.503  22.518  0.00  0.00    +0.069 C 
ATOM      2  C   UNL     1       7.786  -0.535  23.601  0.00  0.00    +0.080 A 
ATOM      3  C   UNL     1       8.217  -1.837  23.330  0.00  0.00    +0.142 A 
ATOM      4  C   UNL     1       8.189  -2.811  24.349  0.00  0.00    +0.016 A 
ATOM      5  C   UNL     1       7.667  -2.441  25.618  0.00  0.00    +0.005 A 
ATOM      6  C   UNL     1       7.294  -1.105  25.788  0.00  0.00    +0.117 A 
ATOM      7  N   UNL     1       7.345  -0.161  24.821  0.00  0.00    -0.256 NA
ENDROOT
BRANCH   3   8
ATOM      8  O   UNL     1       8.617  -2.125  22.053  0.00  0.00    -0.505 OA
ATOM      9  H   UNL     1       9.363  -1.557  21.801  0.00  0.00    +0.292 HD
ENDBRANCH   3   8
BRANCH   4  10
ATOM     10  C   UNL     1       8.582  -4.237  24.052  0.00  0.00    +0.121 C 
BRANCH  10  11
ATOM     11  N   UNL     1       7.498  -5.228  24.173  0.00  0.00    -0.297 NA
ATOM     12  H   UNL     1       6.952  -4.994  25.011  0.00  0.00    +0.123 HD
BRANCH  11  13
ATOM     13  C   UNL     1       6.556  -5.218  22.971  0.00  0.00    +0.117 C 
ATOM     14  C   UNL     1       6.337  -6.475  22.140  0.00  0.00    +0.036 C 
ATOM     15  C   UNL     1       7.142  -5.343  21.573  0.00  0.00    +0.036 C 
BRANCH  13  16
ATOM     16  C   UNL     1       5.389  -4.250  23.130  0.00  0.00    +0.325 C 
ATOM     17  O   UNL     1       5.086  -3.427  22.288  0.00  0.00    -0.249 OA
BRANCH  16  18
ATOM     18  O   UNL     1       4.743  -4.407  24.313  0.00  0.00    -0.479 OA
ATOM     19  H   UNL     1       5.260  -3.932  24.997  0.00  0.00    +0.295 HD
ENDBRANCH  16  18
ENDBRANCH  13  16
ENDBRANCH  11  13
ENDBRANCH  10  11
ENDBRANCH   4  10
BRANCH   5  20
ATOM     20  C   UNL     1       7.543  -3.397  26.787  0.00  0.00    +0.209 C 
BRANCH  20  21
ATOM     21  O   UNL     1       6.392  -4.210  26.668  0.00  0.00    -0.282 OA
BRANCH  21  22
ATOM     22  P   UNL     1       6.352  -5.600  27.697  0.00  0.00    +0.473 P 
ATOM     23  O   UNL     1       6.315  -6.844  28.619  0.00  0.00    -0.228 OA
BRANCH  22  24
ATOM     24  O   UNL     1       7.944  -5.749  27.362  0.00  0.00    -0.303 OA
ATOM     25  H   UNL     1       8.227  -6.674  27.284  0.00  0.00    +0.222 HD
ENDBRANCH  22  24
BRANCH  22  26
ATOM     26  O   UNL     1       5.803  -6.397  26.376  0.00  0.00    -0.303 OA
ATOM     27  H   UNL     1       6.398  -6.305  25.615  0.00  0.00    +0.222 HD
ENDBRANCH  22  26
ENDBRANCH  21  22
ENDBRANCH  20  21
ENDBRANCH   5  20
TORSDOF 11
ENDMDL
MODEL 4
REMARK VINA RESULT:      -5.7      2.779      5.957
REMARK  Name = 
REMARK  12 active torsions:
REMARK  status: ('A' for Active; 'I' for Inactive)
REMARK    1  A    between atoms: C_1  and  C_2
REMARK    2  A    between atoms: C_5  and  C_6
REMARK    3  A    between atoms: C_6  and  O_7
REMARK    4  A    between atoms: O_7  and  P_8
REMARK    5  A    between atoms: P_8  and  O_9
REMARK    6  A    between atoms: P_8  and  O_10
REMARK    7  A    between atoms: C_12  and  C_13
REMARK    8  A    between atoms: C_13  and  N_14
REMARK    9  A    between atoms: N_14  and  C_15
REMARK   10  A    between atoms: C_15  and  C_18
REMARK   11  A    between atoms: C_18  and  O_19
REMARK   12  A    between atoms: C_21  and  O_22
REMARK                            x       y       z     vdW  Elec       q    Type
REMARK                         _______ _______ _______ _____ _____    ______ ____
ROOT
ATOM      1  C   UNL     1      10.977   1.311  24.112  0.00  0.00    +0.069 C 
ATOM      2  C   UNL     1       9.868   0.357  23.776  0.00  0.00    +0.080 A 
ATOM      3  C   UNL     1       9.160  -0.305  24.783  0.00  0.00    +0.142 A 
ATOM      4  C   UNL     1       8.166  -1.243  24.440  0.00  0.00    +0.016 A 
ATOM      5  C   UNL     1       7.953  -1.525  23.063  0.00  0.00    +0.005 A 
ATOM      6  C   UNL     1       8.695  -0.784  22.140  0.00  0.00    +0.117 A 
ATOM      7  N   UNL     1       9.630   0.138  22.464  0.00  0.00    -0.256 NA
ENDROOT
BRANCH   3   8
ATOM      8  O   UNL     1       9.496  -0.036  26.082  0.00  0.00    -0.505 OA
ATOM      9  H   UNL     1      10.457  -0.111  26.201  0.00  0.00    +0.292 HD
ENDBRANCH   3   8
BRANCH   4  10
ATOM     10  C   UNL     1       7.445  -2.018  25.516  0.00  0.00    +0.121 C 
BRANCH  10  11
ATOM     11  N   UNL     1       8.314  -2.727  26.472  0.00  0.00    -0.297 NA
ATOM     12  H   UNL     1       7.890  -2.641  27.404  0.00  0.00    +0.123 HD
BRANCH  11  13
ATOM     13  C   UNL     1       8.456  -4.212  26.146  0.00  0.00    +0.117 C 
ATOM     14  C   UNL     1       9.818  -4.893  26.180  0.00  0.00    +0.036 C 
ATOM     15  C   UNL     1       9.157  -4.622  24.860  0.00  0.00    +0.036 C 
BRANCH  13  16
ATOM     16  C   UNL     1       7.232  -5.033  26.540  0.00  0.00    +0.325 C 
ATOM     17  O   UNL     1       6.594  -5.698  25.749  0.00  0.00    -0.249 OA
BRANCH  16  18
ATOM     18  O   UNL     1       6.940  -4.925  27.860  0.00  0.00    -0.479 OA
ATOM     19  H   UNL     1       7.720  -5.240  28.362  0.00  0.00    +0.295 HD
ENDBRANCH  16  18
ENDBRANCH  13  16
ENDBRANCH  11  13
ENDBRANCH  10  11
ENDBRANCH   4  10
BRANCH   5  20
ATOM     20  C   UNL     1       6.947  -2.539  22.558  0.00  0.00    +0.209 C 
BRANCH  20  21
ATOM     21  O   UNL     1       7.587  -3.644  21.951  0.00  0.00    -0.282 OA
BRANCH  21  22
ATOM     22  P   UNL     1       6.647  -5.093  21.860  0.00  0.00    +0.473 P 
ATOM     23  O   UNL     1       5.806  -6.391  21.779  0.00  0.00    -0.228 OA
BRANCH  22  24
ATOM     24  O   UNL     1       5.694  -4.269  20.819  0.00  0.00    -0.303 OA
ATOM     25  H   UNL     1       6.081  -4.195  19.932  0.00  0.00    +0.222 HD
ENDBRANCH  22  24
BRANCH  22  26
ATOM     26  O   UNL     1       5.935  -4.559  23.234  0.00  0.00    -0.303 OA
ATOM     27  H   UNL     1       6.567  -4.139  23.840  0.00  0.00    +0.222 HD
ENDBRANCH  22  26
ENDBRANCH  21  22
ENDBRANCH  20  21
ENDBRANCH   5  20
TORSDOF 11
ENDMDL
MODEL 5
REMARK VINA RESULT:      -5.6      2.996      4.831
REMARK  Name = 
REMARK  12 active torsions:
REMARK  status: ('A' for Active; 'I' for Inactive)
REMARK    1  A    between atoms: C_1  and  C_2
REMARK    2  A    between atoms: C_5  and  C_6
REMARK    3  A    between atoms: C_6  and  O_7
REMARK    4  A    between atoms: O_7  and  P_8
REMARK    5  A    between atoms: P_8  and  O_9
REMARK    6  A    between atoms: P_8  and  O_10
REMARK    7  A    between atoms: C_12  and  C_13
REMARK    8  A    between atoms: C_13  and  N_14
REMARK    9  A    between atoms: N_14  and  C_15
REMARK   10  A    between atoms: C_15  and  C_18
REMARK   11  A    between atoms: C_18  and  O_19
REMARK   12  A    between atoms: C_21  and  O_22
REMARK                            x       y       z     vdW  Elec       q    Type
REMARK                         _______ _______ _______ _____ _____    ______ ____
ROOT
ATOM      1  C   UNL     1       9.763   1.732  21.955  0.00  0.00    +0.069 C 
ATOM      2  C   UNL     1       9.239   0.360  22.261  0.00  0.00    +0.080 A 
ATOM      3  C   UNL     1       8.016   0.189  22.917  0.00  0.00    +0.142 A 
ATOM      4  C   UNL     1       7.575  -1.108  23.249  0.00  0.00    +0.016 A 
ATOM      5  C   UNL     1       8.426  -2.206  22.948  0.00  0.00    +0.005 A 
ATOM      6  C   UNL     1       9.611  -1.923  22.264  0.00  0.00    +0.117 A 
ATOM      7  N   UNL     1      10.026  -0.683  21.919  0.00  0.00    -0.256 NA
ENDROOT
BRANCH   3   8
ATOM      8  O   UNL     1       7.306   1.311  23.248  0.00  0.00    -0.505 OA
ATOM      9  H   UNL     1       6.462   1.063  23.661  0.00  0.00    +0.292 HD
ENDBRANCH   3   8
BRANCH   4  10
ATOM     10  C   UNL     1       6.293  -1.303  24.021  0.00  0.00    +0.121 C 
BRANCH  10  11
ATOM     11  N   UNL     1       6.459  -1.722  25.424  0.00  0.00    -0.297 NA
ATOM     12  H   UNL     1       7.336  -2.254  25.490  0.00  0.00    +0.123 HD
BRANCH  11  13
ATOM     13  C   UNL     1       6.545  -0.538  26.384  0.00  0.00    +0.117 C 
ATOM     14  C   UNL     1       5.516  -0.355  27.493  0.00  0.00    +0.036 C 
ATOM     15  C   UNL     1       5.492   0.557  26.302  0.00  0.00    +0.036 C 
BRANCH  13  16
ATOM     16  C   UNL     1       7.976  -0.082  26.649  0.00  0.00    +0.325 C 
ATOM     17  O   UNL     1       8.806  -0.779  27.198  0.00  0.00    -0.249 OA
BRANCH  16  18
ATOM     18  O   UNL     1       8.206   1.182  26.213  0.00  0.00    -0.479 OA
ATOM     19  H   UNL     1       9.120   1.420  26.469  0.00  0.00    +0.295 HD
ENDBRANCH  16  18
ENDBRANCH  13  16
ENDBRANCH  11  13
ENDBRANCH  10  11
ENDBRANCH   4  10
BRANCH   5  20
ATOM     20  C   UNL     1       8.093  -3.645  23.287  0.00  0.00    +0.209 C 
BRANCH  20  21
ATOM     21  O   UNL     1       9.057  -4.207  24.155  0.00  0.00    -0.282 OA
BRANCH  21  22
ATOM     22  P   UNL     1       8.423  -5.049  25.526  0.00  0.00    +0.473 P 
ATOM     23  O   UNL     1       7.855  -5.805  26.754  0.00  0.00    -0.228 OA
BRANCH  22  24
ATOM     24  O   UNL     1       8.663  -3.656  26.347  0.00  0.00    -0.303 OA
ATOM     25  H   UNL     1       7.864  -3.108  26.399  0.00  0.00    +0.222 HD
ENDBRANCH  22  24
BRANCH  22  26
ATOM     26  O   UNL     1       9.942  -5.637  25.700  0.00  0.00    -0.303 OA
ATOM     27  H   UNL     1      10.603  -5.092  25.246  0.00  0.00    +0.222 HD
ENDBRANCH  22  26
ENDBRANCH  21  22
ENDBRANCH  20  21
ENDBRANCH   5  20
TORSDOF 11
ENDMDL
MODEL 6
REMARK VINA RESULT:      -5.6      1.853      2.470
REMARK  Name = 
REMARK  12 active torsions:
REMARK  status: ('A' for Active; 'I' for Inactive)
REMARK    1  A    between atoms: C_1  and  C_2
REMARK    2  A    between atoms: C_5  and  C_6
REMARK    3  A    between atoms: C_6  and  O_7
REMARK    4  A    between atoms: O_7  and  P_8
REMARK    5  A    between atoms: P_8  and  O_9
REMARK    6  A    between atoms: P_8  and  O_10
REMARK    7  A    between atoms: C_12  and  C_13
REMARK    8  A    between atoms: C_13  and  N_14
REMARK    9  A    between atoms: N_14  and  C_15
REMARK   10  A    between atoms: C_15  and  C_18
REMARK   11  A    between atoms: C_18  and  O_19
REMARK   12  A    between atoms: C_21  and  O_22
REMARK                            x       y       z     vdW  Elec       q    Type
REMARK                         _______ _______ _______ _____ _____    ______ ____
ROOT
ATOM      1  C   UNL     1       6.141  -5.879  21.085  0.00  0.00    +0.069 C 
ATOM      2  C   UNL     1       5.761  -5.374  22.446  0.00  0.00    +0.080 A 
ATOM      3  C   UNL     1       5.945  -4.032  22.791  0.00  0.00    +0.142 A 
ATOM      4  C   UNL     1       5.640  -3.596  24.097  0.00  0.00    +0.016 A 
ATOM      5  C   UNL     1       5.200  -4.561  25.043  0.00  0.00    +0.005 A 
ATOM      6  C   UNL     1       5.022  -5.868  24.582  0.00  0.00    +0.117 A 
ATOM      7  N   UNL     1       5.287  -6.285  23.323  0.00  0.00    -0.256 NA
ENDROOT
BRANCH   3   8
ATOM      8  O   UNL     1       6.460  -3.193  21.841  0.00  0.00    -0.505 OA
ATOM      9  H   UNL     1       6.595  -3.674  21.008  0.00  0.00    +0.292 HD
ENDBRANCH   3   8
BRANCH   4  10
ATOM     10  C   UNL     1       5.902  -2.166  24.504  0.00  0.00    +0.121 C 
BRANCH  10  11
ATOM     11  N   UNL     1       7.129  -1.568  23.948  0.00  0.00    -0.297 NA
ATOM     12  H   UNL     1       7.053  -0.548  24.048  0.00  0.00    +0.123 HD
BRANCH  11  13
ATOM     13  C   UNL     1       8.389  -2.027  24.677  0.00  0.00    +0.117 C 
ATOM     14  C   UNL     1       9.772  -1.719  24.118  0.00  0.00    +0.036 C 
ATOM     15  C   UNL     1       9.244  -3.121  24.057  0.00  0.00    +0.036 C 
BRANCH  13  16
ATOM     16  C   UNL     1       8.221  -2.077  26.192  0.00  0.00    +0.325 C 
ATOM     17  O   UNL     1       8.016  -1.091  26.872  0.00  0.00    -0.249 OA
BRANCH  16  18
ATOM     18  O   UNL     1       8.336  -3.335  26.685  0.00  0.00    -0.479 OA
ATOM     19  H   UNL     1       7.571  -3.852  26.356  0.00  0.00    +0.295 HD
ENDBRANCH  16  18
ENDBRANCH  13  16
ENDBRANCH  11  13
ENDBRANCH  10  11
ENDBRANCH   4  10
BRANCH   5  20
ATOM     20  C   UNL     1       4.876  -4.236  26.487  0.00  0.00    +0.209 C 
BRANCH  20  21
ATOM     21  O   UNL     1       5.979  -4.495  27.333  0.00  0.00    -0.282 OA
BRANCH  21  22
ATOM     22  P   UNL     1       5.984  -6.048  28.095  0.00  0.00    +0.473 P 
ATOM     23  O   UNL     1       5.988  -7.439  28.777  0.00  0.00    -0.228 OA
BRANCH  22  24
ATOM     24  O   UNL     1       6.067  -5.226  29.506  0.00  0.00    -0.303 OA
ATOM     25  H   UNL     1       5.684  -5.717  30.250  0.00  0.00    +0.222 HD
ENDBRANCH  22  24
BRANCH  22  26
ATOM     26  O   UNL     1       7.591  -6.049  27.780  0.00  0.00    -0.303 OA
ATOM     27  H   UNL     1       7.988  -5.169  27.878  0.00  0.00    +0.222 HD
ENDBRANCH  22  26
ENDBRANCH  21  22
ENDBRANCH  20  21
ENDBRANCH   5  20
TORSDOF 11
ENDMDL
MODEL 7
REMARK VINA RESULT:      -5.6      3.312      6.914
REMARK  Name = 
REMARK  12 active torsions:
REMARK  status: ('A' for Active; 'I' for Inactive)
REMARK    1  A    between atoms: C_1  and  C_2
REMARK    2  A    between atoms: C_5  and  C_6
REMARK    3  A    between atoms: C_6  and  O_7
REMARK    4  A    between atoms: O_7  and  P_8
REMARK    5  A    between atoms: P_8  and  O_9
REMARK    6  A    between atoms: P_8  and  O_10
REMARK    7  A    between atoms: C_12  and  C_13
REMARK    8  A    between atoms: C_13  and  N_14
REMARK    9  A    between atoms: N_14  and  C_15
REMARK   10  A    between atoms: C_15  and  C_18
REMARK   11  A    between atoms: C_18  and  O_19
REMARK   12  A    between atoms: C_21  and  O_22
REMARK                            x       y       z     vdW  Elec       q    Type
REMARK                         _______ _______ _______ _____ _____    ______ ____
ROOT
ATOM      1  C   UNL     1       4.449  -1.226  26.980  0.00  0.00    +0.069 C 
ATOM      2  C   UNL     1       5.501  -1.040  25.926  0.00  0.00    +0.080 A 
ATOM      3  C   UNL     1       6.613  -1.886  25.864  0.00  0.00    +0.142 A 
ATOM      4  C   UNL     1       7.618  -1.652  24.905  0.00  0.00    +0.016 A 
ATOM      5  C   UNL     1       7.489  -0.519  24.057  0.00  0.00    +0.005 A 
ATOM      6  C   UNL     1       6.323   0.241  24.183  0.00  0.00    +0.117 A 
ATOM      7  N   UNL     1       5.342   0.004  25.084  0.00  0.00    -0.256 NA
ENDROOT
BRANCH   3   8
ATOM      8  O   UNL     1       6.697  -2.899  26.781  0.00  0.00    -0.505 OA
ATOM      9  H   UNL     1       5.975  -2.825  27.427  0.00  0.00    +0.292 HD
ENDBRANCH   3   8
BRANCH   4  10
ATOM     10  C   UNL     1       8.858  -2.512  24.875  0.00  0.00    +0.121 C 
BRANCH  10  11
ATOM     11  N   UNL     1       8.929  -3.477  23.764  0.00  0.00    -0.297 NA
ATOM     12  H   UNL     1       9.920  -3.683  23.590  0.00  0.00    +0.123 HD
BRANCH  11  13
ATOM     13  C   UNL     1       8.217  -4.790  24.080  0.00  0.00    +0.117 C 
ATOM     14  C   UNL     1       7.684  -5.679  22.964  0.00  0.00    +0.036 C 
ATOM     15  C   UNL     1       6.724  -4.903  23.815  0.00  0.00    +0.036 C 
BRANCH  13  16
ATOM     16  C   UNL     1       8.731  -5.461  25.349  0.00  0.00    +0.325 C 
ATOM     17  O   UNL     1       8.032  -5.675  26.320  0.00  0.00    -0.249 OA
BRANCH  16  18
ATOM     18  O   UNL     1      10.047  -5.779  25.271  0.00  0.00    -0.479 OA
ATOM     19  H   UNL     1      10.538  -4.957  25.065  0.00  0.00    +0.295 HD
ENDBRANCH  16  18
ENDBRANCH  13  16
ENDBRANCH  11  13
ENDBRANCH  10  11
ENDBRANCH   4  10
BRANCH   5  20
ATOM     20  C   UNL     1       8.515  -0.129  23.012  0.00  0.00    +0.209 C 
BRANCH  20  21
ATOM     21  O   UNL     1       8.437   1.248  22.701  0.00  0.00    -0.282 OA
BRANCH  21  22
ATOM     22  P   UNL     1       9.822   2.189  23.136  0.00  0.00    +0.473 P 
ATOM     23  O   UNL     1      11.062   3.032  23.527  0.00  0.00    -0.228 OA
BRANCH  22  24
ATOM     24  O   UNL     1      10.128   2.267  21.533  0.00  0.00    -0.303 OA
ATOM     25  H   UNL     1      10.099   1.399  21.101  0.00  0.00    +0.222 HD
ENDBRANCH  22  24
BRANCH  22  26
ATOM     26  O   UNL     1      10.553   0.747  23.400  0.00  0.00    -0.303 OA
ATOM     27  H   UNL     1      10.240   0.317  24.211  0.00  0.00    +0.222 HD
ENDBRANCH  22  26
ENDBRANCH  21  22
ENDBRANCH  20  21
ENDBRANCH   5  20
TORSDOF 11
ENDMDL
MODEL 8
REMARK VINA RESULT:      -5.6      2.380      5.505
REMARK  Name = 
REMARK  12 active torsions:
REMARK  status: ('A' for Active; 'I' for Inactive)
REMARK    1  A    between atoms: C_1  and  C_2
REMARK    2  A    between atoms: C_5  and  C_6
REMARK    3  A    between atoms: C_6  and  O_7
REMARK    4  A    between atoms: O_7  and  P_8
REMARK    5  A    between atoms: P_8  and  O_9
REMARK    6  A    between atoms: P_8  and  O_10
REMARK    7  A    between atoms: C_12  and  C_13
REMARK    8  A    between atoms: C_13  and  N_14
REMARK    9  A    between atoms: N_14  and  C_15
REMARK   10  A    between atoms: C_15  and  C_18
REMARK   11  A    between atoms: C_18  and  O_19
REMARK   12  A    between atoms: C_21  and  O_22
REMARK                            x       y       z     vdW  Elec       q    Type
REMARK                         _______ _______ _______ _____ _____    ______ ____
ROOT
ATOM      1  C   UNL     1       8.636  -1.896  22.232  0.00  0.00    +0.069 C 
ATOM      2  C   UNL     1       7.989  -2.919  23.118  0.00  0.00    +0.080 A 
ATOM      3  C   UNL     1       6.599  -3.069  23.145  0.00  0.00    +0.142 A 
ATOM      4  C   UNL     1       6.011  -3.993  24.033  0.00  0.00    +0.016 A 
ATOM      5  C   UNL     1       6.860  -4.711  24.917  0.00  0.00    +0.005 A 
ATOM      6  C   UNL     1       8.236  -4.506  24.784  0.00  0.00    +0.117 A 
ATOM      7  N   UNL     1       8.807  -3.641  23.915  0.00  0.00    -0.256 NA
ENDROOT
BRANCH   3   8
ATOM      8  O   UNL     1       5.854  -2.269  22.322  0.00  0.00    -0.505 OA
ATOM      9  H   UNL     1       5.834  -2.641  21.424  0.00  0.00    +0.292 HD
ENDBRANCH   3   8
BRANCH   4  10
ATOM     10  C   UNL     1       4.509  -4.112  24.124  0.00  0.00    +0.121 C 
BRANCH  10  11
ATOM     11  N   UNL     1       3.864  -4.820  23.004  0.00  0.00    -0.297 NA
ATOM     12  H   UNL     1       4.591  -5.346  22.505  0.00  0.00    +0.123 HD
BRANCH  11  13
ATOM     13  C   UNL     1       2.795  -5.806  23.470  0.00  0.00    +0.117 C 
ATOM     14  C   UNL     1       1.558  -6.075  22.623  0.00  0.00    +0.036 C 
ATOM     15  C   UNL     1       1.432  -5.275  23.885  0.00  0.00    +0.036 C 
BRANCH  13  16
ATOM     16  C   UNL     1       3.358  -6.951  24.305  0.00  0.00    +0.325 C 
ATOM     17  O   UNL     1       2.876  -7.301  25.364  0.00  0.00    -0.249 OA
BRANCH  16  18
ATOM     18  O   UNL     1       4.451  -7.518  23.737  0.00  0.00    -0.479 OA
ATOM     19  H   UNL     1       5.211  -6.922  23.900  0.00  0.00    +0.295 HD
ENDBRANCH  16  18
ENDBRANCH  13  16
ENDBRANCH  11  13
ENDBRANCH  10  11
ENDBRANCH   4  10
BRANCH   5  20
ATOM     20  C   UNL     1       6.357  -5.703  25.947  0.00  0.00    +0.209 C 
BRANCH  20  21
ATOM     21  O   UNL     1       6.359  -5.144  27.245  0.00  0.00    -0.282 OA
BRANCH  21  22
ATOM     22  P   UNL     1       5.678  -6.139  28.486  0.00  0.00    +0.473 P 
ATOM     23  O   UNL     1       5.068  -7.029  29.596  0.00  0.00    -0.228 OA
BRANCH  22  24
ATOM     24  O   UNL     1       7.193  -6.719  28.690  0.00  0.00    -0.303 OA
ATOM     25  H   UNL     1       7.526  -7.185  27.907  0.00  0.00    +0.222 HD
ENDBRANCH  22  24
BRANCH  22  26
ATOM     26  O   UNL     1       5.253  -7.141  27.263  0.00  0.00    -0.303 OA
ATOM     27  H   UNL     1       4.986  -6.658  26.464  0.00  0.00    +0.222 HD
ENDBRANCH  22  26
ENDBRANCH  21  22
ENDBRANCH  20  21
ENDBRANCH   5  20
TORSDOF 11
ENDMDL
MODEL 9
REMARK VINA RESULT:      -5.5      2.579      4.458
REMARK  Name = 
REMARK  12 active torsions:
REMARK  status: ('A' for Active; 'I' for Inactive)
REMARK    1  A    between atoms: C_1  and  C_2
REMARK    2  A    between atoms: C_5  and  C_6
REMARK    3  A    between atoms: C_6  and  O_7
REMARK    4  A    between atoms: O_7  and  P_8
REMARK    5  A    between atoms: P_8  and  O_9
REMARK    6  A    between atoms: P_8  and  O_10
REMARK    7  A    between atoms: C_12  and  C_13
REMARK    8  A    between atoms: C_13  and  N_14
REMARK    9  A    between atoms: N_14  and  C_15
REMARK   10  A    between atoms: C_15  and  C_18
REMARK   11  A    between atoms: C_18  and  O_19
REMARK   12  A    between atoms: C_21  and  O_22
REMARK                            x       y       z     vdW  Elec       q    Type
REMARK                         _______ _______ _______ _____ _____    ______ ____
ROOT
ATOM      1  C   UNL     1       6.031  -6.156  28.754  0.00  0.00    +0.069 C 
ATOM      2  C   UNL     1       5.976  -5.449  27.432  0.00  0.00    +0.080 A 
ATOM      3  C   UNL     1       7.144  -5.185  26.710  0.00  0.00    +0.142 A 
ATOM      4  C   UNL     1       7.072  -4.463  25.501  0.00  0.00    +0.016 A 
ATOM      5  C   UNL     1       5.804  -3.979  25.080  0.00  0.00    +0.005 A 
ATOM      6  C   UNL     1       4.699  -4.327  25.862  0.00  0.00    +0.117 A 
ATOM      7  N   UNL     1       4.759  -5.043  27.008  0.00  0.00    -0.256 NA
ENDROOT
BRANCH   3   8
ATOM      8  O   UNL     1       8.332  -5.612  27.238  0.00  0.00    -0.505 OA
ATOM      9  H   UNL     1       8.655  -4.973  27.894  0.00  0.00    +0.292 HD
ENDBRANCH   3   8
BRANCH   4  10
ATOM     10  C   UNL     1       8.332  -4.109  24.749  0.00  0.00    +0.121 C 
BRANCH  10  11
ATOM     11  N   UNL     1       9.151  -3.046  25.358  0.00  0.00    -0.297 NA
ATOM     12  H   UNL     1      10.117  -3.391  25.420  0.00  0.00    +0.123 HD
BRANCH  11  13
ATOM     13  C   UNL     1       9.154  -1.761  24.533  0.00  0.00    +0.117 C 
ATOM     14  C   UNL     1       9.544  -0.430  25.161  0.00  0.00    +0.036 C 
ATOM     15  C   UNL     1       8.107  -0.696  24.821  0.00  0.00    +0.036 C 
BRANCH  13  16
ATOM     16  C   UNL     1       9.499  -1.992  23.066  0.00  0.00    +0.325 C 
ATOM     17  O   UNL     1      10.603  -2.329  22.686  0.00  0.00    -0.249 OA
BRANCH  16  18
ATOM     18  O   UNL     1       8.443  -1.769  22.244  0.00  0.00    -0.479 OA
ATOM     19  H   UNL     1       8.676  -1.017  21.662  0.00  0.00    +0.295 HD
ENDBRANCH  16  18
ENDBRANCH  13  16
ENDBRANCH  11  13
ENDBRANCH  10  11
ENDBRANCH   4  10
BRANCH   5  20
ATOM     20  C   UNL     1       5.592  -3.158  23.825  0.00  0.00    +0.209 C 
BRANCH  20  21
ATOM     21  O   UNL     1       5.030  -3.937  22.788  0.00  0.00    -0.282 OA
BRANCH  21  22
ATOM     22  P   UNL     1       6.138  -4.962  21.943  0.00  0.00    +0.473 P 
ATOM     23  O   UNL     1       7.131  -5.881  21.187  0.00  0.00    -0.228 OA
BRANCH  22  24
ATOM     24  O   UNL     1       5.715  -4.122  20.606  0.00  0.00    -0.303 OA
ATOM     25  H   UNL     1       6.414  -3.522  20.302  0.00  0.00    +0.222 HD
ENDBRANCH  22  24
BRANCH  22  26
ATOM     26  O   UNL     1       4.901  -6.034  21.894  0.00  0.00    -0.303 OA
ATOM     27  H   UNL     1       4.329  -5.904  21.122  0.00  0.00    +0.222 HD
ENDBRANCH  22  26
ENDBRANCH  21  22
ENDBRANCH  20  21
ENDBRANCH   5  20
TORSDOF 11
ENDMDL
