MODEL 1
REMARK VINA RESULT:      -6.6      0.000      0.000
REMARK  Name = 
REMARK  3 active torsions:
REMARK  status: ('A' for Active; 'I' for Inactive)
REMARK    1  A    between atoms: N_1  and  S_2
REMARK    2  A    between atoms: S_2  and  C_5
REMARK    3  A    between atoms: C_16  and  C_17
REMARK                            x       y       z     vdW  Elec       q    Type
REMARK                         _______ _______ _______ _____ _____    ______ ____
ROOT
ATOM      1  C   UNL     1       7.663  -3.405  23.100  0.00  0.00    +0.119 A 
ATOM      2  C   UNL     1       8.562  -3.722  24.128  0.00  0.00    +0.083 A 
ATOM      3  C   UNL     1       9.418  -2.693  24.601  0.00  0.00    +0.039 A 
ATOM      4  C   UNL     1       9.427  -1.400  24.058  0.00  0.00    +0.055 A 
ATOM      5  N   UNL     1      10.248  -0.424  24.624  0.00  0.00    -0.328 N 
ATOM      6  H   UNL     1      11.076  -0.796  25.080  0.00  0.00    +0.147 HD
ATOM      7  C   UNL     1      10.516   0.766  23.852  0.00  0.00    +0.209 C 
ATOM      8  N   UNL     1       9.271   1.409  23.499  0.00  0.00    -0.173 NA
ATOM      9  H   UNL     1       9.424   2.330  23.095  0.00  0.00    +0.150 HD
ATOM     10  S   UNL     1       8.399   0.490  22.399  0.00  0.00    +0.062 S 
ATOM     11  O   UNL     1       9.154   0.500  21.165  0.00  0.00    -0.153 OA
ATOM     12  O   UNL     1       7.028   0.942  22.452  0.00  0.00    -0.153 OA
ATOM     13  C   UNL     1       8.495  -1.130  23.062  0.00  0.00    +0.128 A 
ATOM     14  C   UNL     1       7.625  -2.101  22.572  0.00  0.00    +0.059 A 
ENDROOT
BRANCH   2  15
ATOM     15  C   UNL     1       8.713  -5.072  24.795  0.00  0.00    +0.419 C 
ATOM     16  F   UNL     1       9.773  -5.079  25.659  0.00  0.00    -0.166 F 
ATOM     17  F   UNL     1       8.998  -6.045  23.880  0.00  0.00    -0.166 F 
ATOM     18  F   UNL     1       7.669  -5.538  25.518  0.00  0.00    -0.166 F 
ENDBRANCH   2  15
BRANCH   1  19
ATOM     19  S   UNL     1       6.522  -4.568  22.397  0.00  0.00    +0.057 S 
ATOM     20  O   UNL     1       7.253  -5.500  21.571  0.00  0.00    -0.153 OA
ATOM     21  O   UNL     1       5.623  -5.011  23.432  0.00  0.00    -0.153 OA
BRANCH  19  22
ATOM     22  N   UNL     1       5.675  -3.613  21.311  0.00  0.00    -0.203 NA
ATOM     23  H   UNL     1       4.700  -3.530  21.603  0.00  0.00    +0.144 HD
ATOM     24  H   UNL     1       6.145  -2.712  21.212  0.00  0.00    +0.144 HD
ENDBRANCH  19  22
ENDBRANCH   1  19
TORSDOF 3
ENDMDL
MODEL 2
REMARK VINA RESULT:      -6.6      3.543      5.988
REMARK  Name = 
REMARK  3 active torsions:
REMARK  status: ('A' for Active; 'I' for Inactive)
REMARK    1  A    between atoms: N_1  and  S_2
REMARK    2  A    between atoms: S_2  and  C_5
REMARK    3  A    between atoms: C_16  and  C_17
REMARK                            x       y       z     vdW  Elec       q    Type
REMARK                         _______ _______ _______ _____ _____    ______ ____
ROOT
ATOM      1  C   UNL     1       8.905  -0.969  24.155  0.00  0.00    +0.119 A 
ATOM      2  C   UNL     1       8.802  -0.935  22.757  0.00  0.00    +0.083 A 
ATOM      3  C   UNL     1       8.257  -2.070  22.103  0.00  0.00    +0.039 A 
ATOM      4  C   UNL     1       7.860  -3.227  22.790  0.00  0.00    +0.055 A 
ATOM      5  N   UNL     1       7.269  -4.275  22.085  0.00  0.00    -0.328 N 
ATOM      6  H   UNL     1       7.550  -4.326  21.110  0.00  0.00    +0.147 HD
ATOM      7  C   UNL     1       7.201  -5.568  22.722  0.00  0.00    +0.209 C 
ATOM      8  N   UNL     1       6.503  -5.454  23.983  0.00  0.00    -0.173 NA
ATOM      9  H   UNL     1       6.298  -6.367  24.382  0.00  0.00    +0.150 HD
ATOM     10  S   UNL     1       7.397  -4.580  25.100  0.00  0.00    +0.062 S 
ATOM     11  O   UNL     1       8.557  -5.385  25.420  0.00  0.00    -0.153 OA
ATOM     12  O   UNL     1       6.484  -4.128  26.124  0.00  0.00    -0.153 OA
ATOM     13  C   UNL     1       7.954  -3.197  24.177  0.00  0.00    +0.128 A 
ATOM     14  C   UNL     1       8.471  -2.103  24.867  0.00  0.00    +0.059 A 
ENDROOT
BRANCH   2  15
ATOM     15  C   UNL     1       9.221   0.212  21.861  0.00  0.00    +0.419 C 
ATOM     16  F   UNL     1       8.326   1.243  21.930  0.00  0.00    -0.166 F 
ATOM     17  F   UNL     1       9.224  -0.165  20.549  0.00  0.00    -0.166 F 
ATOM     18  F   UNL     1      10.428   0.779  22.086  0.00  0.00    -0.166 F 
ENDBRANCH   2  15
BRANCH   1  19
ATOM     19  S   UNL     1       9.557   0.364  25.128  0.00  0.00    +0.057 S 
ATOM     20  O   UNL     1      10.992   0.398  24.972  0.00  0.00    -0.153 OA
ATOM     21  O   UNL     1       8.740   1.531  24.912  0.00  0.00    -0.153 OA
BRANCH  19  22
ATOM     22  N   UNL     1       9.313  -0.192  26.690  0.00  0.00    -0.203 NA
ATOM     23  H   UNL     1       8.365  -0.559  26.787  0.00  0.00    +0.144 HD
ATOM     24  H   UNL     1      10.037  -0.873  26.926  0.00  0.00    +0.144 HD
ENDBRANCH  19  22
ENDBRANCH   1  19
TORSDOF 3
ENDMDL
MODEL 3
REMARK VINA RESULT:      -6.4      2.735      3.396
REMARK  Name = 
REMARK  3 active torsions:
REMARK  status: ('A' for Active; 'I' for Inactive)
REMARK    1  A    between atoms: N_1  and  S_2
REMARK    2  A    between atoms: S_2  and  C_5
REMARK    3  A    between atoms: C_16  and  C_17
REMARK                            x       y       z     vdW  Elec       q    Type
REMARK                         _______ _______ _______ _____ _____    ______ ____
ROOT
ATOM      1  C   UNL     1       8.465  -3.461  24.566  0.00  0.00    +0.119 A 
ATOM      2  C   UNL     1       7.942  -3.649  23.279  0.00  0.00    +0.083 A 
ATOM      3  C   UNL     1       7.927  -2.535  22.399  0.00  0.00    +0.039 A 
ATOM      4  C   UNL     1       8.369  -1.260  22.778  0.00  0.00    +0.055 A 
ATOM      5  N   UNL     1       8.388  -0.232  21.836  0.00  0.00    -0.328 N 
ATOM      6  H   UNL     1       7.700  -0.338  21.096  0.00  0.00    +0.147 HD
ATOM      7  C   UNL     1       8.495   1.126  22.315  0.00  0.00    +0.209 C 
ATOM      8  N   UNL     1       9.686   1.265  23.122  0.00  0.00    -0.173 NA
ATOM      9  H   UNL     1       9.879   2.239  23.343  0.00  0.00    +0.150 HD
ATOM     10  S   UNL     1       9.553   0.414  24.561  0.00  0.00    +0.062 S 
ATOM     11  O   UNL     1       8.531   1.079  25.339  0.00  0.00    -0.153 OA
ATOM     12  O   UNL     1      10.891   0.223  25.073  0.00  0.00    -0.153 OA
ATOM     13  C   UNL     1       8.907  -1.135  24.055  0.00  0.00    +0.128 A 
ATOM     14  C   UNL     1       8.956  -2.200  24.951  0.00  0.00    +0.059 A 
ENDROOT
BRANCH   2  15
ATOM     15  C   UNL     1       7.385  -4.943  22.723  0.00  0.00    +0.419 C 
ATOM     16  F   UNL     1       7.098  -4.824  21.392  0.00  0.00    -0.166 F 
ATOM     17  F   UNL     1       6.196  -5.261  23.313  0.00  0.00    -0.166 F 
ATOM     18  F   UNL     1       8.154  -6.052  22.819  0.00  0.00    -0.166 F 
ENDBRANCH   2  15
BRANCH   1  19
ATOM     19  S   UNL     1       8.562  -4.746  25.786  0.00  0.00    +0.057 S 
ATOM     20  O   UNL     1       9.066  -4.186  27.018  0.00  0.00    -0.153 OA
ATOM     21  O   UNL     1       7.344  -5.514  25.741  0.00  0.00    -0.153 OA
BRANCH  19  22
ATOM     22  N   UNL     1       9.821  -5.686  25.202  0.00  0.00    -0.203 NA
ATOM     23  H   UNL     1      10.053  -5.407  24.247  0.00  0.00    +0.144 HD
ATOM     24  H   UNL     1      10.613  -5.629  25.844  0.00  0.00    +0.144 HD
ENDBRANCH  19  22
ENDBRANCH   1  19
TORSDOF 3
ENDMDL
MODEL 4
REMARK VINA RESULT:      -6.1      3.590      5.895
REMARK  Name = 
REMARK  3 active torsions:
REMARK  status: ('A' for Active; 'I' for Inactive)
REMARK    1  A    between atoms: N_1  and  S_2
REMARK    2  A    between atoms: S_2  and  C_5
REMARK    3  A    between atoms: C_16  and  C_17
REMARK                            x       y       z     vdW  Elec       q    Type
REMARK                         _______ _______ _______ _____ _____    ______ ____
ROOT
ATOM      1  C   UNL     1       8.269  -1.113  22.965  0.00  0.00    +0.119 A 
ATOM      2  C   UNL     1       7.099  -0.520  23.461  0.00  0.00    +0.083 A 
ATOM      3  C   UNL     1       6.116  -1.369  24.034  0.00  0.00    +0.039 A 
ATOM      4  C   UNL     1       6.250  -2.764  24.083  0.00  0.00    +0.055 A 
ATOM      5  N   UNL     1       5.272  -3.524  24.725  0.00  0.00    -0.328 N 
ATOM      6  H   UNL     1       4.351  -3.096  24.726  0.00  0.00    +0.147 HD
ATOM      7  C   UNL     1       5.234  -4.943  24.460  0.00  0.00    +0.209 C 
ATOM      8  N   UNL     1       6.514  -5.533  24.781  0.00  0.00    -0.173 NA
ATOM      9  H   UNL     1       6.476  -6.550  24.759  0.00  0.00    +0.150 HD
ATOM     10  S   UNL     1       7.706  -5.028  23.716  0.00  0.00    +0.062 S 
ATOM     11  O   UNL     1       7.377  -5.600  22.428  0.00  0.00    -0.153 OA
ATOM     12  O   UNL     1       8.981  -5.271  24.349  0.00  0.00    -0.153 OA
ATOM     13  C   UNL     1       7.442  -3.298  23.606  0.00  0.00    +0.128 A 
ATOM     14  C   UNL     1       8.442  -2.507  23.046  0.00  0.00    +0.059 A 
ENDROOT
BRANCH   2  15
ATOM     15  C   UNL     1       6.775   0.959  23.448  0.00  0.00    +0.419 C 
ATOM     16  F   UNL     1       5.609   1.214  24.115  0.00  0.00    -0.166 F 
ATOM     17  F   UNL     1       6.557   1.405  22.176  0.00  0.00    -0.166 F 
ATOM     18  F   UNL     1       7.681   1.807  23.987  0.00  0.00    -0.166 F 
ENDBRANCH   2  15
BRANCH   1  19
ATOM     19  S   UNL     1       9.597  -0.200  22.223  0.00  0.00    +0.057 S 
ATOM     20  O   UNL     1       9.099   0.484  21.053  0.00  0.00    -0.153 OA
ATOM     21  O   UNL     1      10.313   0.494  23.264  0.00  0.00    -0.153 OA
BRANCH  19  22
ATOM     22  N   UNL     1      10.567  -1.425  21.618  0.00  0.00    -0.203 NA
ATOM     23  H   UNL     1      10.086  -2.323  21.692  0.00  0.00    +0.144 HD
ATOM     24  H   UNL     1      10.849  -1.195  20.663  0.00  0.00    +0.144 HD
ENDBRANCH  19  22
ENDBRANCH   1  19
TORSDOF 3
ENDMDL
MODEL 5
REMARK VINA RESULT:      -6.1      3.231      5.618
REMARK  Name = 
REMARK  3 active torsions:
REMARK  status: ('A' for Active; 'I' for Inactive)
REMARK    1  A    between atoms: N_1  and  S_2
REMARK    2  A    between atoms: S_2  and  C_5
REMARK    3  A    between atoms: C_16  and  C_17
REMARK                            x       y       z     vdW  Elec       q    Type
REMARK                         _______ _______ _______ _____ _____    ______ ____
ROOT
ATOM      1  C   UNL     1       7.811   0.334  23.218  0.00  0.00    +0.119 A 
ATOM      2  C   UNL     1       9.107   0.002  23.638  0.00  0.00    +0.083 A 
ATOM      3  C   UNL     1       9.392  -1.365  23.894  0.00  0.00    +0.039 A 
ATOM      4  C   UNL     1       8.427  -2.377  23.785  0.00  0.00    +0.055 A 
ATOM      5  N   UNL     1       8.801  -3.706  23.986  0.00  0.00    -0.328 N 
ATOM      6  H   UNL     1       9.598  -3.820  24.604  0.00  0.00    +0.147 HD
ATOM      7  C   UNL     1       7.758  -4.675  24.226  0.00  0.00    +0.209 C 
ATOM      8  N   UNL     1       6.816  -4.657  23.130  0.00  0.00    -0.173 NA
ATOM      9  H   UNL     1       6.159  -5.433  23.186  0.00  0.00    +0.150 HD
ATOM     10  S   UNL     1       5.940  -3.228  23.099  0.00  0.00    +0.062 S 
ATOM     11  O   UNL     1       5.098  -3.235  24.276  0.00  0.00    -0.153 OA
ATOM     12  O   UNL     1       5.385  -3.092  21.772  0.00  0.00    -0.153 OA
ATOM     13  C   UNL     1       7.167  -1.998  23.335  0.00  0.00    +0.128 A 
ATOM     14  C   UNL     1       6.841  -0.672  23.059  0.00  0.00    +0.059 A 
ENDROOT
BRANCH   2  15
ATOM     15  C   UNL     1      10.252   0.970  23.848  0.00  0.00    +0.419 C 
ATOM     16  F   UNL     1      11.399   0.310  24.188  0.00  0.00    -0.166 F 
ATOM     17  F   UNL     1      10.003   1.807  24.897  0.00  0.00    -0.166 F 
ATOM     18  F   UNL     1      10.600   1.768  22.812  0.00  0.00    -0.166 F 
ENDBRANCH   2  15
BRANCH   1  19
ATOM     19  S   UNL     1       7.290   1.990  22.851  0.00  0.00    +0.057 S 
ATOM     20  O   UNL     1       7.428   2.799  24.038  0.00  0.00    -0.153 OA
ATOM     21  O   UNL     1       7.867   2.383  21.590  0.00  0.00    -0.153 OA
BRANCH  19  22
ATOM     22  N   UNL     1       5.636   1.800  22.657  0.00  0.00    -0.203 NA
ATOM     23  H   UNL     1       5.369   2.010  21.694  0.00  0.00    +0.144 HD
ATOM     24  H   UNL     1       5.364   0.862  22.957  0.00  0.00    +0.144 HD
ENDBRANCH  19  22
ENDBRANCH   1  19
TORSDOF 3
ENDMDL
MODEL 6
REMARK VINA RESULT:      -5.8      4.767      6.982
REMARK  Name = 
REMARK  3 active torsions:
REMARK  status: ('A' for Active; 'I' for Inactive)
REMARK    1  A    between atoms: N_1  and  S_2
REMARK    2  A    between atoms: S_2  and  C_5
REMARK    3  A    between atoms: C_16  and  C_17
REMARK                            x       y       z     vdW  Elec       q    Type
REMARK                         _______ _______ _______ _____ _____    ______ ____
ROOT
ATOM      1  C   UNL     1       7.182  -5.171  25.493  0.00  0.00    +0.119 A 
ATOM      2  C   UNL     1       6.142  -5.217  24.554  0.00  0.00    +0.083 A 
ATOM      3  C   UNL     1       4.841  -5.545  25.018  0.00  0.00    +0.039 A 
ATOM      4  C   UNL     1       4.569  -5.863  26.356  0.00  0.00    +0.055 A 
ATOM      5  N   UNL     1       3.253  -6.107  26.749  0.00  0.00    -0.328 N 
ATOM      6  H   UNL     1       2.660  -6.463  26.005  0.00  0.00    +0.147 HD
ATOM      7  C   UNL     1       3.035  -6.772  28.012  0.00  0.00    +0.209 C 
ATOM      8  N   UNL     1       3.665  -6.021  29.074  0.00  0.00    -0.173 NA
ATOM      9  H   UNL     1       3.399  -6.372  29.991  0.00  0.00    +0.150 HD
ATOM     10  S   UNL     1       5.336  -6.077  28.954  0.00  0.00    +0.062 S 
ATOM     11  O   UNL     1       5.723  -7.445  29.223  0.00  0.00    -0.153 OA
ATOM     12  O   UNL     1       5.861  -4.976  29.727  0.00  0.00    -0.153 OA
ATOM     13  C   UNL     1       5.629  -5.773  27.252  0.00  0.00    +0.128 A 
ATOM     14  C   UNL     1       6.921  -5.443  26.848  0.00  0.00    +0.059 A 
ENDROOT
BRANCH   2  15
ATOM     15  C   UNL     1       6.269  -4.944  23.069  0.00  0.00    +0.419 C 
ATOM     16  F   UNL     1       5.047  -4.980  22.456  0.00  0.00    -0.166 F 
ATOM     17  F   UNL     1       7.001  -5.916  22.451  0.00  0.00    -0.166 F 
ATOM     18  F   UNL     1       6.819  -3.768  22.690  0.00  0.00    -0.166 F 
ENDBRANCH   2  15
BRANCH   1  19
ATOM     19  S   UNL     1       8.862  -4.774  25.083  0.00  0.00    +0.057 S 
ATOM     20  O   UNL     1       9.402  -5.824  24.252  0.00  0.00    -0.153 OA
ATOM     21  O   UNL     1       8.922  -3.387  24.694  0.00  0.00    -0.153 OA
BRANCH  19  22
ATOM     22  N   UNL     1       9.634  -4.960  26.558  0.00  0.00    -0.203 NA
ATOM     23  H   UNL     1      10.461  -5.549  26.450  0.00  0.00    +0.144 HD
ATOM     24  H   UNL     1       9.842  -4.040  26.951  0.00  0.00    +0.144 HD
ENDBRANCH  19  22
ENDBRANCH   1  19
TORSDOF 3
ENDMDL
MODEL 7
REMARK VINA RESULT:      -5.7      3.329      4.158
REMARK  Name = 
REMARK  3 active torsions:
REMARK  status: ('A' for Active; 'I' for Inactive)
REMARK    1  A    between atoms: N_1  and  S_2
REMARK    2  A    between atoms: S_2  and  C_5
REMARK    3  A    between atoms: C_16  and  C_17
REMARK                            x       y       z     vdW  Elec       q    Type
REMARK                         _______ _______ _______ _____ _____    ______ ____
ROOT
ATOM      1  C   UNL     1       7.079  -3.529  25.577  0.00  0.00    +0.119 A 
ATOM      2  C   UNL     1       5.807  -3.056  25.227  0.00  0.00    +0.083 A 
ATOM      3  C   UNL     1       5.730  -1.965  24.322  0.00  0.00    +0.039 A 
ATOM      4  C   UNL     1       6.865  -1.325  23.803  0.00  0.00    +0.055 A 
ATOM      5  N   UNL     1       6.708  -0.306  22.864  0.00  0.00    -0.328 N 
ATOM      6  H   UNL     1       5.827   0.193  22.940  0.00  0.00    +0.147 HD
ATOM      7  C   UNL     1       7.831   0.568  22.619  0.00  0.00    +0.209 C 
ATOM      8  N   UNL     1       8.977  -0.214  22.213  0.00  0.00    -0.173 NA
ATOM      9  H   UNL     1       9.736   0.376  21.880  0.00  0.00    +0.150 HD
ATOM     10  S   UNL     1       9.556  -1.151  23.477  0.00  0.00    +0.062 S 
ATOM     11  O   UNL     1      10.095  -0.233  24.457  0.00  0.00    -0.153 OA
ATOM     12  O   UNL     1      10.363  -2.202  22.899  0.00  0.00    -0.153 OA
ATOM     13  C   UNL     1       8.101  -1.854  24.157  0.00  0.00    +0.128 A 
ATOM     14  C   UNL     1       8.230  -2.930  25.032  0.00  0.00    +0.059 A 
ENDROOT
BRANCH   2  15
ATOM     15  C   UNL     1       4.485  -3.600  25.726  0.00  0.00    +0.419 C 
ATOM     16  F   UNL     1       3.435  -3.036  25.055  0.00  0.00    -0.166 F 
ATOM     17  F   UNL     1       4.281  -3.275  27.036  0.00  0.00    -0.166 F 
ATOM     18  F   UNL     1       4.280  -4.934  25.639  0.00  0.00    -0.166 F 
ENDBRANCH   2  15
BRANCH   1  19
ATOM     19  S   UNL     1       7.353  -4.884  26.690  0.00  0.00    +0.057 S 
ATOM     20  O   UNL     1       6.772  -4.563  27.972  0.00  0.00    -0.153 OA
ATOM     21  O   UNL     1       7.046  -6.112  26.001  0.00  0.00    -0.153 OA
BRANCH  19  22
ATOM     22  N   UNL     1       9.008  -4.800  26.940  0.00  0.00    -0.203 NA
ATOM     23  H   UNL     1       9.454  -5.665  26.631  0.00  0.00    +0.144 HD
ATOM     24  H   UNL     1       9.379  -3.966  26.481  0.00  0.00    +0.144 HD
ENDBRANCH  19  22
ENDBRANCH   1  19
TORSDOF 3
ENDMDL
MODEL 8
REMARK VINA RESULT:      -5.7      3.440      5.796
REMARK  Name = 
REMARK  3 active torsions:
REMARK  status: ('A' for Active; 'I' for Inactive)
REMARK    1  A    between atoms: N_1  and  S_2
REMARK    2  A    between atoms: S_2  and  C_5
REMARK    3  A    between atoms: C_16  and  C_17
REMARK                            x       y       z     vdW  Elec       q    Type
REMARK                         _______ _______ _______ _____ _____    ______ ____
ROOT
ATOM      1  C   UNL     1       6.583  -1.584  23.835  0.00  0.00    +0.119 A 
ATOM      2  C   UNL     1       7.704  -1.700  23.000  0.00  0.00    +0.083 A 
ATOM      3  C   UNL     1       7.867  -2.909  22.273  0.00  0.00    +0.039 A 
ATOM      4  C   UNL     1       6.985  -3.992  22.390  0.00  0.00    +0.055 A 
ATOM      5  N   UNL     1       7.174  -5.120  21.591  0.00  0.00    -0.328 N 
ATOM      6  H   UNL     1       8.139  -5.270  21.312  0.00  0.00    +0.147 HD
ATOM      7  C   UNL     1       6.499  -6.339  21.968  0.00  0.00    +0.209 C 
ATOM      8  N   UNL     1       5.075  -6.104  22.045  0.00  0.00    -0.173 NA
ATOM      9  H   UNL     1       4.555  -6.972  22.151  0.00  0.00    +0.150 HD
ATOM     10  S   UNL     1       4.690  -5.100  23.331  0.00  0.00    +0.062 S 
ATOM     11  O   UNL     1       4.981  -5.845  24.537  0.00  0.00    -0.153 OA
ATOM     12  O   UNL     1       3.375  -4.557  23.075  0.00  0.00    -0.153 OA
ATOM     13  C   UNL     1       5.874  -3.813  23.207  0.00  0.00    +0.128 A 
ATOM     14  C   UNL     1       5.662  -2.642  23.932  0.00  0.00    +0.059 A 
ENDROOT
BRANCH   2  15
ATOM     15  C   UNL     1       8.773  -0.649  22.791  0.00  0.00    +0.419 C 
ATOM     16  F   UNL     1       9.362  -0.303  23.975  0.00  0.00    -0.166 F 
ATOM     17  F   UNL     1       8.236   0.511  22.313  0.00  0.00    -0.166 F 
ATOM     18  F   UNL     1       9.800  -0.950  21.963  0.00  0.00    -0.166 F 
ENDBRANCH   2  15
BRANCH   1  19
ATOM     19  S   UNL     1       6.227  -0.143  24.808  0.00  0.00    +0.057 S 
ATOM     20  O   UNL     1       7.192  -0.048  25.877  0.00  0.00    -0.153 OA
ATOM     21  O   UNL     1       5.967   0.959  23.916  0.00  0.00    -0.153 OA
BRANCH  19  22
ATOM     22  N   UNL     1       4.797  -0.579  25.565  0.00  0.00    -0.203 NA
ATOM     23  H   UNL     1       4.042  -0.641  24.880  0.00  0.00    +0.144 HD
ATOM     24  H   UNL     1       4.939  -1.445  26.088  0.00  0.00    +0.144 HD
ENDBRANCH  19  22
ENDBRANCH   1  19
TORSDOF 3
ENDMDL
MODEL 9
REMARK VINA RESULT:      -5.6      2.102      2.509
REMARK  Name = 
REMARK  3 active torsions:
REMARK  status: ('A' for Active; 'I' for Inactive)
REMARK    1  A    between atoms: N_1  and  S_2
REMARK    2  A    between atoms: S_2  and  C_5
REMARK    3  A    between atoms: C_16  and  C_17
REMARK                            x       y       z     vdW  Elec       q    Type
REMARK                         _______ _______ _______ _____ _____    ______ ____
ROOT
ATOM      1  C   UNL     1       6.786  -3.435  23.653  0.00  0.00    +0.119 A 
ATOM      2  C   UNL     1       6.579  -3.034  24.981  0.00  0.00    +0.083 A 
ATOM      3  C   UNL     1       7.403  -2.000  25.498  0.00  0.00    +0.039 A 
ATOM      4  C   UNL     1       8.431  -1.403  24.755  0.00  0.00    +0.055 A 
ATOM      5  N   UNL     1       9.153  -0.346  25.309  0.00  0.00    -0.328 N 
ATOM      6  H   UNL     1       9.195  -0.362  26.323  0.00  0.00    +0.147 HD
ATOM      7  C   UNL     1      10.412   0.009  24.698  0.00  0.00    +0.209 C 
ATOM      8  N   UNL     1      10.206   0.319  23.301  0.00  0.00    -0.173 NA
ATOM      9  H   UNL     1      11.038   0.725  22.879  0.00  0.00    +0.150 HD
ATOM     10  S   UNL     1       9.787  -1.050  22.427  0.00  0.00    +0.062 S 
ATOM     11  O   UNL     1      10.953  -1.907  22.421  0.00  0.00    -0.153 OA
ATOM     12  O   UNL     1       9.168  -0.604  21.200  0.00  0.00    -0.153 OA
ATOM     13  C   UNL     1       8.574  -1.816  23.434  0.00  0.00    +0.128 A 
ATOM     14  C   UNL     1       7.783  -2.817  22.876  0.00  0.00    +0.059 A 
ENDROOT
BRANCH   2  15
ATOM     15  C   UNL     1       5.546  -3.600  25.933  0.00  0.00    +0.419 C 
ATOM     16  F   UNL     1       5.501  -2.880  27.095  0.00  0.00    -0.166 F 
ATOM     17  F   UNL     1       5.873  -4.868  26.317  0.00  0.00    -0.166 F 
ATOM     18  F   UNL     1       4.264  -3.661  25.507  0.00  0.00    -0.166 F 
ENDBRANCH   2  15
BRANCH   1  19
ATOM     19  S   UNL     1       5.843  -4.706  22.851  0.00  0.00    +0.057 S 
ATOM     20  O   UNL     1       5.977  -5.933  23.600  0.00  0.00    -0.153 OA
ATOM     21  O   UNL     1       4.553  -4.166  22.499  0.00  0.00    -0.153 OA
BRANCH  19  22
ATOM     22  N   UNL     1       6.726  -4.964  21.451  0.00  0.00    -0.203 NA
ATOM     23  H   UNL     1       6.140  -4.799  20.631  0.00  0.00    +0.144 HD
ATOM     24  H   UNL     1       7.568  -4.387  21.469  0.00  0.00    +0.144 HD
ENDBRANCH  19  22
ENDBRANCH   1  19
TORSDOF 3
ENDMDL
