MODEL 1
REMARK VINA RESULT:      -7.3      0.000      0.000
REMARK  Name = 
REMARK  18 active torsions:
REMARK  status: ('A' for Active; 'I' for Inactive)
REMARK    1  A    between atoms: C_2  and  C_4
REMARK    2  A    between atoms: N_6  and  C_10
REMARK    3  A    between atoms: C_13  and  C_15
REMARK    4  A    between atoms: C_15  and  O_16
REMARK    5  A    between atoms: O_16  and  P_17
REMARK    6  A    between atoms: P_17  and  O_18
REMARK    7  A    between atoms: P_17  and  O_20
REMARK    8  A    between atoms: O_20  and  P_21
REMARK    9  A    between atoms: P_21  and  O_22
REMARK   10  A    between atoms: P_21  and  O_24
REMARK   11  A    between atoms: O_24  and  C_25
REMARK   12  A    between atoms: C_25  and  C_26
REMARK   13  A    between atoms: C_29  and  N_37
REMARK   14  A    between atoms: C_31  and  O_33
REMARK   15  A    between atoms: C_34  and  O_36
REMARK   16  A    between atoms: C_41  and  N_42
REMARK   17  A    between atoms: C_47  and  O_49
REMARK   18  A    between atoms: C_50  and  O_52
REMARK                            x       y       z     vdW  Elec       q    Type
REMARK                         _______ _______ _______ _____ _____    ______ ____
ROOT
ATOM      1  O   UNL     1       5.379   1.328  25.427  0.00  0.00    -0.186 OA
ENDROOT
BRANCH   1   2
ATOM      2  P   UNL     1       6.537   0.409  26.020  0.00  0.00    +0.483 P 
ATOM      3  O   UNL     1       6.202  -0.397  27.230  0.00  0.00    -0.227 OA
BRANCH   2   4
ATOM      4  O   UNL     1       7.770   1.393  26.286  0.00  0.00    -0.302 OA
ATOM      5  H   UNL     1       8.444   0.975  26.851  0.00  0.00    +0.222 HD
ENDBRANCH   2   4
BRANCH   2   6
ATOM      6  O   UNL     1       7.050  -0.438  24.759  0.00  0.00    -0.284 OA
BRANCH   6   7
ATOM      7  C   UNL     1       7.067  -1.858  24.870  0.00  0.00    +0.206 C 
BRANCH   7  11
ATOM      8  C   UNL     1       8.217  -4.474  26.304  0.00  0.00    +0.241 C 
ATOM      9  C   UNL     1       8.619  -4.798  24.850  0.00  0.00    +0.193 C 
ATOM     10  C   UNL     1       8.950  -3.456  24.203  0.00  0.00    +0.178 C 
ATOM     11  C   UNL     1       8.463  -2.416  25.198  0.00  0.00    +0.178 C 
ATOM     12  O   UNL     1       8.504  -3.065  26.478  0.00  0.00    -0.348 OA
BRANCH   8  17
ATOM     13  C   UNL     1       4.761  -5.947  26.066  0.00  0.00    +0.032 C 
ATOM     14  C   UNL     1       3.944  -4.829  26.671  0.00  0.00    +0.070 C 
ATOM     15  C   UNL     1       4.760  -3.982  27.614  0.00  0.00    -0.007 C 
ATOM     16  C   UNL     1       6.098  -3.996  27.532  0.00  0.00    +0.073 C 
ATOM     17  N   UNL     1       6.791  -4.755  26.589  0.00  0.00    -0.285 N 
ATOM     18  C   UNL     1       6.104  -5.843  26.028  0.00  0.00    +0.086 C 
BRANCH  13  22
ATOM     19  N   UNL     1       2.996  -7.570  26.352  0.00  0.00    -0.326 N 
ATOM     20  H   UNL     1       2.687  -7.081  27.179  0.00  0.00    +0.145 HD
ATOM     21  H   UNL     1       2.365  -8.241  25.934  0.00  0.00    +0.145 HD
ATOM     22  C   UNL     1       3.993  -7.106  25.554  0.00  0.00    +0.239 C 
ATOM     23  O   UNL     1       4.171  -7.558  24.430  0.00  0.00    -0.271 OA
ENDBRANCH  13  22
ENDBRANCH   8  17
BRANCH  10  24
ATOM     24  O   UNL     1      10.373  -3.364  24.007  0.00  0.00    -0.386 OA
ATOM     25  H   UNL     1      10.827  -3.779  24.765  0.00  0.00    +0.210 HD
ENDBRANCH  10  24
BRANCH   9  26
ATOM     26  O   UNL     1       9.748  -5.688  24.820  0.00  0.00    -0.385 OA
ATOM     27  H   UNL     1      10.293  -5.398  24.059  0.00  0.00    +0.210 HD
ENDBRANCH   9  26
ENDBRANCH   7  11
ENDBRANCH   6   7
ENDBRANCH   2   6
ENDBRANCH   1   2
BRANCH   1  28
ATOM     28  P   UNL     1       4.407   2.111  26.445  0.00  0.00    +0.483 P 
ATOM     29  O   UNL     1       3.376   2.919  25.655  0.00  0.00    -0.227 OA
BRANCH  28  30
ATOM     30  O   UNL     1       3.282   0.797  26.408  0.00  0.00    -0.302 OA
ATOM     31  H   UNL     1       3.096   0.692  25.452  0.00  0.00    +0.222 HD
ENDBRANCH  28  30
BRANCH  28  32
ATOM     32  O   UNL     1       5.532   3.426  26.481  0.00  0.00    -0.284 OA
BRANCH  32  33
ATOM     33  C   UNL     1       5.263   4.520  25.606  0.00  0.00    +0.206 C 
BRANCH  33  34
ATOM     34  C   UNL     1       6.466   4.893  24.732  0.00  0.00    +0.178 C 
ATOM     35  C   UNL     1       6.067   5.519  23.400  0.00  0.00    +0.178 C 
ATOM     36  C   UNL     1       7.074   4.966  22.379  0.00  0.00    +0.195 C 
ATOM     37  C   UNL     1       7.983   4.054  23.210  0.00  0.00    +0.253 C 
ATOM     38  O   UNL     1       7.240   3.735  24.407  0.00  0.00    -0.346 OA
BRANCH  37  39
ATOM     39  N   UNL     1       8.439   2.802  22.637  0.00  0.00    -0.286 N 
ATOM     40  C   UNL     1       9.289   1.861  23.159  0.00  0.00    +0.167 A 
ATOM     41  C   UNL     1       9.281   0.824  22.227  0.00  0.00    +0.147 A 
ATOM     42  C   UNL     1      10.090  -0.303  22.490  0.00  0.00    +0.147 A 
ATOM     43  N   UNL     1      10.835  -0.295  23.613  0.00  0.00    -0.219 NA
ATOM     44  C   UNL     1      10.741   0.774  24.441  0.00  0.00    +0.225 A 
ATOM     45  N   UNL     1       8.443   1.110  21.171  0.00  0.00    -0.231 NA
ATOM     46  N   UNL     1       9.990   1.895  24.305  0.00  0.00    -0.216 NA
ATOM     47  C   UNL     1       7.942   2.287  21.461  0.00  0.00    +0.203 A 
BRANCH  42  48
ATOM     48  N   UNL     1      10.153  -1.384  21.633  0.00  0.00    -0.341 N 
ATOM     49  H   UNL     1       9.403  -2.043  21.772  0.00  0.00    +0.144 HD
ATOM     50  H   UNL     1      11.095  -1.764  21.530  0.00  0.00    +0.144 HD
ENDBRANCH  42  48
ENDBRANCH  37  39
BRANCH  35  51
ATOM     51  O   UNL     1       6.098   6.941  23.507  0.00  0.00    -0.386 OA
ATOM     52  H   UNL     1       6.019   7.142  24.463  0.00  0.00    +0.210 HD
ENDBRANCH  35  51
BRANCH  36  53
ATOM     53  O   UNL     1       7.781   6.048  21.757  0.00  0.00    -0.385 OA
ATOM     54  H   UNL     1       8.274   6.508  22.468  0.00  0.00    +0.210 HD
ENDBRANCH  36  53
ENDBRANCH  33  34
ENDBRANCH  32  33
ENDBRANCH  28  32
ENDBRANCH   1  28
TORSDOF 18
ENDMDL
MODEL 2
REMARK VINA RESULT:      -7.1      2.825      8.707
REMARK  Name = 
REMARK  18 active torsions:
REMARK  status: ('A' for Active; 'I' for Inactive)
REMARK    1  A    between atoms: C_2  and  C_4
REMARK    2  A    between atoms: N_6  and  C_10
REMARK    3  A    between atoms: C_13  and  C_15
REMARK    4  A    between atoms: C_15  and  O_16
REMARK    5  A    between atoms: O_16  and  P_17
REMARK    6  A    between atoms: P_17  and  O_18
REMARK    7  A    between atoms: P_17  and  O_20
REMARK    8  A    between atoms: O_20  and  P_21
REMARK    9  A    between atoms: P_21  and  O_22
REMARK   10  A    between atoms: P_21  and  O_24
REMARK   11  A    between atoms: O_24  and  C_25
REMARK   12  A    between atoms: C_25  and  C_26
REMARK   13  A    between atoms: C_29  and  N_37
REMARK   14  A    between atoms: C_31  and  O_33
REMARK   15  A    between atoms: C_34  and  O_36
REMARK   16  A    between atoms: C_41  and  N_42
REMARK   17  A    between atoms: C_47  and  O_49
REMARK   18  A    between atoms: C_50  and  O_52
REMARK                            x       y       z     vdW  Elec       q    Type
REMARK                         _______ _______ _______ _____ _____    ______ ____
ROOT
ATOM      1  O   UNL     1       8.944   0.354  23.220  0.00  0.00    -0.186 OA
ENDROOT
BRANCH   1   2
ATOM      2  P   UNL     1       9.814   1.457  23.970  0.00  0.00    +0.483 P 
ATOM      3  O   UNL     1      11.209   1.077  24.336  0.00  0.00    -0.227 OA
BRANCH   2   4
ATOM      4  O   UNL     1       8.957   1.876  25.255  0.00  0.00    -0.302 OA
ATOM      5  H   UNL     1       9.381   2.605  25.743  0.00  0.00    +0.222 HD
ENDBRANCH   2   4
BRANCH   2   6
ATOM      6  O   UNL     1       9.684   2.757  23.041  0.00  0.00    -0.284 OA
BRANCH   6   7
ATOM      7  C   UNL     1       8.760   3.769  23.432  0.00  0.00    +0.206 C 
BRANCH   7  11
ATOM      8  C   UNL     1       5.655   3.785  22.672  0.00  0.00    +0.241 C 
ATOM      9  C   UNL     1       5.837   5.287  22.980  0.00  0.00    +0.193 C 
ATOM     10  C   UNL     1       7.255   5.631  22.533  0.00  0.00    +0.178 C 
ATOM     11  C   UNL     1       7.912   4.289  22.258  0.00  0.00    +0.178 C 
ATOM     12  O   UNL     1       6.835   3.399  21.927  0.00  0.00    -0.348 OA
BRANCH   8  17
ATOM     13  C   UNL     1       5.464   0.783  24.934  0.00  0.00    +0.032 C 
ATOM     14  C   UNL     1       4.599   1.330  26.045  0.00  0.00    +0.070 C 
ATOM     15  C   UNL     1       4.699   2.831  26.148  0.00  0.00    -0.007 C 
ATOM     16  C   UNL     1       5.144   3.542  25.103  0.00  0.00    +0.073 C 
ATOM     17  N   UNL     1       5.512   2.956  23.891  0.00  0.00    -0.285 N 
ATOM     18  C   UNL     1       5.841   1.592  23.924  0.00  0.00    +0.086 C 
BRANCH  13  22
ATOM     19  N   UNL     1       6.125  -1.295  23.895  0.00  0.00    -0.326 N 
ATOM     20  H   UNL     1       6.214  -0.818  23.010  0.00  0.00    +0.145 HD
ATOM     21  H   UNL     1       6.548  -2.209  23.986  0.00  0.00    +0.145 HD
ATOM     22  C   UNL     1       5.844  -0.644  25.054  0.00  0.00    +0.239 C 
ATOM     23  O   UNL     1       6.003  -1.185  26.141  0.00  0.00    -0.271 OA
ENDBRANCH  13  22
ENDBRANCH   8  17
BRANCH  10  24
ATOM     24  O   UNL     1       7.192   6.434  21.340  0.00  0.00    -0.386 OA
ATOM     25  H   UNL     1       6.736   5.930  20.640  0.00  0.00    +0.210 HD
ENDBRANCH  10  24
BRANCH   9  26
ATOM     26  O   UNL     1       4.859   6.073  22.277  0.00  0.00    -0.385 OA
ATOM     27  H   UNL     1       4.010   5.597  22.388  0.00  0.00    +0.210 HD
ENDBRANCH   9  26
ENDBRANCH   7  11
ENDBRANCH   6   7
ENDBRANCH   2   6
ENDBRANCH   1   2
BRANCH   1  28
ATOM     28  P   UNL     1       9.691  -0.908  22.553  0.00  0.00    +0.483 P 
ATOM     29  O   UNL     1       8.658  -1.941  22.102  0.00  0.00    -0.227 OA
BRANCH  28  30
ATOM     30  O   UNL     1       9.536  -0.191  20.986  0.00  0.00    -0.302 OA
ATOM     31  H   UNL     1       9.927   0.700  21.110  0.00  0.00    +0.222 HD
ENDBRANCH  28  30
BRANCH  28  32
ATOM     32  O   UNL     1       9.846  -1.624  24.120  0.00  0.00    -0.284 OA
BRANCH  32  33
ATOM     33  C   UNL     1       9.790  -3.049  24.179  0.00  0.00    +0.206 C 
BRANCH  33  34
ATOM     34  C   UNL     1       8.720  -3.562  25.150  0.00  0.00    +0.178 C 
ATOM     35  C   UNL     1       9.082  -4.900  25.786  0.00  0.00    +0.178 C 
ATOM     36  C   UNL     1       7.757  -5.675  25.871  0.00  0.00    +0.195 C 
ATOM     37  C   UNL     1       6.725  -4.715  25.271  0.00  0.00    +0.253 C 
ATOM     38  O   UNL     1       7.475  -3.771  24.476  0.00  0.00    -0.346 OA
BRANCH  37  39
ATOM     39  N   UNL     1       5.672  -5.249  24.429  0.00  0.00    -0.286 N 
ATOM     40  C   UNL     1       4.643  -6.097  24.749  0.00  0.00    +0.167 A 
ATOM     41  C   UNL     1       3.882  -6.183  23.584  0.00  0.00    +0.147 A 
ATOM     42  C   UNL     1       2.739  -7.013  23.604  0.00  0.00    +0.147 A 
ATOM     43  N   UNL     1       2.471  -7.687  24.740  0.00  0.00    -0.219 NA
ATOM     44  C   UNL     1       3.288  -7.505  25.806  0.00  0.00    +0.225 A 
ATOM     45  N   UNL     1       4.415  -5.402  22.582  0.00  0.00    -0.231 NA
ATOM     46  N   UNL     1       4.393  -6.724  25.911  0.00  0.00    -0.216 NA
ATOM     47  C   UNL     1       5.469  -4.844  23.129  0.00  0.00    +0.203 A 
BRANCH  42  48
ATOM     48  N   UNL     1       1.918  -7.167  22.505  0.00  0.00    -0.341 N 
ATOM     49  H   UNL     1       2.360  -6.897  21.640  0.00  0.00    +0.144 HD
ATOM     50  H   UNL     1       0.965  -6.838  22.664  0.00  0.00    +0.144 HD
ENDBRANCH  42  48
ENDBRANCH  37  39
BRANCH  35  51
ATOM     51  O   UNL     1       9.688  -4.681  27.057  0.00  0.00    -0.386 OA
ATOM     52  H   UNL     1       9.790  -5.566  27.465  0.00  0.00    +0.210 HD
ENDBRANCH  35  51
BRANCH  36  53
ATOM     53  O   UNL     1       7.480  -6.016  27.236  0.00  0.00    -0.385 OA
ATOM     54  H   UNL     1       7.770  -5.256  27.781  0.00  0.00    +0.210 HD
ENDBRANCH  36  53
ENDBRANCH  33  34
ENDBRANCH  32  33
ENDBRANCH  28  32
ENDBRANCH   1  28
TORSDOF 18
ENDMDL
MODEL 3
REMARK VINA RESULT:      -7.1      1.639      2.105
REMARK  Name = 
REMARK  18 active torsions:
REMARK  status: ('A' for Active; 'I' for Inactive)
REMARK    1  A    between atoms: C_2  and  C_4
REMARK    2  A    between atoms: N_6  and  C_10
REMARK    3  A    between atoms: C_13  and  C_15
REMARK    4  A    between atoms: C_15  and  O_16
REMARK    5  A    between atoms: O_16  and  P_17
REMARK    6  A    between atoms: P_17  and  O_18
REMARK    7  A    between atoms: P_17  and  O_20
REMARK    8  A    between atoms: O_20  and  P_21
REMARK    9  A    between atoms: P_21  and  O_22
REMARK   10  A    between atoms: P_21  and  O_24
REMARK   11  A    between atoms: O_24  and  C_25
REMARK   12  A    between atoms: C_25  and  C_26
REMARK   13  A    between atoms: C_29  and  N_37
REMARK   14  A    between atoms: C_31  and  O_33
REMARK   15  A    between atoms: C_34  and  O_36
REMARK   16  A    between atoms: C_41  and  N_42
REMARK   17  A    between atoms: C_47  and  O_49
REMARK   18  A    between atoms: C_50  and  O_52
REMARK                            x       y       z     vdW  Elec       q    Type
REMARK                         _______ _______ _______ _____ _____    ______ ____
ROOT
ATOM      1  O   UNL     1       4.989   1.385  25.168  0.00  0.00    -0.186 OA
ENDROOT
BRANCH   1   2
ATOM      2  P   UNL     1       6.023   0.245  25.574  0.00  0.00    +0.483 P 
ATOM      3  O   UNL     1       5.633  -0.642  26.709  0.00  0.00    -0.227 OA
BRANCH   2   4
ATOM      4  O   UNL     1       7.403   1.001  25.861  0.00  0.00    -0.302 OA
ATOM      5  H   UNL     1       7.756   1.417  25.053  0.00  0.00    +0.222 HD
ENDBRANCH   2   4
BRANCH   2   6
ATOM      6  O   UNL     1       6.335  -0.512  24.196  0.00  0.00    -0.284 OA
BRANCH   6   7
ATOM      7  C   UNL     1       6.209  -1.930  24.168  0.00  0.00    +0.206 C 
BRANCH   7  11
ATOM      8  C   UNL     1       7.179  -4.794  23.130  0.00  0.00    +0.241 C 
ATOM      9  C   UNL     1       5.762  -4.782  22.519  0.00  0.00    +0.193 C 
ATOM     10  C   UNL     1       5.483  -3.327  22.152  0.00  0.00    +0.178 C 
ATOM     11  C   UNL     1       6.602  -2.539  22.811  0.00  0.00    +0.178 C 
ATOM     12  O   UNL     1       7.700  -3.459  22.923  0.00  0.00    -0.348 OA
BRANCH   8  17
ATOM     13  C   UNL     1       6.006  -5.876  26.539  0.00  0.00    +0.032 C 
ATOM     14  C   UNL     1       7.015  -5.169  27.414  0.00  0.00    +0.070 C 
ATOM     15  C   UNL     1       8.307  -4.906  26.683  0.00  0.00    -0.007 C 
ATOM     16  C   UNL     1       8.327  -4.914  25.343  0.00  0.00    +0.073 C 
ATOM     17  N   UNL     1       7.187  -5.140  24.570  0.00  0.00    -0.285 N 
ATOM     18  C   UNL     1       6.121  -5.802  25.199  0.00  0.00    +0.086 C 
BRANCH  13  22
ATOM     19  N   UNL     1       5.344  -7.412  28.282  0.00  0.00    -0.326 N 
ATOM     20  H   UNL     1       6.284  -7.394  28.647  0.00  0.00    +0.145 HD
ATOM     21  H   UNL     1       4.611  -7.782  28.873  0.00  0.00    +0.145 HD
ATOM     22  C   UNL     1       4.942  -6.622  27.252  0.00  0.00    +0.239 C 
ATOM     23  O   UNL     1       3.755  -6.459  27.001  0.00  0.00    -0.271 OA
ENDBRANCH  13  22
ENDBRANCH   8  17
BRANCH  10  24
ATOM     24  O   UNL     1       5.518  -3.186  20.720  0.00  0.00    -0.386 OA
ATOM     25  H   UNL     1       6.378  -3.508  20.389  0.00  0.00    +0.210 HD
ENDBRANCH  10  24
BRANCH   9  26
ATOM     26  O   UNL     1       5.699  -5.636  21.364  0.00  0.00    -0.385 OA
ATOM     27  H   UNL     1       6.363  -6.340  21.519  0.00  0.00    +0.210 HD
ENDBRANCH   9  26
ENDBRANCH   7  11
ENDBRANCH   6   7
ENDBRANCH   2   6
ENDBRANCH   1   2
BRANCH   1  28
ATOM     28  P   UNL     1       4.221   2.193  26.331  0.00  0.00    +0.483 P 
ATOM     29  O   UNL     1       3.273   3.219  25.708  0.00  0.00    -0.227 OA
BRANCH  28  30
ATOM     30  O   UNL     1       2.908   1.067  26.268  0.00  0.00    -0.302 OA
ATOM     31  H   UNL     1       2.602   1.135  25.339  0.00  0.00    +0.222 HD
ENDBRANCH  28  30
BRANCH  28  32
ATOM     32  O   UNL     1       5.533   3.318  26.393  0.00  0.00    -0.284 OA
BRANCH  32  33
ATOM     33  C   UNL     1       5.334   4.569  25.735  0.00  0.00    +0.206 C 
BRANCH  33  34
ATOM     34  C   UNL     1       6.445   4.896  24.731  0.00  0.00    +0.178 C 
ATOM     35  C   UNL     1       5.913   5.377  23.385  0.00  0.00    +0.178 C 
ATOM     36  C   UNL     1       6.857   4.761  22.339  0.00  0.00    +0.195 C 
ATOM     37  C   UNL     1       7.868   3.966  23.171  0.00  0.00    +0.253 C 
ATOM     38  O   UNL     1       7.238   3.739  24.451  0.00  0.00    -0.346 OA
BRANCH  37  39
ATOM     39  N   UNL     1       8.328   2.681  22.681  0.00  0.00    -0.286 N 
ATOM     40  C   UNL     1       9.215   1.799  23.242  0.00  0.00    +0.167 A 
ATOM     41  C   UNL     1       9.194   0.691  22.395  0.00  0.00    +0.147 A 
ATOM     42  C   UNL     1      10.034  -0.398  22.715  0.00  0.00    +0.147 A 
ATOM     43  N   UNL     1      10.819  -0.288  23.804  0.00  0.00    -0.219 NA
ATOM     44  C   UNL     1      10.734   0.841  24.550  0.00  0.00    +0.225 A 
ATOM     45  N   UNL     1       8.312   0.878  21.353  0.00  0.00    -0.231 NA
ATOM     46  N   UNL     1       9.956   1.935  24.355  0.00  0.00    -0.216 NA
ATOM     47  C   UNL     1       7.799   2.066  21.568  0.00  0.00    +0.203 A 
BRANCH  42  48
ATOM     48  N   UNL     1      10.088  -1.541  21.944  0.00  0.00    -0.341 N 
ATOM     49  H   UNL     1      10.158  -1.350  20.956  0.00  0.00    +0.144 HD
ATOM     50  H   UNL     1       9.421  -2.257  22.234  0.00  0.00    +0.144 HD
ENDBRANCH  42  48
ENDBRANCH  37  39
BRANCH  35  51
ATOM     51  O   UNL     1       5.894   6.802  23.356  0.00  0.00    -0.386 OA
ATOM     52  H   UNL     1       4.950   7.058  23.294  0.00  0.00    +0.210 HD
ENDBRANCH  35  51
BRANCH  36  53
ATOM     53  O   UNL     1       7.465   5.801  21.561  0.00  0.00    -0.385 OA
ATOM     54  H   UNL     1       7.928   5.364  20.817  0.00  0.00    +0.210 HD
ENDBRANCH  36  53
ENDBRANCH  33  34
ENDBRANCH  32  33
ENDBRANCH  28  32
ENDBRANCH   1  28
TORSDOF 18
ENDMDL
MODEL 4
REMARK VINA RESULT:      -7.1      2.255      7.749
REMARK  Name = 
REMARK  18 active torsions:
REMARK  status: ('A' for Active; 'I' for Inactive)
REMARK    1  A    between atoms: C_2  and  C_4
REMARK    2  A    between atoms: N_6  and  C_10
REMARK    3  A    between atoms: C_13  and  C_15
REMARK    4  A    between atoms: C_15  and  O_16
REMARK    5  A    between atoms: O_16  and  P_17
REMARK    6  A    between atoms: P_17  and  O_18
REMARK    7  A    between atoms: P_17  and  O_20
REMARK    8  A    between atoms: O_20  and  P_21
REMARK    9  A    between atoms: P_21  and  O_22
REMARK   10  A    between atoms: P_21  and  O_24
REMARK   11  A    between atoms: O_24  and  C_25
REMARK   12  A    between atoms: C_25  and  C_26
REMARK   13  A    between atoms: C_29  and  N_37
REMARK   14  A    between atoms: C_31  and  O_33
REMARK   15  A    between atoms: C_34  and  O_36
REMARK   16  A    between atoms: C_41  and  N_42
REMARK   17  A    between atoms: C_47  and  O_49
REMARK   18  A    between atoms: C_50  and  O_52
REMARK                            x       y       z     vdW  Elec       q    Type
REMARK                         _______ _______ _______ _____ _____    ______ ____
ROOT
ATOM      1  O   UNL     1       4.686  -1.299  27.498  0.00  0.00    -0.186 OA
ENDROOT
BRANCH   1   2
ATOM      2  P   UNL     1       5.593  -0.620  26.379  0.00  0.00    +0.483 P 
ATOM      3  O   UNL     1       5.626   0.871  26.354  0.00  0.00    -0.227 OA
BRANCH   2   4
ATOM      4  O   UNL     1       5.081  -1.225  24.989  0.00  0.00    -0.302 OA
ATOM      5  H   UNL     1       4.477  -1.977  25.128  0.00  0.00    +0.222 HD
ENDBRANCH   2   4
BRANCH   2   6
ATOM      6  O   UNL     1       7.021  -1.329  26.547  0.00  0.00    -0.284 OA
BRANCH   6   7
ATOM      7  C   UNL     1       8.092  -0.880  25.722  0.00  0.00    +0.206 C 
BRANCH   7  11
ATOM      8  C   UNL     1       8.401  -0.576  22.555  0.00  0.00    +0.241 C 
ATOM      9  C   UNL     1       9.874  -0.863  22.916  0.00  0.00    +0.193 C 
ATOM     10  C   UNL     1       9.830  -1.824  24.100  0.00  0.00    +0.178 C 
ATOM     11  C   UNL     1       8.377  -1.827  24.544  0.00  0.00    +0.178 C 
ATOM     12  O   UNL     1       7.621  -1.482  23.372  0.00  0.00    -0.348 OA
BRANCH   8  17
ATOM     13  C   UNL     1       8.556   3.033  23.612  0.00  0.00    +0.032 C 
ATOM     14  C   UNL     1       7.097   3.297  23.902  0.00  0.00    +0.070 C 
ATOM     15  C   UNL     1       6.194   2.375  23.124  0.00  0.00    -0.007 C 
ATOM     16  C   UNL     1       6.680   1.230  22.626  0.00  0.00    +0.073 C 
ATOM     17  N   UNL     1       8.005   0.828  22.808  0.00  0.00    -0.285 N 
ATOM     18  C   UNL     1       8.931   1.835  23.123  0.00  0.00    +0.086 C 
BRANCH  13  22
ATOM     19  N   UNL     1      10.682   4.121  23.253  0.00  0.00    -0.326 N 
ATOM     20  H   UNL     1      10.890   3.462  22.518  0.00  0.00    +0.145 HD
ATOM     21  H   UNL     1      11.241   4.963  23.307  0.00  0.00    +0.145 HD
ATOM     22  C   UNL     1       9.485   4.153  23.893  0.00  0.00    +0.239 C 
ATOM     23  O   UNL     1       9.157   5.112  24.580  0.00  0.00    -0.271 OA
ENDBRANCH  13  22
ENDBRANCH   8  17
BRANCH  10  24
ATOM     24  O   UNL     1      10.244  -3.132  23.663  0.00  0.00    -0.386 OA
ATOM     25  H   UNL     1      10.802  -3.537  24.353  0.00  0.00    +0.210 HD
ENDBRANCH  10  24
BRANCH   9  26
ATOM     26  O   UNL     1      10.570  -1.440  21.797  0.00  0.00    -0.385 OA
ATOM     27  H   UNL     1      10.836  -2.337  22.086  0.00  0.00    +0.210 HD
ENDBRANCH   9  26
ENDBRANCH   7  11
ENDBRANCH   6   7
ENDBRANCH   2   6
ENDBRANCH   1   2
BRANCH   1  28
ATOM     28  P   UNL     1       3.084  -1.170  27.389  0.00  0.00    +0.483 P 
ATOM     29  O   UNL     1       2.444  -1.532  28.730  0.00  0.00    -0.227 OA
BRANCH  28  30
ATOM     30  O   UNL     1       3.160   0.461  27.961  0.00  0.00    -0.302 OA
ATOM     31  H   UNL     1       2.343   0.862  27.597  0.00  0.00    +0.222 HD
ENDBRANCH  28  30
BRANCH  28  32
ATOM     32  O   UNL     1       3.009  -2.801  26.817  0.00  0.00    -0.284 OA
BRANCH  32  33
ATOM     33  C   UNL     1       2.000  -3.092  25.850  0.00  0.00    +0.206 C 
BRANCH  33  34
ATOM     34  C   UNL     1       2.557  -3.779  24.598  0.00  0.00    +0.178 C 
ATOM     35  C   UNL     1       2.263  -5.274  24.555  0.00  0.00    +0.178 C 
ATOM     36  C   UNL     1       3.525  -5.913  23.951  0.00  0.00    +0.195 C 
ATOM     37  C   UNL     1       4.456  -4.725  23.691  0.00  0.00    +0.253 C 
ATOM     38  O   UNL     1       3.981  -3.655  24.537  0.00  0.00    -0.346 OA
BRANCH  37  39
ATOM     39  N   UNL     1       5.877  -4.875  23.940  0.00  0.00    -0.286 N 
ATOM     40  C   UNL     1       6.555  -4.916  25.131  0.00  0.00    +0.167 A 
ATOM     41  C   UNL     1       7.876  -5.185  24.775  0.00  0.00    +0.147 A 
ATOM     42  C   UNL     1       8.832  -5.273  25.811  0.00  0.00    +0.147 A 
ATOM     43  N   UNL     1       8.411  -5.070  27.074  0.00  0.00    -0.219 NA
ATOM     44  C   UNL     1       7.094  -4.827  27.285  0.00  0.00    +0.225 A 
ATOM     45  N   UNL     1       8.006  -5.320  23.410  0.00  0.00    -0.231 NA
ATOM     46  N   UNL     1       6.087  -4.740  26.379  0.00  0.00    -0.216 NA
ATOM     47  C   UNL     1       6.790  -5.151  22.948  0.00  0.00    +0.203 A 
BRANCH  42  48
ATOM     48  N   UNL     1      10.165  -5.536  25.566  0.00  0.00    -0.341 N 
ATOM     49  H   UNL     1      10.307  -6.324  24.953  0.00  0.00    +0.144 HD
ATOM     50  H   UNL     1      10.747  -5.485  26.403  0.00  0.00    +0.144 HD
ENDBRANCH  42  48
ENDBRANCH  37  39
BRANCH  35  51
ATOM     51  O   UNL     1       1.088  -5.513  23.785  0.00  0.00    -0.386 OA
ATOM     52  H   UNL     1       1.340  -6.171  23.103  0.00  0.00    +0.210 HD
ENDBRANCH  35  51
BRANCH  36  53
ATOM     53  O   UNL     1       3.183  -6.630  22.757  0.00  0.00    -0.385 OA
ATOM     54  H   UNL     1       3.563  -7.528  22.848  0.00  0.00    +0.210 HD
ENDBRANCH  36  53
ENDBRANCH  33  34
ENDBRANCH  32  33
ENDBRANCH  28  32
ENDBRANCH   1  28
TORSDOF 18
ENDMDL
MODEL 5
REMARK VINA RESULT:      -7.0      3.309      6.517
REMARK  Name = 
REMARK  18 active torsions:
REMARK  status: ('A' for Active; 'I' for Inactive)
REMARK    1  A    between atoms: C_2  and  C_4
REMARK    2  A    between atoms: N_6  and  C_10
REMARK    3  A    between atoms: C_13  and  C_15
REMARK    4  A    between atoms: C_15  and  O_16
REMARK    5  A    between atoms: O_16  and  P_17
REMARK    6  A    between atoms: P_17  and  O_18
REMARK    7  A    between atoms: P_17  and  O_20
REMARK    8  A    between atoms: O_20  and  P_21
REMARK    9  A    between atoms: P_21  and  O_22
REMARK   10  A    between atoms: P_21  and  O_24
REMARK   11  A    between atoms: O_24  and  C_25
REMARK   12  A    between atoms: C_25  and  C_26
REMARK   13  A    between atoms: C_29  and  N_37
REMARK   14  A    between atoms: C_31  and  O_33
REMARK   15  A    between atoms: C_34  and  O_36
REMARK   16  A    between atoms: C_41  and  N_42
REMARK   17  A    between atoms: C_47  and  O_49
REMARK   18  A    between atoms: C_50  and  O_52
REMARK                            x       y       z     vdW  Elec       q    Type
REMARK                         _______ _______ _______ _____ _____    ______ ____
ROOT
ATOM      1  O   UNL     1       6.863  -4.652  28.054  0.00  0.00    -0.186 OA
ENDROOT
BRANCH   1   2
ATOM      2  P   UNL     1       5.549  -5.551  28.089  0.00  0.00    +0.483 P 
ATOM      3  O   UNL     1       4.439  -5.083  28.969  0.00  0.00    -0.227 OA
BRANCH   2   4
ATOM      4  O   UNL     1       6.046  -7.018  28.491  0.00  0.00    -0.302 OA
ATOM      5  H   UNL     1       5.452  -7.428  29.146  0.00  0.00    +0.222 HD
ENDBRANCH   2   4
BRANCH   2   6
ATOM      6  O   UNL     1       5.161  -5.740  26.545  0.00  0.00    -0.284 OA
BRANCH   6   7
ATOM      7  C   UNL     1       4.393  -6.884  26.184  0.00  0.00    +0.206 C 
BRANCH   7  11
ATOM      8  C   UNL     1       2.866  -5.601  23.686  0.00  0.00    +0.241 C 
ATOM      9  C   UNL     1       2.372  -7.057  23.550  0.00  0.00    +0.193 C 
ATOM     10  C   UNL     1       2.252  -7.588  24.975  0.00  0.00    +0.178 C 
ATOM     11  C   UNL     1       2.934  -6.540  25.839  0.00  0.00    +0.178 C 
ATOM     12  O   UNL     1       2.823  -5.311  25.104  0.00  0.00    -0.348 OA
BRANCH   8  17
ATOM     13  C   UNL     1       5.944  -3.916  22.326  0.00  0.00    +0.032 C 
ATOM     14  C   UNL     1       6.553  -5.051  21.537  0.00  0.00    +0.070 C 
ATOM     15  C   UNL     1       6.131  -6.397  22.071  0.00  0.00    -0.007 C 
ATOM     16  C   UNL     1       5.034  -6.496  22.833  0.00  0.00    +0.073 C 
ATOM     17  N   UNL     1       4.232  -5.399  23.153  0.00  0.00    -0.285 N 
ATOM     18  C   UNL     1       4.828  -4.132  23.049  0.00  0.00    +0.086 C 
BRANCH  13  22
ATOM     19  N   UNL     1       6.030  -1.551  22.810  0.00  0.00    -0.326 N 
ATOM     20  H   UNL     1       5.206  -1.644  23.384  0.00  0.00    +0.145 HD
ATOM     21  H   UNL     1       6.583  -0.710  22.906  0.00  0.00    +0.145 HD
ATOM     22  C   UNL     1       6.652  -2.617  22.242  0.00  0.00    +0.239 C 
ATOM     23  O   UNL     1       7.783  -2.522  21.781  0.00  0.00    -0.271 OA
ENDBRANCH  13  22
ENDBRANCH   8  17
BRANCH  10  24
ATOM     24  O   UNL     1       0.858  -7.716  25.315  0.00  0.00    -0.386 OA
ATOM     25  H   UNL     1       0.746  -7.552  26.270  0.00  0.00    +0.210 HD
ENDBRANCH  10  24
BRANCH   9  26
ATOM     26  O   UNL     1       1.110  -7.106  22.862  0.00  0.00    -0.385 OA
ATOM     27  H   UNL     1       0.441  -6.826  23.521  0.00  0.00    +0.210 HD
ENDBRANCH   9  26
ENDBRANCH   7  11
ENDBRANCH   6   7
ENDBRANCH   2   6
ENDBRANCH   1   2
BRANCH   1  28
ATOM     28  P   UNL     1       7.609  -4.414  26.646  0.00  0.00    +0.483 P 
ATOM     29  O   UNL     1       9.105  -4.208  26.882  0.00  0.00    -0.227 OA
BRANCH  28  30
ATOM     30  O   UNL     1       7.947  -6.106  26.521  0.00  0.00    -0.302 OA
ATOM     31  H   UNL     1       8.629  -6.248  27.211  0.00  0.00    +0.222 HD
ENDBRANCH  28  30
BRANCH  28  32
ATOM     32  O   UNL     1       7.270  -2.722  26.772  0.00  0.00    -0.284 OA
BRANCH  32  33
ATOM     33  C   UNL     1       8.350  -1.832  26.487  0.00  0.00    +0.206 C 
BRANCH  33  34
ATOM     34  C   UNL     1       8.505  -1.545  24.990  0.00  0.00    +0.178 C 
ATOM     35  C   UNL     1       9.890  -1.889  24.455  0.00  0.00    +0.178 C 
ATOM     36  C   UNL     1      10.211  -0.786  23.433  0.00  0.00    +0.195 C 
ATOM     37  C   UNL     1       8.973   0.117  23.459  0.00  0.00    +0.253 C 
ATOM     38  O   UNL     1       8.309  -0.155  24.713  0.00  0.00    -0.346 OA
BRANCH  37  39
ATOM     39  N   UNL     1       9.147   1.554  23.364  0.00  0.00    -0.286 N 
ATOM     40  C   UNL     1       8.242   2.521  23.011  0.00  0.00    +0.167 A 
ATOM     41  C   UNL     1       8.921   3.724  23.198  0.00  0.00    +0.147 A 
ATOM     42  C   UNL     1       8.235   4.921  22.897  0.00  0.00    +0.147 A 
ATOM     43  N   UNL     1       6.977   4.824  22.426  0.00  0.00    -0.219 NA
ATOM     44  C   UNL     1       6.428   3.591  22.301  0.00  0.00    +0.225 A 
ATOM     45  N   UNL     1      10.199   3.507  23.665  0.00  0.00    -0.231 NA
ATOM     46  N   UNL     1       6.978   2.381  22.576  0.00  0.00    -0.216 NA
ATOM     47  C   UNL     1      10.290   2.203  23.773  0.00  0.00    +0.203 A 
BRANCH  42  48
ATOM     48  N   UNL     1       8.817   6.165  23.048  0.00  0.00    -0.341 N 
ATOM     49  H   UNL     1       8.385   6.718  23.773  0.00  0.00    +0.144 HD
ATOM     50  H   UNL     1       9.013   6.630  22.161  0.00  0.00    +0.144 HD
ENDBRANCH  42  48
ENDBRANCH  37  39
BRANCH  35  51
ATOM     51  O   UNL     1       9.876  -3.196  23.886  0.00  0.00    -0.386 OA
ATOM     52  H   UNL     1      10.096  -3.081  22.938  0.00  0.00    +0.210 HD
ENDBRANCH  35  51
BRANCH  36  53
ATOM     53  O   UNL     1      10.452  -1.371  22.145  0.00  0.00    -0.385 OA
ATOM     54  H   UNL     1      10.137  -0.726  21.479  0.00  0.00    +0.210 HD
ENDBRANCH  36  53
ENDBRANCH  33  34
ENDBRANCH  32  33
ENDBRANCH  28  32
ENDBRANCH   1  28
TORSDOF 18
ENDMDL
MODEL 6
REMARK VINA RESULT:      -7.0      3.362      5.657
REMARK  Name = 
REMARK  18 active torsions:
REMARK  status: ('A' for Active; 'I' for Inactive)
REMARK    1  A    between atoms: C_2  and  C_4
REMARK    2  A    between atoms: N_6  and  C_10
REMARK    3  A    between atoms: C_13  and  C_15
REMARK    4  A    between atoms: C_15  and  O_16
REMARK    5  A    between atoms: O_16  and  P_17
REMARK    6  A    between atoms: P_17  and  O_18
REMARK    7  A    between atoms: P_17  and  O_20
REMARK    8  A    between atoms: O_20  and  P_21
REMARK    9  A    between atoms: P_21  and  O_22
REMARK   10  A    between atoms: P_21  and  O_24
REMARK   11  A    between atoms: O_24  and  C_25
REMARK   12  A    between atoms: C_25  and  C_26
REMARK   13  A    between atoms: C_29  and  N_37
REMARK   14  A    between atoms: C_31  and  O_33
REMARK   15  A    between atoms: C_34  and  O_36
REMARK   16  A    between atoms: C_41  and  N_42
REMARK   17  A    between atoms: C_47  and  O_49
REMARK   18  A    between atoms: C_50  and  O_52
REMARK                            x       y       z     vdW  Elec       q    Type
REMARK                         _______ _______ _______ _____ _____    ______ ____
ROOT
ATOM      1  O   UNL     1       4.641  -1.408  25.778  0.00  0.00    -0.186 OA
ENDROOT
BRANCH   1   2
ATOM      2  P   UNL     1       4.438  -2.958  26.078  0.00  0.00    +0.483 P 
ATOM      3  O   UNL     1       3.388  -3.317  27.075  0.00  0.00    -0.227 OA
BRANCH   2   4
ATOM      4  O   UNL     1       5.878  -3.502  26.513  0.00  0.00    -0.302 OA
ATOM      5  H   UNL     1       6.408  -3.764  25.738  0.00  0.00    +0.222 HD
ENDBRANCH   2   4
BRANCH   2   6
ATOM      6  O   UNL     1       4.253  -3.618  24.629  0.00  0.00    -0.284 OA
BRANCH   6   7
ATOM      7  C   UNL     1       3.029  -4.291  24.351  0.00  0.00    +0.206 C 
BRANCH   7  11
ATOM      8  C   UNL     1       3.428  -7.432  24.791  0.00  0.00    +0.241 C 
ATOM      9  C   UNL     1       1.992  -7.447  24.225  0.00  0.00    +0.193 C 
ATOM     10  C   UNL     1       1.933  -6.304  23.216  0.00  0.00    +0.178 C 
ATOM     11  C   UNL     1       3.213  -5.519  23.443  0.00  0.00    +0.178 C 
ATOM     12  O   UNL     1       4.147  -6.464  23.988  0.00  0.00    -0.348 OA
BRANCH   8  17
ATOM     13  C   UNL     1       4.770  -6.726  28.235  0.00  0.00    +0.032 C 
ATOM     14  C   UNL     1       3.548  -7.022  29.073  0.00  0.00    +0.070 C 
ATOM     15  C   UNL     1       2.272  -6.848  28.287  0.00  0.00    -0.007 C 
ATOM     16  C   UNL     1       2.307  -6.869  26.948  0.00  0.00    +0.073 C 
ATOM     17  N   UNL     1       3.484  -7.067  26.224  0.00  0.00    -0.285 N 
ATOM     18  C   UNL     1       4.688  -6.791  26.892  0.00  0.00    +0.086 C 
BRANCH  13  22
ATOM     19  N   UNL     1       6.728  -7.403  29.477  0.00  0.00    -0.326 N 
ATOM     20  H   UNL     1       6.542  -8.365  29.235  0.00  0.00    +0.145 HD
ATOM     21  H   UNL     1       7.645  -7.172  29.834  0.00  0.00    +0.145 HD
ATOM     22  C   UNL     1       5.997  -6.369  28.986  0.00  0.00    +0.239 C 
ATOM     23  O   UNL     1       6.393  -5.213  29.071  0.00  0.00    -0.271 OA
ENDBRANCH  13  22
ENDBRANCH   8  17
BRANCH  10  24
ATOM     24  O   UNL     1       1.886  -6.851  21.886  0.00  0.00    -0.386 OA
ATOM     25  H   UNL     1       2.771  -6.784  21.482  0.00  0.00    +0.210 HD
ENDBRANCH  10  24
BRANCH   9  26
ATOM     26  O   UNL     1       1.702  -8.712  23.605  0.00  0.00    -0.385 OA
ATOM     27  H   UNL     1       0.946  -9.084  24.106  0.00  0.00    +0.210 HD
ENDBRANCH   9  26
ENDBRANCH   7  11
ENDBRANCH   6   7
ENDBRANCH   2   6
ENDBRANCH   1   2
BRANCH   1  28
ATOM     28  P   UNL     1       4.618  -0.365  27.005  0.00  0.00    +0.483 P 
ATOM     29  O   UNL     1       5.099   1.006  26.528  0.00  0.00    -0.227 OA
BRANCH  28  30
ATOM     30  O   UNL     1       3.020   0.136  26.570  0.00  0.00    -0.302 OA
ATOM     31  H   UNL     1       2.457  -0.576  26.938  0.00  0.00    +0.222 HD
ENDBRANCH  28  30
BRANCH  28  32
ATOM     32  O   UNL     1       6.216  -0.866  27.440  0.00  0.00    -0.284 OA
BRANCH  32  33
ATOM     33  C   UNL     1       7.263   0.079  27.222  0.00  0.00    +0.206 C 
BRANCH  33  34
ATOM     34  C   UNL     1       8.416  -0.493  26.390  0.00  0.00    +0.178 C 
ATOM     35  C   UNL     1       8.639   0.258  25.081  0.00  0.00    +0.178 C 
ATOM     36  C   UNL     1       9.006  -0.826  24.055  0.00  0.00    +0.195 C 
ATOM     37  C   UNL     1       8.965  -2.129  24.859  0.00  0.00    +0.253 C 
ATOM     38  O   UNL     1       8.160  -1.852  26.025  0.00  0.00    -0.346 OA
BRANCH  37  39
ATOM     39  N   UNL     1       8.429  -3.325  24.237  0.00  0.00    -0.286 N 
ATOM     40  C   UNL     1       7.491  -3.447  23.244  0.00  0.00    +0.167 A 
ATOM     41  C   UNL     1       7.446  -4.813  22.969  0.00  0.00    +0.147 A 
ATOM     42  C   UNL     1       6.541  -5.255  21.979  0.00  0.00    +0.147 A 
ATOM     43  N   UNL     1       5.764  -4.332  21.380  0.00  0.00    -0.219 NA
ATOM     44  C   UNL     1       5.916  -3.033  21.733  0.00  0.00    +0.225 A 
ATOM     45  N   UNL     1       8.338  -5.510  23.755  0.00  0.00    -0.231 NA
ATOM     46  N   UNL     1       6.759  -2.491  22.648  0.00  0.00    -0.216 NA
ATOM     47  C   UNL     1       8.921  -4.587  24.483  0.00  0.00    +0.203 A 
BRANCH  42  48
ATOM     48  N   UNL     1       6.420  -6.586  21.629  0.00  0.00    -0.341 N 
ATOM     49  H   UNL     1       7.307  -7.062  21.570  0.00  0.00    +0.144 HD
ATOM     50  H   UNL     1       5.753  -6.746  20.874  0.00  0.00    +0.144 HD
ENDBRANCH  42  48
ENDBRANCH  37  39
BRANCH  35  51
ATOM     51  O   UNL     1       9.660   1.237  25.255  0.00  0.00    -0.386 OA
ATOM     52  H   UNL     1       9.496   1.647  26.130  0.00  0.00    +0.210 HD
ENDBRANCH  35  51
BRANCH  36  53
ATOM     53  O   UNL     1      10.298  -0.550  23.497  0.00  0.00    -0.385 OA
ATOM     54  H   UNL     1      10.279   0.378  23.185  0.00  0.00    +0.210 HD
ENDBRANCH  36  53
ENDBRANCH  33  34
ENDBRANCH  32  33
ENDBRANCH  28  32
ENDBRANCH   1  28
TORSDOF 18
ENDMDL
MODEL 7
REMARK VINA RESULT:      -7.0      2.694      8.780
REMARK  Name = 
REMARK  18 active torsions:
REMARK  status: ('A' for Active; 'I' for Inactive)
REMARK    1  A    between atoms: C_2  and  C_4
REMARK    2  A    between atoms: N_6  and  C_10
REMARK    3  A    between atoms: C_13  and  C_15
REMARK    4  A    between atoms: C_15  and  O_16
REMARK    5  A    between atoms: O_16  and  P_17
REMARK    6  A    between atoms: P_17  and  O_18
REMARK    7  A    between atoms: P_17  and  O_20
REMARK    8  A    between atoms: O_20  and  P_21
REMARK    9  A    between atoms: P_21  and  O_22
REMARK   10  A    between atoms: P_21  and  O_24
REMARK   11  A    between atoms: O_24  and  C_25
REMARK   12  A    between atoms: C_25  and  C_26
REMARK   13  A    between atoms: C_29  and  N_37
REMARK   14  A    between atoms: C_31  and  O_33
REMARK   15  A    between atoms: C_34  and  O_36
REMARK   16  A    between atoms: C_41  and  N_42
REMARK   17  A    between atoms: C_47  and  O_49
REMARK   18  A    between atoms: C_50  and  O_52
REMARK                            x       y       z     vdW  Elec       q    Type
REMARK                         _______ _______ _______ _____ _____    ______ ____
ROOT
ATOM      1  O   UNL     1       8.963   0.185  23.236  0.00  0.00    -0.186 OA
ENDROOT
BRANCH   1   2
ATOM      2  P   UNL     1       9.888  -0.003  24.519  0.00  0.00    +0.483 P 
ATOM      3  O   UNL     1      11.120   0.836  24.587  0.00  0.00    -0.227 OA
BRANCH   2   4
ATOM      4  O   UNL     1      10.231  -1.564  24.575  0.00  0.00    -0.302 OA
ATOM      5  H   UNL     1      10.289  -1.948  23.681  0.00  0.00    +0.222 HD
ENDBRANCH   2   4
BRANCH   2   6
ATOM      6  O   UNL     1       8.882   0.164  25.756  0.00  0.00    -0.284 OA
BRANCH   6   7
ATOM      7  C   UNL     1       7.622  -0.497  25.687  0.00  0.00    +0.206 C 
BRANCH   7  11
ATOM      8  C   UNL     1       5.870   2.165  25.948  0.00  0.00    +0.241 C 
ATOM      9  C   UNL     1       4.742   1.163  25.619  0.00  0.00    +0.193 C 
ATOM     10  C   UNL     1       5.156  -0.153  26.271  0.00  0.00    +0.178 C 
ATOM     11  C   UNL     1       6.600   0.059  26.693  0.00  0.00    +0.178 C 
ATOM     12  O   UNL     1       6.736   1.476  26.883  0.00  0.00    -0.348 OA
BRANCH   8  17
ATOM     13  C   UNL     1       8.420   3.885  23.779  0.00  0.00    +0.032 C 
ATOM     14  C   UNL     1       7.672   3.941  22.467  0.00  0.00    +0.070 C 
ATOM     15  C   UNL     1       6.636   2.851  22.363  0.00  0.00    -0.007 C 
ATOM     16  C   UNL     1       6.190   2.249  23.474  0.00  0.00    +0.073 C 
ATOM     17  N   UNL     1       6.630   2.595  24.752  0.00  0.00    -0.285 N 
ATOM     18  C   UNL     1       7.864   3.259  24.835  0.00  0.00    +0.086 C 
BRANCH  13  22
ATOM     19  N   UNL     1      10.797   3.785  23.364  0.00  0.00    -0.326 N 
ATOM     20  H   UNL     1      10.678   2.885  22.924  0.00  0.00    +0.145 HD
ATOM     21  H   UNL     1      11.668   4.277  23.210  0.00  0.00    +0.145 HD
ATOM     22  C   UNL     1       9.751   4.537  23.793  0.00  0.00    +0.239 C 
ATOM     23  O   UNL     1       9.890   5.721  24.073  0.00  0.00    -0.271 OA
ENDBRANCH  13  22
ENDBRANCH   8  17
BRANCH  10  24
ATOM     24  O   UNL     1       4.311  -0.401  27.410  0.00  0.00    -0.386 OA
ATOM     25  H   UNL     1       4.724  -1.084  27.971  0.00  0.00    +0.210 HD
ENDBRANCH  10  24
BRANCH   9  26
ATOM     26  O   UNL     1       3.482   1.630  26.131  0.00  0.00    -0.385 OA
ATOM     27  H   UNL     1       3.342   2.510  25.723  0.00  0.00    +0.210 HD
ENDBRANCH   9  26
ENDBRANCH   7  11
ENDBRANCH   6   7
ENDBRANCH   2   6
ENDBRANCH   1   2
BRANCH   1  28
ATOM     28  P   UNL     1       9.596  -0.057  21.775  0.00  0.00    +0.483 P 
ATOM     29  O   UNL     1       8.575   0.318  20.701  0.00  0.00    -0.227 OA
BRANCH  28  30
ATOM     30  O   UNL     1      10.135   1.586  21.718  0.00  0.00    -0.302 OA
ATOM     31  H   UNL     1      10.960   1.567  22.248  0.00  0.00    +0.222 HD
ENDBRANCH  28  30
BRANCH  28  32
ATOM     32  O   UNL     1       9.057  -1.700  21.832  0.00  0.00    -0.284 OA
BRANCH  32  33
ATOM     33  C   UNL     1       7.711  -1.916  22.254  0.00  0.00    +0.206 C 
BRANCH  33  34
ATOM     34  C   UNL     1       7.358  -3.403  22.381  0.00  0.00    +0.178 C 
ATOM     35  C   UNL     1       5.881  -3.690  22.137  0.00  0.00    +0.178 C 
ATOM     36  C   UNL     1       5.516  -4.794  23.143  0.00  0.00    +0.195 C 
ATOM     37  C   UNL     1       6.824  -5.059  23.895  0.00  0.00    +0.253 C 
ATOM     38  O   UNL     1       7.641  -3.885  23.698  0.00  0.00    -0.346 OA
BRANCH  37  39
ATOM     39  N   UNL     1       6.776  -5.318  25.322  0.00  0.00    -0.286 N 
ATOM     40  C   UNL     1       5.774  -5.875  26.075  0.00  0.00    +0.167 A 
ATOM     41  C   UNL     1       6.314  -5.979  27.356  0.00  0.00    +0.147 A 
ATOM     42  C   UNL     1       5.495  -6.516  28.374  0.00  0.00    +0.147 A 
ATOM     43  N   UNL     1       4.237  -6.872  28.047  0.00  0.00    -0.219 NA
ATOM     44  C   UNL     1       3.840  -6.729  26.759  0.00  0.00    +0.225 A 
ATOM     45  N   UNL     1       7.611  -5.515  27.390  0.00  0.00    -0.231 NA
ATOM     46  N   UNL     1       4.539  -6.249  25.699  0.00  0.00    -0.216 NA
ATOM     47  C   UNL     1       7.859  -5.149  26.155  0.00  0.00    +0.203 A 
BRANCH  42  48
ATOM     48  N   UNL     1       5.933  -6.663  29.675  0.00  0.00    -0.341 N 
ATOM     49  H   UNL     1       5.961  -5.793  30.184  0.00  0.00    +0.144 HD
ATOM     50  H   UNL     1       6.741  -7.280  29.762  0.00  0.00    +0.144 HD
ENDBRANCH  42  48
ENDBRANCH  37  39
BRANCH  35  51
ATOM     51  O   UNL     1       5.683  -4.078  20.780  0.00  0.00    -0.386 OA
ATOM     52  H   UNL     1       6.575  -4.260  20.417  0.00  0.00    +0.210 HD
ENDBRANCH  35  51
BRANCH  36  53
ATOM     53  O   UNL     1       5.027  -5.947  22.443  0.00  0.00    -0.385 OA
ATOM     54  H   UNL     1       5.779  -6.570  22.366  0.00  0.00    +0.210 HD
ENDBRANCH  36  53
ENDBRANCH  33  34
ENDBRANCH  32  33
ENDBRANCH  28  32
ENDBRANCH   1  28
TORSDOF 18
ENDMDL
MODEL 8
REMARK VINA RESULT:      -6.9      3.284      6.340
REMARK  Name = 
REMARK  18 active torsions:
REMARK  status: ('A' for Active; 'I' for Inactive)
REMARK    1  A    between atoms: C_2  and  C_4
REMARK    2  A    between atoms: N_6  and  C_10
REMARK    3  A    between atoms: C_13  and  C_15
REMARK    4  A    between atoms: C_15  and  O_16
REMARK    5  A    between atoms: O_16  and  P_17
REMARK    6  A    between atoms: P_17  and  O_18
REMARK    7  A    between atoms: P_17  and  O_20
REMARK    8  A    between atoms: O_20  and  P_21
REMARK    9  A    between atoms: P_21  and  O_22
REMARK   10  A    between atoms: P_21  and  O_24
REMARK   11  A    between atoms: O_24  and  C_25
REMARK   12  A    between atoms: C_25  and  C_26
REMARK   13  A    between atoms: C_29  and  N_37
REMARK   14  A    between atoms: C_31  and  O_33
REMARK   15  A    between atoms: C_34  and  O_36
REMARK   16  A    between atoms: C_41  and  N_42
REMARK   17  A    between atoms: C_47  and  O_49
REMARK   18  A    between atoms: C_50  and  O_52
REMARK                            x       y       z     vdW  Elec       q    Type
REMARK                         _______ _______ _______ _____ _____    ______ ____
ROOT
ATOM      1  O   UNL     1       6.030  -5.157  23.881  0.00  0.00    -0.186 OA
ENDROOT
BRANCH   1   2
ATOM      2  P   UNL     1       4.468  -4.850  23.867  0.00  0.00    +0.483 P 
ATOM      3  O   UNL     1       3.717  -5.246  22.641  0.00  0.00    -0.227 OA
BRANCH   2   4
ATOM      4  O   UNL     1       4.337  -3.283  24.162  0.00  0.00    -0.302 OA
ATOM      5  H   UNL     1       4.338  -2.764  23.337  0.00  0.00    +0.222 HD
ENDBRANCH   2   4
BRANCH   2   6
ATOM      6  O   UNL     1       3.929  -5.494  25.233  0.00  0.00    -0.284 OA
BRANCH   6   7
ATOM      7  C   UNL     1       4.491  -6.733  25.655  0.00  0.00    +0.206 C 
BRANCH   7  11
ATOM      8  C   UNL     1       5.632  -5.509  28.379  0.00  0.00    +0.241 C 
ATOM      9  C   UNL     1       4.188  -4.970  28.457  0.00  0.00    +0.193 C 
ATOM     10  C   UNL     1       3.311  -6.042  27.817  0.00  0.00    +0.178 C 
ATOM     11  C   UNL     1       4.289  -7.000  27.157  0.00  0.00    +0.178 C 
ATOM     12  O   UNL     1       5.509  -6.871  27.902  0.00  0.00    -0.348 OA
BRANCH   8  17
ATOM     13  C   UNL     1       8.541  -4.503  26.211  0.00  0.00    +0.032 C 
ATOM     14  C   UNL     1       8.452  -2.999  26.313  0.00  0.00    +0.070 C 
ATOM     15  C   UNL     1       7.051  -2.538  26.628  0.00  0.00    -0.007 C 
ATOM     16  C   UNL     1       6.174  -3.395  27.167  0.00  0.00    +0.073 C 
ATOM     17  N   UNL     1       6.499  -4.717  27.477  0.00  0.00    -0.285 N 
ATOM     18  C   UNL     1       7.604  -5.267  26.808  0.00  0.00    +0.086 C 
BRANCH  13  22
ATOM     19  N   UNL     1       9.814  -6.384  25.390  0.00  0.00    -0.326 N 
ATOM     20  H   UNL     1       9.104  -7.011  25.740  0.00  0.00    +0.145 HD
ATOM     21  H   UNL     1      10.482  -6.749  24.724  0.00  0.00    +0.145 HD
ATOM     22  C   UNL     1       9.685  -5.033  25.432  0.00  0.00    +0.239 C 
ATOM     23  O   UNL     1      10.414  -4.303  24.773  0.00  0.00    -0.271 OA
ENDBRANCH  13  22
ENDBRANCH   8  17
BRANCH  10  24
ATOM     24  O   UNL     1       2.548  -6.702  28.844  0.00  0.00    -0.386 OA
ATOM     25  H   UNL     1       3.150  -7.235  29.396  0.00  0.00    +0.210 HD
ENDBRANCH  10  24
BRANCH   9  26
ATOM     26  O   UNL     1       3.809  -4.727  29.823  0.00  0.00    -0.385 OA
ATOM     27  H   UNL     1       3.958  -5.573  30.293  0.00  0.00    +0.210 HD
ENDBRANCH   9  26
ENDBRANCH   7  11
ENDBRANCH   6   7
ENDBRANCH   2   6
ENDBRANCH   1   2
BRANCH   1  28
ATOM     28  P   UNL     1       6.828  -5.210  22.483  0.00  0.00    +0.483 P 
ATOM     29  O   UNL     1       8.099  -6.044  22.645  0.00  0.00    -0.227 OA
BRANCH  28  30
ATOM     30  O   UNL     1       6.018  -6.678  22.058  0.00  0.00    -0.302 OA
ATOM     31  H   UNL     1       5.915  -6.600  21.086  0.00  0.00    +0.222 HD
ENDBRANCH  28  30
BRANCH  28  32
ATOM     32  O   UNL     1       7.638  -3.741  22.909  0.00  0.00    -0.284 OA
BRANCH  32  33
ATOM     33  C   UNL     1       7.178  -2.550  22.270  0.00  0.00    +0.206 C 
BRANCH  33  34
ATOM     34  C   UNL     1       8.214  -1.421  22.302  0.00  0.00    +0.178 C 
ATOM     35  C   UNL     1       9.329  -1.660  23.315  0.00  0.00    +0.178 C 
ATOM     36  C   UNL     1       9.633  -0.275  23.910  0.00  0.00    +0.195 C 
ATOM     37  C   UNL     1       8.660   0.662  23.188  0.00  0.00    +0.253 C 
ATOM     38  O   UNL     1       7.607  -0.179  22.671  0.00  0.00    -0.346 OA
BRANCH  37  39
ATOM     39  N   UNL     1       8.030   1.735  23.934  0.00  0.00    -0.286 N 
ATOM     40  C   UNL     1       7.555   2.944  23.493  0.00  0.00    +0.167 A 
ATOM     41  C   UNL     1       6.961   3.519  24.616  0.00  0.00    +0.147 A 
ATOM     42  C   UNL     1       6.385   4.800  24.472  0.00  0.00    +0.147 A 
ATOM     43  N   UNL     1       6.466   5.394  23.265  0.00  0.00    -0.219 NA
ATOM     44  C   UNL     1       7.062   4.719  22.252  0.00  0.00    +0.225 A 
ATOM     45  N   UNL     1       7.053   2.686  25.710  0.00  0.00    -0.231 NA
ATOM     46  N   UNL     1       7.628   3.486  22.266  0.00  0.00    -0.216 NA
ATOM     47  C   UNL     1       7.677   1.624  25.260  0.00  0.00    +0.203 A 
BRANCH  42  48
ATOM     48  N   UNL     1       5.771   5.457  25.520  0.00  0.00    -0.341 N 
ATOM     49  H   UNL     1       4.796   5.219  25.619  0.00  0.00    +0.144 HD
ATOM     50  H   UNL     1       6.018   6.445  25.577  0.00  0.00    +0.144 HD
ENDBRANCH  42  48
ENDBRANCH  37  39
BRANCH  35  51
ATOM     51  O   UNL     1      10.451  -2.251  22.665  0.00  0.00    -0.386 OA
ATOM     52  H   UNL     1      11.063  -2.528  23.380  0.00  0.00    +0.210 HD
ENDBRANCH  35  51
BRANCH  36  53
ATOM     53  O   UNL     1      11.009   0.060  23.684  0.00  0.00    -0.385 OA
ATOM     54  H   UNL     1      11.099   0.249  22.727  0.00  0.00    +0.210 HD
ENDBRANCH  36  53
ENDBRANCH  33  34
ENDBRANCH  32  33
ENDBRANCH  28  32
ENDBRANCH   1  28
TORSDOF 18
ENDMDL
MODEL 9
REMARK VINA RESULT:      -6.8      3.036      6.099
REMARK  Name = 
REMARK  18 active torsions:
REMARK  status: ('A' for Active; 'I' for Inactive)
REMARK    1  A    between atoms: C_2  and  C_4
REMARK    2  A    between atoms: N_6  and  C_10
REMARK    3  A    between atoms: C_13  and  C_15
REMARK    4  A    between atoms: C_15  and  O_16
REMARK    5  A    between atoms: O_16  and  P_17
REMARK    6  A    between atoms: P_17  and  O_18
REMARK    7  A    between atoms: P_17  and  O_20
REMARK    8  A    between atoms: O_20  and  P_21
REMARK    9  A    between atoms: P_21  and  O_22
REMARK   10  A    between atoms: P_21  and  O_24
REMARK   11  A    between atoms: O_24  and  C_25
REMARK   12  A    between atoms: C_25  and  C_26
REMARK   13  A    between atoms: C_29  and  N_37
REMARK   14  A    between atoms: C_31  and  O_33
REMARK   15  A    between atoms: C_34  and  O_36
REMARK   16  A    between atoms: C_41  and  N_42
REMARK   17  A    between atoms: C_47  and  O_49
REMARK   18  A    between atoms: C_50  and  O_52
REMARK                            x       y       z     vdW  Elec       q    Type
REMARK                         _______ _______ _______ _____ _____    ______ ____
ROOT
ATOM      1  O   UNL     1       7.714  -4.375  26.962  0.00  0.00    -0.186 OA
ENDROOT
BRANCH   1   2
ATOM      2  P   UNL     1       6.573  -5.351  27.493  0.00  0.00    +0.483 P 
ATOM      3  O   UNL     1       5.437  -4.719  28.225  0.00  0.00    -0.227 OA
BRANCH   2   4
ATOM      4  O   UNL     1       7.325  -6.440  28.392  0.00  0.00    -0.302 OA
ATOM      5  H   UNL     1       8.271  -6.498  28.164  0.00  0.00    +0.222 HD
ENDBRANCH   2   4
BRANCH   2   6
ATOM      6  O   UNL     1       6.159  -6.208  26.203  0.00  0.00    -0.284 OA
BRANCH   6   7
ATOM      7  C   UNL     1       4.771  -6.415  25.955  0.00  0.00    +0.206 C 
BRANCH   7  11
ATOM      8  C   UNL     1       3.568  -4.495  23.700  0.00  0.00    +0.241 C 
ATOM      9  C   UNL     1       5.030  -4.560  23.209  0.00  0.00    +0.193 C 
ATOM     10  C   UNL     1       5.519  -5.964  23.551  0.00  0.00    +0.178 C 
ATOM     11  C   UNL     1       4.444  -6.540  24.458  0.00  0.00    +0.178 C 
ATOM     12  O   UNL     1       3.237  -5.846  24.103  0.00  0.00    -0.348 OA
BRANCH   8  17
ATOM     13  C   UNL     1       4.311  -2.072  26.482  0.00  0.00    +0.032 C 
ATOM     14  C   UNL     1       3.102  -2.285  27.363  0.00  0.00    +0.070 C 
ATOM     15  C   UNL     1       1.919  -2.793  26.579  0.00  0.00    -0.007 C 
ATOM     16  C   UNL     1       2.110  -3.374  25.387  0.00  0.00    +0.073 C 
ATOM     17  N   UNL     1       3.375  -3.553  24.826  0.00  0.00    -0.285 N 
ATOM     18  C   UNL     1       4.400  -2.722  25.306  0.00  0.00    +0.086 C 
BRANCH  13  22
ATOM     19  N   UNL     1       6.625  -1.414  26.704  0.00  0.00    -0.326 N 
ATOM     20  H   UNL     1       6.887  -2.138  26.052  0.00  0.00    +0.145 HD
ATOM     21  H   UNL     1       7.300  -0.688  26.904  0.00  0.00    +0.145 HD
ATOM     22  C   UNL     1       5.330  -1.129  27.000  0.00  0.00    +0.239 C 
ATOM     23  O   UNL     1       5.023  -0.091  27.573  0.00  0.00    -0.271 OA
ENDBRANCH  13  22
ENDBRANCH   8  17
BRANCH  10  24
ATOM     24  O   UNL     1       5.644  -6.730  22.338  0.00  0.00    -0.386 OA
ATOM     25  H   UNL     1       5.601  -6.125  21.574  0.00  0.00    +0.210 HD
ENDBRANCH  10  24
BRANCH   9  26
ATOM     26  O   UNL     1       5.104  -4.308  21.795  0.00  0.00    -0.385 OA
ATOM     27  H   UNL     1       6.029  -4.035  21.624  0.00  0.00    +0.210 HD
ENDBRANCH   9  26
ENDBRANCH   7  11
ENDBRANCH   6   7
ENDBRANCH   2   6
ENDBRANCH   1   2
BRANCH   1  28
ATOM     28  P   UNL     1       8.455  -4.722  25.575  0.00  0.00    +0.483 P 
ATOM     29  O   UNL     1       9.942  -4.384  25.684  0.00  0.00    -0.227 OA
BRANCH  28  30
ATOM     30  O   UNL     1       8.855  -6.298  26.164  0.00  0.00    -0.302 OA
ATOM     31  H   UNL     1       8.114  -6.502  26.772  0.00  0.00    +0.222 HD
ENDBRANCH  28  30
BRANCH  28  32
ATOM     32  O   UNL     1       8.055  -3.145  24.986  0.00  0.00    -0.284 OA
BRANCH  32  33
ATOM     33  C   UNL     1       9.109  -2.407  24.368  0.00  0.00    +0.206 C 
BRANCH  33  34
ATOM     34  C   UNL     1       8.600  -1.383  23.348  0.00  0.00    +0.178 C 
ATOM     35  C   UNL     1       9.719  -0.745  22.532  0.00  0.00    +0.178 C 
ATOM     36  C   UNL     1       9.299   0.724  22.356  0.00  0.00    +0.195 C 
ATOM     37  C   UNL     1       7.959   0.819  23.092  0.00  0.00    +0.253 C 
ATOM     38  O   UNL     1       7.923  -0.304  24.000  0.00  0.00    -0.346 OA
BRANCH  37  39
ATOM     39  N   UNL     1       7.662   2.010  23.865  0.00  0.00    -0.286 N 
ATOM     40  C   UNL     1       6.689   2.957  23.671  0.00  0.00    +0.167 A 
ATOM     41  C   UNL     1       6.800   3.806  24.771  0.00  0.00    +0.147 A 
ATOM     42  C   UNL     1       5.920   4.908  24.843  0.00  0.00    +0.147 A 
ATOM     43  N   UNL     1       5.045   5.081  23.834  0.00  0.00    -0.219 NA
ATOM     44  C   UNL     1       5.033   4.174  22.827  0.00  0.00    +0.225 A 
ATOM     45  N   UNL     1       7.799   3.389  25.623  0.00  0.00    -0.231 NA
ATOM     46  N   UNL     1       5.810   3.073  22.661  0.00  0.00    -0.216 NA
ATOM     47  C   UNL     1       8.275   2.303  25.062  0.00  0.00    +0.203 A 
BRANCH  42  48
ATOM     48  N   UNL     1       5.946   5.808  25.890  0.00  0.00    -0.341 N 
ATOM     49  H   UNL     1       6.863   5.917  26.295  0.00  0.00    +0.144 HD
ATOM     50  H   UNL     1       5.162   5.702  26.534  0.00  0.00    +0.144 HD
ENDBRANCH  42  48
ENDBRANCH  37  39
BRANCH  35  51
ATOM     51  O   UNL     1       9.869  -1.438  21.296  0.00  0.00    -0.386 OA
ATOM     52  H   UNL     1      10.015  -2.379  21.529  0.00  0.00    +0.210 HD
ENDBRANCH  35  51
BRANCH  36  53
ATOM     53  O   UNL     1       9.196   1.037  20.960  0.00  0.00    -0.385 OA
ATOM     54  H   UNL     1      10.077   1.359  20.678  0.00  0.00    +0.210 HD
ENDBRANCH  36  53
ENDBRANCH  33  34
ENDBRANCH  32  33
ENDBRANCH  28  32
ENDBRANCH   1  28
TORSDOF 18
ENDMDL
