MODEL 1
REMARK VINA RESULT:      -5.7      0.000      0.000
REMARK  Name = 
REMARK  6 active torsions:
REMARK  status: ('A' for Active; 'I' for Inactive)
REMARK    1  A    between atoms: C_5  and  C_7
REMARK    2  A    between atoms: C_7  and  C_8
REMARK    3  A    between atoms: C_8  and  C_9
REMARK    4  A    between atoms: C_9  and  C_10
REMARK    5  A    between atoms: C_10  and  C_11
REMARK    6  A    between atoms: C_11  and  O_12
REMARK                            x       y       z     vdW  Elec       q    Type
REMARK                         _______ _______ _______ _____ _____    ______ ____
ROOT
ATOM      1  C   UNL     1      10.209   2.239  22.631  0.00  0.00    +0.105 C 
ATOM      2  N   UNL     1       8.970   2.966  22.797  0.00  0.00    -0.294 N 
ATOM      3  H   UNL     1       8.854   3.867  23.241  0.00  0.00    +0.151 HD
ATOM      4  C   UNL     1       8.044   2.541  21.857  0.00  0.00    +0.300 C 
ATOM      5  O   UNL     1       6.973   3.062  21.617  0.00  0.00    -0.253 OA
ATOM      6  N   UNL     1       8.559   1.414  21.240  0.00  0.00    -0.294 N 
ATOM      7  H   UNL     1       7.981   0.877  20.606  0.00  0.00    +0.151 HD
ATOM      8  C   UNL     1       9.746   0.954  21.933  0.00  0.00    +0.108 C 
ATOM      9  C   UNL     1       9.397  -0.114  23.001  0.00  0.00    +0.069 C 
ATOM     10  S   UNL     1      10.061   0.479  24.602  0.00  0.00    -0.154 S 
ATOM     11  C   UNL     1      10.952   1.883  23.901  0.00  0.00    +0.093 C 
ENDROOT
BRANCH   9  12
ATOM     12  C   UNL     1      10.013  -1.465  22.612  0.00  0.00    +0.016 C 
BRANCH  12  13
ATOM     13  C   UNL     1       9.961  -2.535  23.711  0.00  0.00    +0.002 C 
BRANCH  13  14
ATOM     14  C   UNL     1       8.552  -3.102  23.919  0.00  0.00    +0.011 C 
BRANCH  14  15
ATOM     15  C   UNL     1       8.560  -4.571  24.343  0.00  0.00    +0.120 C 
BRANCH  15  16
ATOM     16  C   UNL     1       9.348  -4.809  25.606  0.00  0.00    +0.305 C 
ATOM     17  O   UNL     1       9.023  -4.369  26.699  0.00  0.00    -0.251 OA
BRANCH  16  18
ATOM     18  O   UNL     1      10.440  -5.584  25.429  0.00  0.00    -0.481 OA
ATOM     19  H   UNL     1      10.507  -5.977  24.538  0.00  0.00    +0.295 HD
ENDBRANCH  16  18
ENDBRANCH  15  16
ENDBRANCH  14  15
ENDBRANCH  13  14
ENDBRANCH  12  13
ENDBRANCH   9  12
TORSDOF 6
ENDMDL
MODEL 2
REMARK VINA RESULT:      -5.6      1.788      2.255
REMARK  Name = 
REMARK  6 active torsions:
REMARK  status: ('A' for Active; 'I' for Inactive)
REMARK    1  A    between atoms: C_5  and  C_7
REMARK    2  A    between atoms: C_7  and  C_8
REMARK    3  A    between atoms: C_8  and  C_9
REMARK    4  A    between atoms: C_9  and  C_10
REMARK    5  A    between atoms: C_10  and  C_11
REMARK    6  A    between atoms: C_11  and  O_12
REMARK                            x       y       z     vdW  Elec       q    Type
REMARK                         _______ _______ _______ _____ _____    ______ ____
ROOT
ATOM      1  C   UNL     1       9.144   1.320  22.106  0.00  0.00    +0.105 C 
ATOM      2  N   UNL     1      10.277   2.203  21.943  0.00  0.00    -0.294 N 
ATOM      3  H   UNL     1      10.592   2.629  21.082  0.00  0.00    +0.151 HD
ATOM      4  C   UNL     1      10.589   2.798  23.156  0.00  0.00    +0.300 C 
ATOM      5  O   UNL     1      11.373   3.711  23.327  0.00  0.00    -0.253 OA
ATOM      6  N   UNL     1       9.849   2.164  24.137  0.00  0.00    -0.294 N 
ATOM      7  H   UNL     1      10.023   2.368  25.113  0.00  0.00    +0.151 HD
ATOM      8  C   UNL     1       9.200   0.984  23.602  0.00  0.00    +0.108 C 
ATOM      9  C   UNL     1      10.070  -0.282  23.812  0.00  0.00    +0.069 C 
ATOM     10  S   UNL     1      10.321  -1.050  22.167  0.00  0.00    -0.154 S 
ATOM     11  C   UNL     1       9.173   0.038  21.300  0.00  0.00    +0.093 C 
ENDROOT
BRANCH   9  12
ATOM     12  C   UNL     1       9.365  -1.249  24.772  0.00  0.00    +0.016 C 
BRANCH  12  13
ATOM     13  C   UNL     1       9.351  -2.714  24.315  0.00  0.00    +0.002 C 
BRANCH  13  14
ATOM     14  C   UNL     1       7.947  -3.329  24.342  0.00  0.00    +0.011 C 
BRANCH  14  15
ATOM     15  C   UNL     1       7.961  -4.825  24.658  0.00  0.00    +0.120 C 
BRANCH  15  16
ATOM     16  C   UNL     1       8.772  -5.154  25.886  0.00  0.00    +0.305 C 
ATOM     17  O   UNL     1       8.457  -4.812  27.016  0.00  0.00    -0.251 OA
BRANCH  16  18
ATOM     18  O   UNL     1       9.872  -5.894  25.630  0.00  0.00    -0.481 OA
ATOM     19  H   UNL     1      10.340  -5.639  24.812  0.00  0.00    +0.295 HD
ENDBRANCH  16  18
ENDBRANCH  15  16
ENDBRANCH  14  15
ENDBRANCH  13  14
ENDBRANCH  12  13
ENDBRANCH   9  12
TORSDOF 6
ENDMDL
MODEL 3
REMARK VINA RESULT:      -5.6      3.513      6.809
REMARK  Name = 
REMARK  6 active torsions:
REMARK  status: ('A' for Active; 'I' for Inactive)
REMARK    1  A    between atoms: C_5  and  C_7
REMARK    2  A    between atoms: C_7  and  C_8
REMARK    3  A    between atoms: C_8  and  C_9
REMARK    4  A    between atoms: C_9  and  C_10
REMARK    5  A    between atoms: C_10  and  C_11
REMARK    6  A    between atoms: C_11  and  O_12
REMARK                            x       y       z     vdW  Elec       q    Type
REMARK                         _______ _______ _______ _____ _____    ______ ____
ROOT
ATOM      1  C   UNL     1       8.125  -5.059  24.357  0.00  0.00    +0.105 C 
ATOM      2  N   UNL     1       7.270  -5.500  25.435  0.00  0.00    -0.294 N 
ATOM      3  H   UNL     1       6.528  -6.184  25.377  0.00  0.00    +0.151 HD
ATOM      4  C   UNL     1       7.886  -5.260  26.654  0.00  0.00    +0.300 C 
ATOM      5  O   UNL     1       7.512  -5.662  27.739  0.00  0.00    -0.253 OA
ATOM      6  N   UNL     1       9.002  -4.479  26.414  0.00  0.00    -0.294 N 
ATOM      7  H   UNL     1       9.523  -4.089  27.189  0.00  0.00    +0.151 HD
ATOM      8  C   UNL     1       9.006  -4.008  25.043  0.00  0.00    +0.108 C 
ATOM      9  C   UNL     1       8.334  -2.616  24.923  0.00  0.00    +0.069 C 
ATOM     10  S   UNL     1       6.993  -2.764  23.683  0.00  0.00    -0.154 S 
ATOM     11  C   UNL     1       7.432  -4.435  23.164  0.00  0.00    +0.093 C 
ENDROOT
BRANCH   9  12
ATOM     12  C   UNL     1       9.370  -1.568  24.496  0.00  0.00    +0.016 C 
BRANCH  12  13
ATOM     13  C   UNL     1      10.169  -1.930  23.237  0.00  0.00    +0.002 C 
BRANCH  13  14
ATOM     14  C   UNL     1      10.006  -0.897  22.115  0.00  0.00    +0.011 C 
BRANCH  14  15
ATOM     15  C   UNL     1       9.215   0.335  22.554  0.00  0.00    +0.120 C 
BRANCH  15  16
ATOM     16  C   UNL     1      10.074   1.569  22.668  0.00  0.00    +0.305 C 
ATOM     17  O   UNL     1      10.685   1.877  23.681  0.00  0.00    -0.251 OA
BRANCH  16  18
ATOM     18  O   UNL     1      10.134   2.298  21.532  0.00  0.00    -0.481 OA
ATOM     19  H   UNL     1       9.266   2.449  21.112  0.00  0.00    +0.295 HD
ENDBRANCH  16  18
ENDBRANCH  15  16
ENDBRANCH  14  15
ENDBRANCH  13  14
ENDBRANCH  12  13
ENDBRANCH   9  12
TORSDOF 6
ENDMDL
MODEL 4
REMARK VINA RESULT:      -5.5      2.493      3.164
REMARK  Name = 
REMARK  6 active torsions:
REMARK  status: ('A' for Active; 'I' for Inactive)
REMARK    1  A    between atoms: C_5  and  C_7
REMARK    2  A    between atoms: C_7  and  C_8
REMARK    3  A    between atoms: C_8  and  C_9
REMARK    4  A    between atoms: C_9  and  C_10
REMARK    5  A    between atoms: C_10  and  C_11
REMARK    6  A    between atoms: C_11  and  O_12
REMARK                            x       y       z     vdW  Elec       q    Type
REMARK                         _______ _______ _______ _____ _____    ______ ____
ROOT
ATOM      1  C   UNL     1       9.393  -0.922  25.505  0.00  0.00    +0.105 C 
ATOM      2  N   UNL     1       9.603   0.505  25.410  0.00  0.00    -0.294 N 
ATOM      3  H   UNL     1       9.536   1.177  26.162  0.00  0.00    +0.151 HD
ATOM      4  C   UNL     1      10.385   0.794  24.301  0.00  0.00    +0.300 C 
ATOM      5  O   UNL     1      10.881   1.870  24.033  0.00  0.00    -0.253 OA
ATOM      6  N   UNL     1      10.498  -0.365  23.554  0.00  0.00    -0.294 N 
ATOM      7  H   UNL     1      10.928  -0.336  22.639  0.00  0.00    +0.151 HD
ATOM      8  C   UNL     1       9.597  -1.383  24.056  0.00  0.00    +0.108 C 
ATOM      9  C   UNL     1       8.237  -1.350  23.311  0.00  0.00    +0.069 C 
ATOM     10  S   UNL     1       6.926  -1.161  24.577  0.00  0.00    -0.154 S 
ATOM     11  C   UNL     1       8.029  -1.368  25.990  0.00  0.00    +0.093 C 
ENDROOT
BRANCH   9  12
ATOM     12  C   UNL     1       8.049  -2.644  22.508  0.00  0.00    +0.016 C 
BRANCH  12  13
ATOM     13  C   UNL     1       7.070  -3.649  23.129  0.00  0.00    +0.002 C 
BRANCH  13  14
ATOM     14  C   UNL     1       7.762  -4.932  23.606  0.00  0.00    +0.011 C 
BRANCH  14  15
ATOM     15  C   UNL     1       7.865  -5.020  25.129  0.00  0.00    +0.120 C 
BRANCH  15  16
ATOM     16  C   UNL     1       9.280  -4.876  25.627  0.00  0.00    +0.305 C 
ATOM     17  O   UNL     1      10.254  -4.810  24.891  0.00  0.00    -0.251 OA
BRANCH  16  18
ATOM     18  O   UNL     1       9.379  -4.797  26.972  0.00  0.00    -0.481 OA
ATOM     19  H   UNL     1       9.494  -3.887  27.307  0.00  0.00    +0.295 HD
ENDBRANCH  16  18
ENDBRANCH  15  16
ENDBRANCH  14  15
ENDBRANCH  13  14
ENDBRANCH  12  13
ENDBRANCH   9  12
TORSDOF 6
ENDMDL
MODEL 5
REMARK VINA RESULT:      -5.3      3.529      6.335
REMARK  Name = 
REMARK  6 active torsions:
REMARK  status: ('A' for Active; 'I' for Inactive)
REMARK    1  A    between atoms: C_5  and  C_7
REMARK    2  A    between atoms: C_7  and  C_8
REMARK    3  A    between atoms: C_8  and  C_9
REMARK    4  A    between atoms: C_9  and  C_10
REMARK    5  A    between atoms: C_10  and  C_11
REMARK    6  A    between atoms: C_11  and  O_12
REMARK                            x       y       z     vdW  Elec       q    Type
REMARK                         _______ _______ _______ _____ _____    ______ ____
ROOT
ATOM      1  C   UNL     1       6.642  -4.142  24.327  0.00  0.00    +0.105 C 
ATOM      2  N   UNL     1       6.631  -5.386  23.592  0.00  0.00    -0.294 N 
ATOM      3  H   UNL     1       6.196  -6.253  23.877  0.00  0.00    +0.151 HD
ATOM      4  C   UNL     1       6.849  -5.140  22.245  0.00  0.00    +0.300 C 
ATOM      5  O   UNL     1       6.733  -5.944  21.340  0.00  0.00    -0.253 OA
ATOM      6  N   UNL     1       7.223  -3.814  22.115  0.00  0.00    -0.294 N 
ATOM      7  H   UNL     1       7.547  -3.466  21.222  0.00  0.00    +0.151 HD
ATOM      8  C   UNL     1       7.472  -3.228  23.417  0.00  0.00    +0.108 C 
ATOM      9  C   UNL     1       8.969  -3.337  23.807  0.00  0.00    +0.069 C 
ATOM     10  S   UNL     1       9.050  -4.192  25.425  0.00  0.00    -0.154 S 
ATOM     11  C   UNL     1       7.267  -4.183  25.706  0.00  0.00    +0.093 C 
ENDROOT
BRANCH   9  12
ATOM     12  C   UNL     1       9.592  -1.937  23.889  0.00  0.00    +0.016 C 
BRANCH  12  13
ATOM     13  C   UNL     1      10.369  -1.505  22.638  0.00  0.00    +0.002 C 
BRANCH  13  14
ATOM     14  C   UNL     1       9.530  -0.641  21.689  0.00  0.00    +0.011 C 
BRANCH  14  15
ATOM     15  C   UNL     1       8.942   0.593  22.373  0.00  0.00    +0.120 C 
BRANCH  15  16
ATOM     16  C   UNL     1       9.979   1.648  22.664  0.00  0.00    +0.305 C 
ATOM     17  O   UNL     1      10.476   1.823  23.767  0.00  0.00    -0.251 OA
BRANCH  16  18
ATOM     18  O   UNL     1      10.338   2.372  21.581  0.00  0.00    -0.481 OA
ATOM     19  H   UNL     1       9.932   3.258  21.544  0.00  0.00    +0.295 HD
ENDBRANCH  16  18
ENDBRANCH  15  16
ENDBRANCH  14  15
ENDBRANCH  13  14
ENDBRANCH  12  13
ENDBRANCH   9  12
TORSDOF 6
ENDMDL
MODEL 6
REMARK VINA RESULT:      -5.2      3.611      6.549
REMARK  Name = 
REMARK  6 active torsions:
REMARK  status: ('A' for Active; 'I' for Inactive)
REMARK    1  A    between atoms: C_5  and  C_7
REMARK    2  A    between atoms: C_7  and  C_8
REMARK    3  A    between atoms: C_8  and  C_9
REMARK    4  A    between atoms: C_9  and  C_10
REMARK    5  A    between atoms: C_10  and  C_11
REMARK    6  A    between atoms: C_11  and  O_12
REMARK                            x       y       z     vdW  Elec       q    Type
REMARK                         _______ _______ _______ _____ _____    ______ ____
ROOT
ATOM      1  C   UNL     1       6.495  -3.226  25.890  0.00  0.00    +0.105 C 
ATOM      2  N   UNL     1       6.637  -3.918  27.152  0.00  0.00    -0.294 N 
ATOM      3  H   UNL     1       6.047  -3.815  27.967  0.00  0.00    +0.151 HD
ATOM      4  C   UNL     1       7.355  -5.090  26.970  0.00  0.00    +0.300 C 
ATOM      5  O   UNL     1       7.504  -5.976  27.788  0.00  0.00    -0.253 OA
ATOM      6  N   UNL     1       7.874  -5.068  25.687  0.00  0.00    -0.294 N 
ATOM      7  H   UNL     1       8.534  -5.779  25.398  0.00  0.00    +0.151 HD
ATOM      8  C   UNL     1       7.683  -3.765  25.084  0.00  0.00    +0.108 C 
ATOM      9  C   UNL     1       8.915  -2.851  25.313  0.00  0.00    +0.069 C 
ATOM     10  S   UNL     1       8.316  -1.320  26.120  0.00  0.00    -0.154 S 
ATOM     11  C   UNL     1       6.564  -1.715  25.943  0.00  0.00    +0.093 C 
ENDROOT
BRANCH   9  12
ATOM     12  C   UNL     1       9.594  -2.542  23.972  0.00  0.00    +0.016 C 
BRANCH  12  13
ATOM     13  C   UNL     1       8.637  -2.421  22.779  0.00  0.00    +0.002 C 
BRANCH  13  14
ATOM     14  C   UNL     1       8.288  -0.965  22.446  0.00  0.00    +0.011 C 
BRANCH  14  15
ATOM     15  C   UNL     1       9.333  -0.293  21.556  0.00  0.00    +0.120 C 
BRANCH  15  16
ATOM     16  C   UNL     1       9.981   0.898  22.214  0.00  0.00    +0.305 C 
ATOM     17  O   UNL     1      10.521   0.856  23.310  0.00  0.00    -0.251 OA
BRANCH  16  18
ATOM     18  O   UNL     1       9.940   2.023  21.468  0.00  0.00    -0.481 OA
ATOM     19  H   UNL     1       9.338   1.968  20.701  0.00  0.00    +0.295 HD
ENDBRANCH  16  18
ENDBRANCH  15  16
ENDBRANCH  14  15
ENDBRANCH  13  14
ENDBRANCH  12  13
ENDBRANCH   9  12
TORSDOF 6
ENDMDL
MODEL 7
REMARK VINA RESULT:      -5.2      3.059      5.762
REMARK  Name = 
REMARK  6 active torsions:
REMARK  status: ('A' for Active; 'I' for Inactive)
REMARK    1  A    between atoms: C_5  and  C_7
REMARK    2  A    between atoms: C_7  and  C_8
REMARK    3  A    between atoms: C_8  and  C_9
REMARK    4  A    between atoms: C_9  and  C_10
REMARK    5  A    between atoms: C_10  and  C_11
REMARK    6  A    between atoms: C_11  and  O_12
REMARK                            x       y       z     vdW  Elec       q    Type
REMARK                         _______ _______ _______ _____ _____    ______ ____
ROOT
ATOM      1  C   UNL     1       9.025  -3.017  24.798  0.00  0.00    +0.105 C 
ATOM      2  N   UNL     1       8.194  -2.511  25.867  0.00  0.00    -0.294 N 
ATOM      3  H   UNL     1       7.640  -3.057  26.513  0.00  0.00    +0.151 HD
ATOM      4  C   UNL     1       8.616  -1.241  26.232  0.00  0.00    +0.300 C 
ATOM      5  O   UNL     1       8.243  -0.611  27.201  0.00  0.00    -0.253 OA
ATOM      6  N   UNL     1       9.539  -0.820  25.291  0.00  0.00    -0.294 N 
ATOM      7  H   UNL     1       9.878   0.134  25.307  0.00  0.00    +0.151 HD
ATOM      8  C   UNL     1       9.567  -1.731  24.164  0.00  0.00    +0.108 C 
ATOM      9  C   UNL     1       8.606  -1.267  23.040  0.00  0.00    +0.069 C 
ATOM     10  S   UNL     1       7.463  -2.657  22.693  0.00  0.00    -0.154 S 
ATOM     11  C   UNL     1       8.325  -3.845  23.741  0.00  0.00    +0.093 C 
ENDROOT
BRANCH   9  12
ATOM     12  C   UNL     1       9.408  -0.884  21.789  0.00  0.00    +0.016 C 
BRANCH  12  13
ATOM     13  C   UNL     1       9.443   0.619  21.483  0.00  0.00    +0.002 C 
BRANCH  13  14
ATOM     14  C   UNL     1       8.274   1.380  22.121  0.00  0.00    +0.011 C 
BRANCH  14  15
ATOM     15  C   UNL     1       8.695   2.723  22.718  0.00  0.00    +0.120 C 
BRANCH  15  16
ATOM     16  C   UNL     1       9.815   2.590  23.719  0.00  0.00    +0.305 C 
ATOM     17  O   UNL     1      10.940   3.030  23.538  0.00  0.00    -0.251 OA
BRANCH  16  18
ATOM     18  O   UNL     1       9.454   1.962  24.859  0.00  0.00    -0.481 OA
ATOM     19  H   UNL     1       9.383   2.554  25.632  0.00  0.00    +0.295 HD
ENDBRANCH  16  18
ENDBRANCH  15  16
ENDBRANCH  14  15
ENDBRANCH  13  14
ENDBRANCH  12  13
ENDBRANCH   9  12
TORSDOF 6
ENDMDL
MODEL 8
REMARK VINA RESULT:      -5.1      2.775      3.309
REMARK  Name = 
REMARK  6 active torsions:
REMARK  status: ('A' for Active; 'I' for Inactive)
REMARK    1  A    between atoms: C_5  and  C_7
REMARK    2  A    between atoms: C_7  and  C_8
REMARK    3  A    between atoms: C_8  and  C_9
REMARK    4  A    between atoms: C_9  and  C_10
REMARK    5  A    between atoms: C_10  and  C_11
REMARK    6  A    between atoms: C_11  and  O_12
REMARK                            x       y       z     vdW  Elec       q    Type
REMARK                         _______ _______ _______ _____ _____    ______ ____
ROOT
ATOM      1  C   UNL     1       9.180   1.355  22.067  0.00  0.00    +0.105 C 
ATOM      2  N   UNL     1      10.314   2.244  21.952  0.00  0.00    -0.294 N 
ATOM      3  H   UNL     1      10.673   2.659  21.103  0.00  0.00    +0.151 HD
ATOM      4  C   UNL     1      10.557   2.859  23.171  0.00  0.00    +0.300 C 
ATOM      5  O   UNL     1      11.324   3.780  23.370  0.00  0.00    -0.253 OA
ATOM      6  N   UNL     1       9.768   2.234  24.120  0.00  0.00    -0.294 N 
ATOM      7  H   UNL     1       9.888   2.454  25.101  0.00  0.00    +0.151 HD
ATOM      8  C   UNL     1       9.157   1.042  23.568  0.00  0.00    +0.108 C 
ATOM      9  C   UNL     1      10.021  -0.215  23.845  0.00  0.00    +0.069 C 
ATOM     10  S   UNL     1      10.367  -1.005  22.228  0.00  0.00    -0.154 S 
ATOM     11  C   UNL     1       9.260   0.062  21.283  0.00  0.00    +0.093 C 
ENDROOT
BRANCH   9  12
ATOM     12  C   UNL     1       9.271  -1.172  24.780  0.00  0.00    +0.016 C 
BRANCH  12  13
ATOM     13  C   UNL     1       7.810  -1.437  24.391  0.00  0.00    +0.002 C 
BRANCH  13  14
ATOM     14  C   UNL     1       7.574  -2.879  23.925  0.00  0.00    +0.011 C 
BRANCH  14  15
ATOM     15  C   UNL     1       7.192  -2.969  22.447  0.00  0.00    +0.120 C 
BRANCH  15  16
ATOM     16  C   UNL     1       6.751  -4.352  22.042  0.00  0.00    +0.305 C 
ATOM     17  O   UNL     1       7.182  -5.376  22.552  0.00  0.00    -0.251 OA
BRANCH  16  18
ATOM     18  O   UNL     1       5.805  -4.362  21.078  0.00  0.00    -0.481 OA
ATOM     19  H   UNL     1       4.893  -4.427  21.419  0.00  0.00    +0.295 HD
ENDBRANCH  16  18
ENDBRANCH  15  16
ENDBRANCH  14  15
ENDBRANCH  13  14
ENDBRANCH  12  13
ENDBRANCH   9  12
TORSDOF 6
ENDMDL
MODEL 9
REMARK VINA RESULT:      -5.0      2.511      2.693
REMARK  Name = 
REMARK  6 active torsions:
REMARK  status: ('A' for Active; 'I' for Inactive)
REMARK    1  A    between atoms: C_5  and  C_7
REMARK    2  A    between atoms: C_7  and  C_8
REMARK    3  A    between atoms: C_8  and  C_9
REMARK    4  A    between atoms: C_9  and  C_10
REMARK    5  A    between atoms: C_10  and  C_11
REMARK    6  A    between atoms: C_11  and  O_12
REMARK                            x       y       z     vdW  Elec       q    Type
REMARK                         _______ _______ _______ _____ _____    ______ ____
ROOT
ATOM      1  C   UNL     1      10.198   1.206  22.988  0.00  0.00    +0.105 C 
ATOM      2  N   UNL     1       9.310   2.324  23.215  0.00  0.00    -0.294 N 
ATOM      3  H   UNL     1       9.471   3.107  23.834  0.00  0.00    +0.151 HD
ATOM      4  C   UNL     1       8.447   2.468  22.139  0.00  0.00    +0.300 C 
ATOM      5  O   UNL     1       7.697   3.403  21.940  0.00  0.00    -0.253 OA
ATOM      6  N   UNL     1       8.593   1.353  21.333  0.00  0.00    -0.294 N 
ATOM      7  H   UNL     1       7.961   1.204  20.557  0.00  0.00    +0.151 HD
ATOM      8  C   UNL     1       9.402   0.349  21.995  0.00  0.00    +0.108 C 
ATOM      9  C   UNL     1       8.522  -0.659  22.778  0.00  0.00    +0.069 C 
ATOM     10  S   UNL     1       9.107  -0.659  24.515  0.00  0.00    -0.154 S 
ATOM     11  C   UNL     1      10.552   0.374  24.203  0.00  0.00    +0.093 C 
ENDROOT
BRANCH   9  12
ATOM     12  C   UNL     1       8.642  -2.055  22.153  0.00  0.00    +0.016 C 
BRANCH  12  13
ATOM     13  C   UNL     1       7.420  -2.959  22.362  0.00  0.00    +0.002 C 
BRANCH  13  14
ATOM     14  C   UNL     1       7.708  -4.137  23.302  0.00  0.00    +0.011 C 
BRANCH  14  15
ATOM     15  C   UNL     1       7.466  -5.495  22.642  0.00  0.00    +0.120 C 
BRANCH  15  16
ATOM     16  C   UNL     1       6.002  -5.840  22.539  0.00  0.00    +0.305 C 
ATOM     17  O   UNL     1       5.195  -5.640  23.435  0.00  0.00    -0.251 OA
BRANCH  16  18
ATOM     18  O   UNL     1       5.649  -6.367  21.347  0.00  0.00    -0.481 OA
ATOM     19  H   UNL     1       5.061  -7.143  21.416  0.00  0.00    +0.295 HD
ENDBRANCH  16  18
ENDBRANCH  15  16
ENDBRANCH  14  15
ENDBRANCH  13  14
ENDBRANCH  12  13
ENDBRANCH   9  12
TORSDOF 6
ENDMDL
