MODEL 1
REMARK VINA RESULT:      -5.8      0.000      0.000
REMARK  Name = 
REMARK  4 active torsions:
REMARK  status: ('A' for Active; 'I' for Inactive)
REMARK    1  A    between atoms: C_2  and  N_12
REMARK    2  A    between atoms: C_8  and  O_9
REMARK    3  A    between atoms: N_12  and  C_13
REMARK    4  A    between atoms: C_13  and  C_14
REMARK                            x       y       z     vdW  Elec       q    Type
REMARK                         _______ _______ _______ _____ _____    ______ ____
ROOT
ATOM      1  C   UNL     1       9.955   2.407  23.103  0.00  0.00    +0.085 C 
ATOM      2  C   UNL     1      10.798   3.605  23.448  0.00  0.00    -0.024 A 
ATOM      3  C   UNL     1      10.019   4.696  23.832  0.00  0.00    -0.042 A 
ATOM      4  C   UNL     1      10.589   5.946  24.026  0.00  0.00    +0.007 A 
ATOM      5  C   UNL     1      11.963   6.101  23.808  0.00  0.00    +0.045 A 
ATOM      6  C   UNL     1      12.740   4.998  23.451  0.00  0.00    +0.117 A 
ATOM      7  C   UNL     1       8.573   4.329  23.913  0.00  0.00    +0.037 C 
ATOM      8  C   UNL     1      12.176   3.736  23.317  0.00  0.00    +0.050 A 
ATOM      9  C   UNL     1       8.607   2.800  23.755  0.00  0.00    +0.028 C 
ENDROOT
BRANCH   1  10
ATOM     10  N   UNL     1       9.790   2.220  21.654  0.00  0.00    -0.299 NA
ATOM     11  H   UNL     1      10.702   2.067  21.226  0.00  0.00    +0.123 HD
BRANCH  10  12
ATOM     12  C   UNL     1       8.937   1.078  21.353  0.00  0.00    +0.171 C 
BRANCH  12  13
ATOM     13  C   UNL     1       9.594  -0.221  21.791  0.00  0.00    -0.090 C 
ATOM     14  C   UNL     1      10.157  -1.336  22.167  0.00  0.00    +0.005 C 
ENDBRANCH  12  13
ENDBRANCH  10  12
ENDBRANCH   1  10
BRANCH   6  15
ATOM     15  O   UNL     1      14.070   5.121  23.172  0.00  0.00    -0.507 OA
ATOM     16  H   UNL     1      14.217   5.991  22.764  0.00  0.00    +0.292 HD
ENDBRANCH   6  15
TORSDOF 4
ENDMDL
MODEL 2
REMARK VINA RESULT:      -5.3      3.398      5.288
REMARK  Name = 
REMARK  4 active torsions:
REMARK  status: ('A' for Active; 'I' for Inactive)
REMARK    1  A    between atoms: C_2  and  N_12
REMARK    2  A    between atoms: C_8  and  O_9
REMARK    3  A    between atoms: N_12  and  C_13
REMARK    4  A    between atoms: C_13  and  C_14
REMARK                            x       y       z     vdW  Elec       q    Type
REMARK                         _______ _______ _______ _____ _____    ______ ____
ROOT
ATOM      1  C   UNL     1       8.985  -2.389  22.703  0.00  0.00    +0.085 C 
ATOM      2  C   UNL     1       9.511  -1.001  22.953  0.00  0.00    -0.024 A 
ATOM      3  C   UNL     1       9.571  -0.705  24.314  0.00  0.00    -0.042 A 
ATOM      4  C   UNL     1       9.866   0.578  24.753  0.00  0.00    +0.007 A 
ATOM      5  C   UNL     1      10.081   1.582  23.802  0.00  0.00    +0.045 A 
ATOM      6  C   UNL     1      10.047   1.271  22.442  0.00  0.00    +0.117 A 
ATOM      7  C   UNL     1       9.214  -1.895  25.146  0.00  0.00    +0.037 C 
ATOM      8  C   UNL     1       9.812  -0.027  22.008  0.00  0.00    +0.050 A 
ATOM      9  C   UNL     1       9.159  -3.025  24.104  0.00  0.00    +0.028 C 
ENDROOT
BRANCH   1  10
ATOM     10  N   UNL     1       7.570  -2.403  22.304  0.00  0.00    -0.299 NA
ATOM     11  H   UNL     1       7.505  -2.502  21.293  0.00  0.00    +0.123 HD
BRANCH  10  12
ATOM     12  C   UNL     1       6.847  -3.502  22.929  0.00  0.00    +0.171 C 
BRANCH  12  13
ATOM     13  C   UNL     1       6.649  -4.648  21.950  0.00  0.00    -0.090 C 
ATOM     14  C   UNL     1       6.479  -5.632  21.110  0.00  0.00    +0.005 C 
ENDBRANCH  12  13
ENDBRANCH  10  12
ENDBRANCH   1  10
BRANCH   6  15
ATOM     15  O   UNL     1      10.193   2.233  21.485  0.00  0.00    -0.507 OA
ATOM     16  H   UNL     1       9.309   2.507  21.190  0.00  0.00    +0.292 HD
ENDBRANCH   6  15
TORSDOF 4
ENDMDL
MODEL 3
REMARK VINA RESULT:      -5.2      4.783      8.200
REMARK  Name = 
REMARK  4 active torsions:
REMARK  status: ('A' for Active; 'I' for Inactive)
REMARK    1  A    between atoms: C_2  and  N_12
REMARK    2  A    between atoms: C_8  and  O_9
REMARK    3  A    between atoms: N_12  and  C_13
REMARK    4  A    between atoms: C_13  and  C_14
REMARK                            x       y       z     vdW  Elec       q    Type
REMARK                         _______ _______ _______ _____ _____    ______ ____
ROOT
ATOM      1  C   UNL     1       8.688  -1.666  23.013  0.00  0.00    +0.085 C 
ATOM      2  C   UNL     1       7.942  -2.967  22.886  0.00  0.00    -0.024 A 
ATOM      3  C   UNL     1       8.426  -3.932  23.768  0.00  0.00    -0.042 A 
ATOM      4  C   UNL     1       7.992  -5.248  23.694  0.00  0.00    +0.007 A 
ATOM      5  C   UNL     1       7.071  -5.598  22.700  0.00  0.00    +0.045 A 
ATOM      6  C   UNL     1       6.570  -4.620  21.840  0.00  0.00    +0.117 A 
ATOM      7  C   UNL     1       9.467  -3.364  24.678  0.00  0.00    +0.037 C 
ATOM      8  C   UNL     1       6.961  -3.293  21.956  0.00  0.00    +0.050 A 
ATOM      9  C   UNL     1       9.378  -1.856  24.386  0.00  0.00    +0.028 C 
ENDROOT
BRANCH   1  10
ATOM     10  N   UNL     1       9.691  -1.474  21.955  0.00  0.00    -0.299 NA
ATOM     11  H   UNL     1       9.694  -2.286  21.340  0.00  0.00    +0.123 HD
BRANCH  10  12
ATOM     12  C   UNL     1       9.412  -0.286  21.159  0.00  0.00    +0.171 C 
BRANCH  12  13
ATOM     13  C   UNL     1       9.803   0.976  21.911  0.00  0.00    -0.090 C 
ATOM     14  C   UNL     1      10.139   2.058  22.556  0.00  0.00    +0.005 C 
ENDBRANCH  12  13
ENDBRANCH  10  12
ENDBRANCH   1  10
BRANCH   6  15
ATOM     15  O   UNL     1       5.717  -4.933  20.821  0.00  0.00    -0.507 OA
ATOM     16  H   UNL     1       5.972  -4.416  20.039  0.00  0.00    +0.292 HD
ENDBRANCH   6  15
TORSDOF 4
ENDMDL
MODEL 4
REMARK VINA RESULT:      -5.1      3.671      5.525
REMARK  Name = 
REMARK  4 active torsions:
REMARK  status: ('A' for Active; 'I' for Inactive)
REMARK    1  A    between atoms: C_2  and  N_12
REMARK    2  A    between atoms: C_8  and  O_9
REMARK    3  A    between atoms: N_12  and  C_13
REMARK    4  A    between atoms: C_13  and  C_14
REMARK                            x       y       z     vdW  Elec       q    Type
REMARK                         _______ _______ _______ _____ _____    ______ ____
ROOT
ATOM      1  C   UNL     1       8.338  -2.282  22.565  0.00  0.00    +0.085 C 
ATOM      2  C   UNL     1       9.179  -1.053  22.788  0.00  0.00    -0.024 A 
ATOM      3  C   UNL     1       9.654  -0.980  24.097  0.00  0.00    -0.042 A 
ATOM      4  C   UNL     1      10.305   0.157  24.556  0.00  0.00    +0.007 A 
ATOM      5  C   UNL     1      10.459   1.242  23.686  0.00  0.00    +0.045 A 
ATOM      6  C   UNL     1      10.007   1.149  22.370  0.00  0.00    +0.117 A 
ATOM      7  C   UNL     1       9.297  -2.205  24.875  0.00  0.00    +0.037 C 
ATOM      8  C   UNL     1       9.410  -0.012  21.896  0.00  0.00    +0.050 A 
ATOM      9  C   UNL     1       8.744  -3.141  23.787  0.00  0.00    +0.028 C 
ENDROOT
BRANCH   1  10
ATOM     10  N   UNL     1       6.895  -2.001  22.589  0.00  0.00    -0.299 NA
ATOM     11  H   UNL     1       6.703  -1.168  22.036  0.00  0.00    +0.123 HD
BRANCH  10  12
ATOM     12  C   UNL     1       6.123  -3.111  22.047  0.00  0.00    +0.171 C 
BRANCH  12  13
ATOM     13  C   UNL     1       5.106  -3.612  23.060  0.00  0.00    -0.090 C 
ATOM     14  C   UNL     1       4.234  -4.042  23.929  0.00  0.00    +0.005 C 
ENDBRANCH  12  13
ENDBRANCH  10  12
ENDBRANCH   1  10
BRANCH   6  15
ATOM     15  O   UNL     1      10.085   2.206  21.510  0.00  0.00    -0.507 OA
ATOM     16  H   UNL     1      10.972   2.595  21.584  0.00  0.00    +0.292 HD
ENDBRANCH   6  15
TORSDOF 4
ENDMDL
MODEL 5
REMARK VINA RESULT:      -5.1      4.860      8.123
REMARK  Name = 
REMARK  4 active torsions:
REMARK  status: ('A' for Active; 'I' for Inactive)
REMARK    1  A    between atoms: C_2  and  N_12
REMARK    2  A    between atoms: C_8  and  O_9
REMARK    3  A    between atoms: N_12  and  C_13
REMARK    4  A    between atoms: C_13  and  C_14
REMARK                            x       y       z     vdW  Elec       q    Type
REMARK                         _______ _______ _______ _____ _____    ______ ____
ROOT
ATOM      1  C   UNL     1       9.825  -2.122  23.843  0.00  0.00    +0.085 C 
ATOM      2  C   UNL     1       9.007  -3.333  24.202  0.00  0.00    -0.024 A 
ATOM      3  C   UNL     1       7.884  -3.461  23.386  0.00  0.00    -0.042 A 
ATOM      4  C   UNL     1       6.909  -4.411  23.659  0.00  0.00    +0.007 A 
ATOM      5  C   UNL     1       7.061  -5.228  24.785  0.00  0.00    +0.045 A 
ATOM      6  C   UNL     1       8.203  -5.112  25.579  0.00  0.00    +0.117 A 
ATOM      7  C   UNL     1       7.876  -2.430  22.305  0.00  0.00    +0.037 C 
ATOM      8  C   UNL     1       9.204  -4.202  25.269  0.00  0.00    +0.050 A 
ATOM      9  C   UNL     1       9.276  -1.804  22.431  0.00  0.00    +0.028 C 
ENDROOT
BRANCH   1  10
ATOM     10  N   UNL     1       9.600  -0.987  24.751  0.00  0.00    -0.299 NA
ATOM     11  H   UNL     1       9.678  -1.305  25.715  0.00  0.00    +0.123 HD
BRANCH  10  12
ATOM     12  C   UNL     1      10.568   0.079  24.529  0.00  0.00    +0.171 C 
BRANCH  12  13
ATOM     13  C   UNL     1       9.877   1.430  24.440  0.00  0.00    -0.090 C 
ATOM     14  C   UNL     1       9.285   2.589  24.365  0.00  0.00    +0.005 C 
ENDBRANCH  12  13
ENDBRANCH  10  12
ENDBRANCH   1  10
BRANCH   6  15
ATOM     15  O   UNL     1       8.358  -5.848  26.718  0.00  0.00    -0.507 OA
ATOM     16  H   UNL     1       7.629  -5.634  27.323  0.00  0.00    +0.292 HD
ENDBRANCH   6  15
TORSDOF 4
ENDMDL
MODEL 6
REMARK VINA RESULT:      -5.0      5.290      8.400
REMARK  Name = 
REMARK  4 active torsions:
REMARK  status: ('A' for Active; 'I' for Inactive)
REMARK    1  A    between atoms: C_2  and  N_12
REMARK    2  A    between atoms: C_8  and  O_9
REMARK    3  A    between atoms: N_12  and  C_13
REMARK    4  A    between atoms: C_13  and  C_14
REMARK                            x       y       z     vdW  Elec       q    Type
REMARK                         _______ _______ _______ _____ _____    ______ ____
ROOT
ATOM      1  C   UNL     1       7.392  -3.110  22.416  0.00  0.00    +0.085 C 
ATOM      2  C   UNL     1       7.521  -4.019  23.608  0.00  0.00    -0.024 A 
ATOM      3  C   UNL     1       6.327  -4.114  24.321  0.00  0.00    -0.042 A 
ATOM      4  C   UNL     1       6.277  -4.764  25.546  0.00  0.00    +0.007 A 
ATOM      5  C   UNL     1       7.456  -5.307  26.068  0.00  0.00    +0.045 A 
ATOM      6  C   UNL     1       8.642  -5.232  25.335  0.00  0.00    +0.117 A 
ATOM      7  C   UNL     1       5.221  -3.386  23.628  0.00  0.00    +0.037 C 
ATOM      8  C   UNL     1       8.674  -4.634  24.083  0.00  0.00    +0.050 A 
ATOM      9  C   UNL     1       5.853  -3.033  22.271  0.00  0.00    +0.028 C 
ENDROOT
BRANCH   1  10
ATOM     10  N   UNL     1       7.955  -1.773  22.650  0.00  0.00    -0.299 NA
ATOM     11  H   UNL     1       8.188  -1.671  23.636  0.00  0.00    +0.123 HD
BRANCH  10  12
ATOM     12  C   UNL     1       9.160  -1.550  21.861  0.00  0.00    +0.171 C 
BRANCH  12  13
ATOM     13  C   UNL     1       9.545  -0.080  21.860  0.00  0.00    -0.090 C 
ATOM     14  C   UNL     1       9.875   1.182  21.859  0.00  0.00    +0.005 C 
ENDBRANCH  12  13
ENDBRANCH  10  12
ENDBRANCH   1  10
BRANCH   6  15
ATOM     15  O   UNL     1       9.823  -5.696  25.838  0.00  0.00    -0.507 OA
ATOM     16  H   UNL     1      10.506  -5.023  25.683  0.00  0.00    +0.292 HD
ENDBRANCH   6  15
TORSDOF 4
ENDMDL
MODEL 7
REMARK VINA RESULT:      -5.0      3.355      5.625
REMARK  Name = 
REMARK  4 active torsions:
REMARK  status: ('A' for Active; 'I' for Inactive)
REMARK    1  A    between atoms: C_2  and  N_12
REMARK    2  A    between atoms: C_8  and  O_9
REMARK    3  A    between atoms: N_12  and  C_13
REMARK    4  A    between atoms: C_13  and  C_14
REMARK                            x       y       z     vdW  Elec       q    Type
REMARK                         _______ _______ _______ _____ _____    ______ ____
ROOT
ATOM      1  C   UNL     1      10.195   1.640  24.379  0.00  0.00    +0.085 C 
ATOM      2  C   UNL     1      10.094   0.334  23.637  0.00  0.00    -0.024 A 
ATOM      3  C   UNL     1       9.821   0.525  22.283  0.00  0.00    -0.042 A 
ATOM      4  C   UNL     1       9.521  -0.549  21.458  0.00  0.00    +0.007 A 
ATOM      5  C   UNL     1       9.475  -1.833  22.014  0.00  0.00    +0.045 A 
ATOM      6  C   UNL     1       9.777  -2.018  23.364  0.00  0.00    +0.117 A 
ATOM      7  C   UNL     1       9.830   1.976  21.926  0.00  0.00    +0.037 C 
ATOM      8  C   UNL     1      10.136  -0.948  24.172  0.00  0.00    +0.050 A 
ATOM      9  C   UNL     1      10.382   2.631  23.204  0.00  0.00    +0.028 C 
ENDROOT
BRANCH   1  10
ATOM     10  N   UNL     1       8.978   1.965  25.137  0.00  0.00    -0.299 NA
ATOM     11  H   UNL     1       9.164   1.871  26.133  0.00  0.00    +0.123 HD
BRANCH  10  12
ATOM     12  C   UNL     1       8.526   3.325  24.872  0.00  0.00    +0.171 C 
BRANCH  12  13
ATOM     13  C   UNL     1       7.115   3.329  24.308  0.00  0.00    -0.090 C 
ATOM     14  C   UNL     1       5.903   3.332  23.825  0.00  0.00    +0.005 C 
ENDBRANCH  12  13
ENDBRANCH  10  12
ENDBRANCH   1  10
BRANCH   6  15
ATOM     15  O   UNL     1       9.684  -3.245  23.955  0.00  0.00    -0.507 OA
ATOM     16  H   UNL     1       9.859  -3.923  23.282  0.00  0.00    +0.292 HD
ENDBRANCH   6  15
TORSDOF 4
ENDMDL
MODEL 8
REMARK VINA RESULT:      -4.8      9.567     10.746
REMARK  Name = 
REMARK  4 active torsions:
REMARK  status: ('A' for Active; 'I' for Inactive)
REMARK    1  A    between atoms: C_2  and  N_12
REMARK    2  A    between atoms: C_8  and  O_9
REMARK    3  A    between atoms: N_12  and  C_13
REMARK    4  A    between atoms: C_13  and  C_14
REMARK                            x       y       z     vdW  Elec       q    Type
REMARK                         _______ _______ _______ _____ _____    ______ ____
ROOT
ATOM      1  C   UNL     1       5.014  -5.744  23.528  0.00  0.00    +0.085 C 
ATOM      2  C   UNL     1       6.152  -5.393  24.448  0.00  0.00    -0.024 A 
ATOM      3  C   UNL     1       7.368  -5.332  23.771  0.00  0.00    -0.042 A 
ATOM      4  C   UNL     1       8.564  -5.192  24.463  0.00  0.00    +0.007 A 
ATOM      5  C   UNL     1       8.529  -5.135  25.861  0.00  0.00    +0.045 A 
ATOM      6  C   UNL     1       7.305  -5.168  26.529  0.00  0.00    +0.117 A 
ATOM      7  C   UNL     1       7.181  -5.509  22.299  0.00  0.00    +0.037 C 
ATOM      8  C   UNL     1       6.107  -5.247  25.830  0.00  0.00    +0.050 A 
ATOM      9  C   UNL     1       5.651  -5.448  22.148  0.00  0.00    +0.028 C 
ENDROOT
BRANCH   1  10
ATOM     10  N   UNL     1       4.616  -7.156  23.619  0.00  0.00    -0.299 NA
ATOM     11  H   UNL     1       5.300  -7.665  24.174  0.00  0.00    +0.123 HD
BRANCH  10  12
ATOM     12  C   UNL     1       3.306  -7.306  24.239  0.00  0.00    +0.171 C 
BRANCH  12  13
ATOM     13  C   UNL     1       2.264  -6.468  23.518  0.00  0.00    -0.090 C 
ATOM     14  C   UNL     1       1.369  -5.749  22.898  0.00  0.00    +0.005 C 
ENDBRANCH  12  13
ENDBRANCH  10  12
ENDBRANCH   1  10
BRANCH   6  15
ATOM     15  O   UNL     1       7.235  -5.176  27.892  0.00  0.00    -0.507 OA
ATOM     16  H   UNL     1       6.431  -4.700  28.159  0.00  0.00    +0.292 HD
ENDBRANCH   6  15
TORSDOF 4
ENDMDL
MODEL 9
REMARK VINA RESULT:      -4.6      3.220      5.009
REMARK  Name = 
REMARK  4 active torsions:
REMARK  status: ('A' for Active; 'I' for Inactive)
REMARK    1  A    between atoms: C_2  and  N_12
REMARK    2  A    between atoms: C_8  and  O_9
REMARK    3  A    between atoms: N_12  and  C_13
REMARK    4  A    between atoms: C_13  and  C_14
REMARK                            x       y       z     vdW  Elec       q    Type
REMARK                         _______ _______ _______ _____ _____    ______ ____
ROOT
ATOM      1  C   UNL     1       8.368  -1.302  23.617  0.00  0.00    +0.085 C 
ATOM      2  C   UNL     1       8.685   0.159  23.444  0.00  0.00    -0.024 A 
ATOM      3  C   UNL     1       9.494   0.388  22.332  0.00  0.00    -0.042 A 
ATOM      4  C   UNL     1      10.041   1.641  22.092  0.00  0.00    +0.007 A 
ATOM      5  C   UNL     1       9.783   2.672  23.003  0.00  0.00    +0.045 A 
ATOM      6  C   UNL     1       8.949   2.442  24.098  0.00  0.00    +0.117 A 
ATOM      7  C   UNL     1       9.714  -0.868  21.553  0.00  0.00    +0.037 C 
ATOM      8  C   UNL     1       8.356   1.204  24.301  0.00  0.00    +0.050 A 
ATOM      9  C   UNL     1       8.730  -1.848  22.214  0.00  0.00    +0.028 C 
ENDROOT
BRANCH   1  10
ATOM     10  N   UNL     1       9.189  -1.949  24.650  0.00  0.00    -0.299 NA
ATOM     11  H   UNL     1       8.738  -1.844  25.556  0.00  0.00    +0.123 HD
BRANCH  10  12
ATOM     12  C   UNL     1       9.371  -3.369  24.380  0.00  0.00    +0.171 C 
BRANCH  12  13
ATOM     13  C   UNL     1       8.881  -4.211  25.547  0.00  0.00    -0.090 C 
ATOM     14  C   UNL     1       8.461  -4.933  26.549  0.00  0.00    +0.005 C 
ENDBRANCH  12  13
ENDBRANCH  10  12
ENDBRANCH   1  10
BRANCH   6  15
ATOM     15  O   UNL     1       8.724   3.405  25.038  0.00  0.00    -0.507 OA
ATOM     16  H   UNL     1       9.111   3.109  25.878  0.00  0.00    +0.292 HD
ENDBRANCH   6  15
TORSDOF 4
ENDMDL
