MODEL 1
REMARK VINA RESULT:      -6.7      0.000      0.000
REMARK  Name = 
REMARK  32 active torsions:
REMARK  status: ('A' for Active; 'I' for Inactive)
REMARK    1  A    between atoms: C_1  and  C_2
REMARK    2  A    between atoms: C_2  and  C_4
REMARK    3  A    between atoms: C_2  and  C_7
REMARK    4  A    between atoms: C_4  and  O_5
REMARK    5  A    between atoms: C_7  and  S_9
REMARK    6  A    between atoms: S_9  and  C_10
REMARK    7  A    between atoms: C_10  and  C_11
REMARK    8  A    between atoms: C_11  and  N_12
REMARK    9  A    between atoms: C_13  and  C_15
REMARK   10  A    between atoms: C_15  and  C_16
REMARK   11  A    between atoms: C_16  and  N_17
REMARK   12  A    between atoms: C_18  and  C_20
REMARK   13  A    between atoms: C_20  and  O_22
REMARK   14  A    between atoms: C_20  and  C_23
REMARK   15  A    between atoms: C_23  and  C_24
REMARK   16  A    between atoms: C_23  and  C_25
REMARK   17  A    between atoms: C_23  and  C_26
REMARK   18  A    between atoms: C_26  and  O_27
REMARK   19  A    between atoms: O_27  and  P_28
REMARK   20  A    between atoms: P_28  and  O_29
REMARK   21  A    between atoms: P_28  and  O_31
REMARK   22  A    between atoms: O_31  and  P_32
REMARK   23  A    between atoms: P_32  and  O_33
REMARK   24  A    between atoms: P_32  and  O_35
REMARK   25  A    between atoms: O_35  and  C_36
REMARK   26  A    between atoms: C_36  and  C_37
REMARK   27  A    between atoms: C_40  and  N_52
REMARK   28  A    between atoms: C_42  and  O_44
REMARK   29  A    between atoms: C_45  and  O_47
REMARK   30  A    between atoms: O_47  and  P_48
REMARK   31  A    between atoms: P_48  and  O_49
REMARK   32  A    between atoms: P_48  and  O_50
REMARK                            x       y       z     vdW  Elec       q    Type
REMARK                         _______ _______ _______ _____ _____    ______ ____
ROOT
ATOM      1  P   UNL     1       5.961  -4.552  22.461  0.00  0.00    +0.483 P 
ATOM      2  O   UNL     1       5.562  -3.132  22.229  0.00  0.00    -0.227 OA
ENDROOT
BRANCH   1   3
ATOM      3  O   UNL     1       7.031  -5.038  21.373  0.00  0.00    -0.302 OA
ATOM      4  H   UNL     1       7.947  -4.865  21.658  0.00  0.00    +0.222 HD
ENDBRANCH   1   3
BRANCH   1   5
ATOM      5  O   UNL     1       4.784  -5.620  22.432  0.00  0.00    -0.186 OA
BRANCH   5   6
ATOM      6  P   UNL     1       3.686  -6.068  23.692  0.00  0.00    +0.483 P 
ATOM      7  O   UNL     1       4.613  -7.211  24.110  0.00  0.00    -0.227 OA
BRANCH   6   8
ATOM      8  O   UNL     1       2.674  -6.783  22.636  0.00  0.00    -0.302 OA
ATOM      9  H   UNL     1       3.141  -6.779  21.785  0.00  0.00    +0.222 HD
ENDBRANCH   6   8
BRANCH   6  10
ATOM     10  O   UNL     1       2.588  -6.515  24.952  0.00  0.00    -0.284 OA
BRANCH  10  11
ATOM     11  C   UNL     1       1.936  -5.379  25.527  0.00  0.00    +0.206 C 
BRANCH  11  12
ATOM     12  C   UNL     1       2.480  -5.120  26.931  0.00  0.00    +0.179 C 
ATOM     13  C   UNL     1       3.994  -4.926  26.957  0.00  0.00    +0.194 C 
ATOM     14  C   UNL     1       4.202  -3.421  26.785  0.00  0.00    +0.196 C 
ATOM     15  C   UNL     1       2.779  -2.840  26.925  0.00  0.00    +0.253 C 
ATOM     16  O   UNL     1       1.920  -3.885  27.418  0.00  0.00    -0.346 OA
BRANCH  15  17
ATOM     17  N   UNL     1       2.573  -1.665  27.735  0.00  0.00    -0.286 N 
ATOM     18  C   UNL     1       2.996  -0.386  27.526  0.00  0.00    +0.167 A 
ATOM     19  N   UNL     1       3.796   0.084  26.554  0.00  0.00    -0.216 NA
ATOM     20  C   UNL     1       3.932   1.422  26.650  0.00  0.00    +0.225 A 
ATOM     21  N   UNL     1       3.370   2.263  27.543  0.00  0.00    -0.219 NA
ATOM     22  C   UNL     1       2.566   1.742  28.495  0.00  0.00    +0.147 A 
ATOM     23  N   UNL     1       1.960   2.604  29.395  0.00  0.00    -0.341 N 
ATOM     24  H   UNL     1       1.676   2.156  30.259  0.00  0.00    +0.144 HD
ATOM     25  H   UNL     1       2.433   3.496  29.456  0.00  0.00    +0.144 HD
ATOM     26  C   UNL     1       2.375   0.352  28.524  0.00  0.00    +0.147 A 
ATOM     27  N   UNL     1       1.658  -0.467  29.371  0.00  0.00    -0.231 NA
ATOM     28  C   UNL     1       1.815  -1.675  28.885  0.00  0.00    +0.203 A 
ENDBRANCH  15  17
BRANCH  14  29
ATOM     29  O   UNL     1       4.788  -3.183  25.495  0.00  0.00    -0.385 OA
ATOM     30  H   UNL     1       4.252  -3.649  24.829  0.00  0.00    +0.210 HD
ENDBRANCH  14  29
BRANCH  13  31
ATOM     31  O   UNL     1       4.455  -5.323  28.243  0.00  0.00    -0.278 OA
BRANCH  31  32
ATOM     32  P   UNL     1       4.992  -6.815  28.423  0.00  0.00    +0.473 P 
ATOM     33  O   UNL     1       6.323  -6.975  29.069  0.00  0.00    -0.228 OA
BRANCH  32  34
ATOM     34  O   UNL     1       3.796  -7.559  29.161  0.00  0.00    -0.303 OA
ATOM     35  H   UNL     1       4.110  -8.343  29.643  0.00  0.00    +0.222 HD
ENDBRANCH  32  34
BRANCH  32  36
ATOM     36  O   UNL     1       4.941  -7.408  26.943  0.00  0.00    -0.303 OA
ATOM     37  H   UNL     1       5.833  -7.566  26.590  0.00  0.00    +0.222 HD
ENDBRANCH  32  36
ENDBRANCH  31  32
ENDBRANCH  13  31
ENDBRANCH  11  12
ENDBRANCH  10  11
ENDBRANCH   6  10
ENDBRANCH   5   6
ENDBRANCH   1   5
BRANCH   1  38
ATOM     38  O   UNL     1       6.685  -4.849  23.861  0.00  0.00    -0.286 OA
BRANCH  38  39
ATOM     39  C   UNL     1       8.087  -5.046  23.901  0.00  0.00    +0.181 C 
BRANCH  39  40
ATOM     40  C   UNL     1       8.639  -4.509  25.242  0.00  0.00    +0.024 C 
ATOM     41  C   UNL     1       7.740  -5.011  26.391  0.00  0.00    +0.016 C 
ATOM     42  C   UNL     1      10.048  -5.102  25.478  0.00  0.00    +0.016 C 
BRANCH  40  43
ATOM     43  C   UNL     1       8.745  -2.951  25.203  0.00  0.00    +0.208 C 
BRANCH  43  46
ATOM     44  N   UNL     1       8.444  -1.724  23.067  0.00  0.00    -0.313 N 
ATOM     45  H   UNL     1       7.462  -1.683  23.289  0.00  0.00    +0.149 HD
ATOM     46  C   UNL     1       9.309  -2.453  23.855  0.00  0.00    +0.242 C 
ATOM     47  O   UNL     1      10.449  -2.713  23.478  0.00  0.00    -0.273 OA
BRANCH  44  48
ATOM     48  C   UNL     1       8.902  -1.131  21.821  0.00  0.00    +0.113 C 
BRANCH  48  49
ATOM     49  C   UNL     1       9.384   0.307  21.982  0.00  0.00    +0.114 C 
BRANCH  49  52
ATOM     50  N   UNL     1       8.348   2.495  21.877  0.00  0.00    -0.314 N 
ATOM     51  H   UNL     1       9.224   2.807  21.475  0.00  0.00    +0.149 HD
ATOM     52  C   UNL     1       8.201   1.190  22.286  0.00  0.00    +0.215 C 
ATOM     53  O   UNL     1       7.190   0.778  22.846  0.00  0.00    -0.276 OA
BRANCH  50  54
ATOM     54  C   UNL     1       7.287   3.465  22.077  0.00  0.00    +0.115 C 
BRANCH  54  55
ATOM     55  C   UNL     1       7.774   4.774  22.712  0.00  0.00    +0.096 C 
BRANCH  55  56
ATOM     56  S   UNL     1       8.847   4.378  24.123  0.00  0.00    -0.086 S 
BRANCH  56  57
ATOM     57  C   UNL     1      10.216   5.441  23.808  0.00  0.00    +0.203 C 
ATOM     58  O   UNL     1      10.245   6.608  24.189  0.00  0.00    -0.284 OA
BRANCH  57  60
ATOM     59  C   UNL     1      11.430   3.307  23.483  0.00  0.00    +0.028 C 
ATOM     60  C   UNL     1      11.376   4.784  23.104  0.00  0.00    +0.171 C 
BRANCH  60  61
ATOM     61  C   UNL     1      12.727   5.404  23.375  0.00  0.00    +0.316 C 
ATOM     62  O   UNL     1      13.673   5.252  22.611  0.00  0.00    -0.250 OA
BRANCH  61  63
ATOM     63  O   UNL     1      12.871   6.070  24.538  0.00  0.00    -0.480 OA
ATOM     64  H   UNL     1      12.868   7.053  24.465  0.00  0.00    +0.295 HD
ENDBRANCH  61  63
ENDBRANCH  60  61
ENDBRANCH  57  60
ENDBRANCH  56  57
ENDBRANCH  55  56
ENDBRANCH  54  55
ENDBRANCH  50  54
ENDBRANCH  49  52
ENDBRANCH  48  49
ENDBRANCH  44  48
ENDBRANCH  43  46
BRANCH  43  65
ATOM     65  O   UNL     1       7.465  -2.361  25.430  0.00  0.00    -0.382 OA
ATOM     66  H   UNL     1       7.211  -1.891  24.618  0.00  0.00    +0.210 HD
ENDBRANCH  43  65
ENDBRANCH  40  43
ENDBRANCH  39  40
ENDBRANCH  38  39
ENDBRANCH   1  38
TORSDOF 29
ENDMDL
MODEL 2
REMARK VINA RESULT:      -6.6      2.329      4.435
REMARK  Name = 
REMARK  32 active torsions:
REMARK  status: ('A' for Active; 'I' for Inactive)
REMARK    1  A    between atoms: C_1  and  C_2
REMARK    2  A    between atoms: C_2  and  C_4
REMARK    3  A    between atoms: C_2  and  C_7
REMARK    4  A    between atoms: C_4  and  O_5
REMARK    5  A    between atoms: C_7  and  S_9
REMARK    6  A    between atoms: S_9  and  C_10
REMARK    7  A    between atoms: C_10  and  C_11
REMARK    8  A    between atoms: C_11  and  N_12
REMARK    9  A    between atoms: C_13  and  C_15
REMARK   10  A    between atoms: C_15  and  C_16
REMARK   11  A    between atoms: C_16  and  N_17
REMARK   12  A    between atoms: C_18  and  C_20
REMARK   13  A    between atoms: C_20  and  O_22
REMARK   14  A    between atoms: C_20  and  C_23
REMARK   15  A    between atoms: C_23  and  C_24
REMARK   16  A    between atoms: C_23  and  C_25
REMARK   17  A    between atoms: C_23  and  C_26
REMARK   18  A    between atoms: C_26  and  O_27
REMARK   19  A    between atoms: O_27  and  P_28
REMARK   20  A    between atoms: P_28  and  O_29
REMARK   21  A    between atoms: P_28  and  O_31
REMARK   22  A    between atoms: O_31  and  P_32
REMARK   23  A    between atoms: P_32  and  O_33
REMARK   24  A    between atoms: P_32  and  O_35
REMARK   25  A    between atoms: O_35  and  C_36
REMARK   26  A    between atoms: C_36  and  C_37
REMARK   27  A    between atoms: C_40  and  N_52
REMARK   28  A    between atoms: C_42  and  O_44
REMARK   29  A    between atoms: C_45  and  O_47
REMARK   30  A    between atoms: O_47  and  P_48
REMARK   31  A    between atoms: P_48  and  O_49
REMARK   32  A    between atoms: P_48  and  O_50
REMARK                            x       y       z     vdW  Elec       q    Type
REMARK                         _______ _______ _______ _____ _____    ______ ____
ROOT
ATOM      1  P   UNL     1       8.701  -5.105  25.825  0.00  0.00    +0.483 P 
ATOM      2  O   UNL     1       9.424  -5.639  24.634  0.00  0.00    -0.227 OA
ENDROOT
BRANCH   1   3
ATOM      3  O   UNL     1       9.697  -4.891  27.061  0.00  0.00    -0.302 OA
ATOM      4  H   UNL     1       9.349  -4.249  27.706  0.00  0.00    +0.222 HD
ENDBRANCH   1   3
BRANCH   1   5
ATOM      5  O   UNL     1       7.503  -5.996  26.372  0.00  0.00    -0.186 OA
BRANCH   5   6
ATOM      6  P   UNL     1       6.354  -5.636  27.613  0.00  0.00    +0.483 P 
ATOM      7  O   UNL     1       7.213  -6.377  28.640  0.00  0.00    -0.227 OA
BRANCH   6   8
ATOM      8  O   UNL     1       5.334  -6.791  27.086  0.00  0.00    -0.302 OA
ATOM      9  H   UNL     1       4.713  -6.339  26.493  0.00  0.00    +0.222 HD
ENDBRANCH   6   8
BRANCH   6  10
ATOM     10  O   UNL     1       5.204  -5.275  28.855  0.00  0.00    -0.284 OA
BRANCH  10  11
ATOM     11  C   UNL     1       4.579  -4.004  28.659  0.00  0.00    +0.206 C 
BRANCH  11  12
ATOM     12  C   UNL     1       4.887  -3.482  27.257  0.00  0.00    +0.179 C 
ATOM     13  C   UNL     1       3.632  -3.244  26.420  0.00  0.00    +0.194 C 
ATOM     14  C   UNL     1       3.248  -1.789  26.691  0.00  0.00    +0.196 C 
ATOM     15  C   UNL     1       4.459  -1.232  27.468  0.00  0.00    +0.253 C 
ATOM     16  O   UNL     1       5.525  -2.195  27.377  0.00  0.00    -0.346 OA
BRANCH  15  17
ATOM     17  N   UNL     1       4.988   0.063  27.118  0.00  0.00    -0.286 N 
ATOM     18  C   UNL     1       5.695   0.943  27.883  0.00  0.00    +0.167 A 
ATOM     19  N   UNL     1       5.995   0.864  29.191  0.00  0.00    -0.216 NA
ATOM     20  C   UNL     1       6.767   1.903  29.569  0.00  0.00    +0.225 A 
ATOM     21  N   UNL     1       7.241   2.917  28.816  0.00  0.00    -0.219 NA
ATOM     22  C   UNL     1       6.918   2.946  27.504  0.00  0.00    +0.147 A 
ATOM     23  N   UNL     1       7.427   3.967  26.718  0.00  0.00    -0.341 N 
ATOM     24  H   UNL     1       6.892   4.136  25.874  0.00  0.00    +0.144 HD
ATOM     25  H   UNL     1       7.721   4.766  27.263  0.00  0.00    +0.144 HD
ATOM     26  C   UNL     1       6.086   1.936  26.997  0.00  0.00    +0.147 A 
ATOM     27  N   UNL     1       5.561   1.712  25.741  0.00  0.00    -0.231 NA
ATOM     28  C   UNL     1       4.888   0.592  25.851  0.00  0.00    +0.203 A 
ENDBRANCH  15  17
BRANCH  14  29
ATOM     29  O   UNL     1       2.028  -1.770  27.449  0.00  0.00    -0.385 OA
ATOM     30  H   UNL     1       1.390  -2.359  27.010  0.00  0.00    +0.210 HD
ENDBRANCH  14  29
BRANCH  13  31
ATOM     31  O   UNL     1       3.995  -3.391  25.052  0.00  0.00    -0.278 OA
BRANCH  31  32
ATOM     32  P   UNL     1       3.772  -4.812  24.362  0.00  0.00    +0.473 P 
ATOM     33  O   UNL     1       3.066  -4.818  23.052  0.00  0.00    -0.228 OA
BRANCH  32  34
ATOM     34  O   UNL     1       5.227  -5.454  24.343  0.00  0.00    -0.303 OA
ATOM     35  H   UNL     1       5.324  -6.133  25.033  0.00  0.00    +0.222 HD
ENDBRANCH  32  34
BRANCH  32  36
ATOM     36  O   UNL     1       3.012  -5.653  25.484  0.00  0.00    -0.303 OA
ATOM     37  H   UNL     1       3.469  -5.602  26.341  0.00  0.00    +0.222 HD
ENDBRANCH  32  36
ENDBRANCH  31  32
ENDBRANCH  13  31
ENDBRANCH  11  12
ENDBRANCH  10  11
ENDBRANCH   6  10
ENDBRANCH   5   6
ENDBRANCH   1   5
BRANCH   1  38
ATOM     38  O   UNL     1       8.021  -3.664  25.637  0.00  0.00    -0.286 OA
BRANCH  38  39
ATOM     39  C   UNL     1       7.726  -3.189  24.335  0.00  0.00    +0.181 C 
BRANCH  39  40
ATOM     40  C   UNL     1       8.490  -1.869  24.087  0.00  0.00    +0.024 C 
ATOM     41  C   UNL     1       8.492  -1.039  25.387  0.00  0.00    +0.016 C 
ATOM     42  C   UNL     1       9.966  -2.197  23.759  0.00  0.00    +0.016 C 
BRANCH  40  43
ATOM     43  C   UNL     1       7.864  -1.094  22.883  0.00  0.00    +0.208 C 
BRANCH  43  46
ATOM     44  N   UNL     1       9.137   1.035  22.943  0.00  0.00    -0.313 N 
ATOM     45  H   UNL     1       8.559   1.298  23.726  0.00  0.00    +0.149 HD
ATOM     46  C   UNL     1       8.879  -0.125  22.242  0.00  0.00    +0.242 C 
ATOM     47  O   UNL     1       9.408  -0.343  21.155  0.00  0.00    -0.273 OA
BRANCH  44  48
ATOM     48  C   UNL     1      10.144   1.973  22.474  0.00  0.00    +0.113 C 
BRANCH  48  49
ATOM     49  C   UNL     1      11.037   2.502  23.591  0.00  0.00    +0.114 C 
BRANCH  49  52
ATOM     50  N   UNL     1      10.007   4.696  23.557  0.00  0.00    -0.314 N 
ATOM     51  H   UNL     1       9.129   4.201  23.668  0.00  0.00    +0.149 HD
ATOM     52  C   UNL     1      11.184   3.994  23.437  0.00  0.00    +0.215 C 
ATOM     53  O   UNL     1      12.264   4.537  23.228  0.00  0.00    -0.276 OA
BRANCH  50  54
ATOM     54  C   UNL     1       9.986   6.143  23.456  0.00  0.00    +0.115 C 
BRANCH  54  55
ATOM     55  C   UNL     1       8.798   6.785  24.185  0.00  0.00    +0.096 C 
BRANCH  55  56
ATOM     56  S   UNL     1       7.407   6.929  23.025  0.00  0.00    -0.086 S 
BRANCH  56  57
ATOM     57  C   UNL     1       6.265   5.791  23.735  0.00  0.00    +0.203 C 
ATOM     58  O   UNL     1       5.830   5.918  24.876  0.00  0.00    -0.284 OA
BRANCH  57  60
ATOM     59  C   UNL     1       4.368   4.311  23.143  0.00  0.00    +0.028 C 
ATOM     60  C   UNL     1       5.806   4.695  22.805  0.00  0.00    +0.171 C 
BRANCH  60  61
ATOM     61  C   UNL     1       6.657   3.447  22.814  0.00  0.00    +0.316 C 
ATOM     62  O   UNL     1       6.649   2.654  21.880  0.00  0.00    -0.250 OA
BRANCH  61  63
ATOM     63  O   UNL     1       7.368   3.200  23.932  0.00  0.00    -0.480 OA
ATOM     64  H   UNL     1       8.268   3.600  23.956  0.00  0.00    +0.295 HD
ENDBRANCH  61  63
ENDBRANCH  60  61
ENDBRANCH  57  60
ENDBRANCH  56  57
ENDBRANCH  55  56
ENDBRANCH  54  55
ENDBRANCH  50  54
ENDBRANCH  49  52
ENDBRANCH  48  49
ENDBRANCH  44  48
ENDBRANCH  43  46
BRANCH  43  65
ATOM     65  O   UNL     1       7.392  -2.011  21.896  0.00  0.00    -0.382 OA
ATOM     66  H   UNL     1       8.160  -2.301  21.374  0.00  0.00    +0.210 HD
ENDBRANCH  43  65
ENDBRANCH  40  43
ENDBRANCH  39  40
ENDBRANCH  38  39
ENDBRANCH   1  38
TORSDOF 29
ENDMDL
MODEL 3
REMARK VINA RESULT:      -6.6      3.060      6.788
REMARK  Name = 
REMARK  32 active torsions:
REMARK  status: ('A' for Active; 'I' for Inactive)
REMARK    1  A    between atoms: C_1  and  C_2
REMARK    2  A    between atoms: C_2  and  C_4
REMARK    3  A    between atoms: C_2  and  C_7
REMARK    4  A    between atoms: C_4  and  O_5
REMARK    5  A    between atoms: C_7  and  S_9
REMARK    6  A    between atoms: S_9  and  C_10
REMARK    7  A    between atoms: C_10  and  C_11
REMARK    8  A    between atoms: C_11  and  N_12
REMARK    9  A    between atoms: C_13  and  C_15
REMARK   10  A    between atoms: C_15  and  C_16
REMARK   11  A    between atoms: C_16  and  N_17
REMARK   12  A    between atoms: C_18  and  C_20
REMARK   13  A    between atoms: C_20  and  O_22
REMARK   14  A    between atoms: C_20  and  C_23
REMARK   15  A    between atoms: C_23  and  C_24
REMARK   16  A    between atoms: C_23  and  C_25
REMARK   17  A    between atoms: C_23  and  C_26
REMARK   18  A    between atoms: C_26  and  O_27
REMARK   19  A    between atoms: O_27  and  P_28
REMARK   20  A    between atoms: P_28  and  O_29
REMARK   21  A    between atoms: P_28  and  O_31
REMARK   22  A    between atoms: O_31  and  P_32
REMARK   23  A    between atoms: P_32  and  O_33
REMARK   24  A    between atoms: P_32  and  O_35
REMARK   25  A    between atoms: O_35  and  C_36
REMARK   26  A    between atoms: C_36  and  C_37
REMARK   27  A    between atoms: C_40  and  N_52
REMARK   28  A    between atoms: C_42  and  O_44
REMARK   29  A    between atoms: C_45  and  O_47
REMARK   30  A    between atoms: O_47  and  P_48
REMARK   31  A    between atoms: P_48  and  O_49
REMARK   32  A    between atoms: P_48  and  O_50
REMARK                            x       y       z     vdW  Elec       q    Type
REMARK                         _______ _______ _______ _____ _____    ______ ____
ROOT
ATOM      1  P   UNL     1       3.883  -6.812  25.295  0.00  0.00    +0.483 P 
ATOM      2  O   UNL     1       2.981  -7.987  25.110  0.00  0.00    -0.227 OA
ENDROOT
BRANCH   1   3
ATOM      3  O   UNL     1       3.074  -5.435  25.171  0.00  0.00    -0.302 OA
ATOM      4  H   UNL     1       2.372  -5.360  25.843  0.00  0.00    +0.222 HD
ENDBRANCH   1   3
BRANCH   1   5
ATOM      5  O   UNL     1       5.102  -6.701  24.281  0.00  0.00    -0.186 OA
BRANCH   5   6
ATOM      6  P   UNL     1       5.359  -5.563  23.004  0.00  0.00    +0.483 P 
ATOM      7  O   UNL     1       3.885  -5.658  22.605  0.00  0.00    -0.227 OA
BRANCH   6   8
ATOM      8  O   UNL     1       6.067  -6.688  22.064  0.00  0.00    -0.302 OA
ATOM      9  H   UNL     1       5.880  -6.418  21.150  0.00  0.00    +0.222 HD
ENDBRANCH   6   8
BRANCH   6  10
ATOM     10  O   UNL     1       5.618  -4.423  21.728  0.00  0.00    -0.284 OA
BRANCH  10  11
ATOM     11  C   UNL     1       6.926  -3.847  21.776  0.00  0.00    +0.206 C 
BRANCH  11  12
ATOM     12  C   UNL     1       7.210  -3.311  23.177  0.00  0.00    +0.179 C 
ATOM     13  C   UNL     1       8.691  -3.355  23.544  0.00  0.00    +0.194 C 
ATOM     14  C   UNL     1       9.248  -2.003  23.100  0.00  0.00    +0.196 C 
ATOM     15  C   UNL     1       7.986  -1.190  22.740  0.00  0.00    +0.253 C 
ATOM     16  O   UNL     1       6.839  -1.919  23.218  0.00  0.00    -0.346 OA
BRANCH  15  17
ATOM     17  N   UNL     1       7.873   0.175  23.189  0.00  0.00    -0.286 N 
ATOM     18  C   UNL     1       8.852   1.105  23.381  0.00  0.00    +0.167 A 
ATOM     19  N   UNL     1      10.184   0.950  23.291  0.00  0.00    -0.216 NA
ATOM     20  C   UNL     1      10.817   2.125  23.491  0.00  0.00    +0.225 A 
ATOM     21  N   UNL     1      10.281   3.339  23.734  0.00  0.00    -0.219 NA
ATOM     22  C   UNL     1       8.936   3.442  23.806  0.00  0.00    +0.147 A 
ATOM     23  N   UNL     1       8.378   4.692  24.023  0.00  0.00    -0.341 N 
ATOM     24  H   UNL     1       7.441   4.658  24.408  0.00  0.00    +0.144 HD
ATOM     25  H   UNL     1       9.035   5.345  24.428  0.00  0.00    +0.144 HD
ATOM     26  C   UNL     1       8.165   2.280  23.652  0.00  0.00    +0.147 A 
ATOM     27  N   UNL     1       6.805   2.057  23.706  0.00  0.00    -0.231 NA
ATOM     28  C   UNL     1       6.662   0.779  23.446  0.00  0.00    +0.203 A 
ENDBRANCH  15  17
BRANCH  14  29
ATOM     29  O   UNL     1      10.126  -2.212  21.983  0.00  0.00    -0.385 OA
ATOM     30  H   UNL     1      10.891  -2.728  22.292  0.00  0.00    +0.210 HD
ENDBRANCH  14  29
BRANCH  13  31
ATOM     31  O   UNL     1       8.779  -3.461  24.960  0.00  0.00    -0.278 OA
BRANCH  31  32
ATOM     32  P   UNL     1       9.106  -4.891  25.590  0.00  0.00    +0.473 P 
ATOM     33  O   UNL     1       8.060  -5.940  25.451  0.00  0.00    -0.228 OA
BRANCH  32  34
ATOM     34  O   UNL     1      10.518  -5.265  24.962  0.00  0.00    -0.303 OA
ATOM     35  H   UNL     1      10.720  -6.209  25.082  0.00  0.00    +0.222 HD
ENDBRANCH  32  34
BRANCH  32  36
ATOM     36  O   UNL     1       9.454  -4.555  27.110  0.00  0.00    -0.303 OA
ATOM     37  H   UNL     1      10.362  -4.821  27.336  0.00  0.00    +0.222 HD
ENDBRANCH  32  36
ENDBRANCH  31  32
ENDBRANCH  13  31
ENDBRANCH  11  12
ENDBRANCH  10  11
ENDBRANCH   6  10
ENDBRANCH   5   6
ENDBRANCH   1   5
BRANCH   1  38
ATOM     38  O   UNL     1       4.594  -6.702  26.728  0.00  0.00    -0.286 OA
BRANCH  38  39
ATOM     39  C   UNL     1       3.872  -6.197  27.837  0.00  0.00    +0.181 C 
BRANCH  39  40
ATOM     40  C   UNL     1       4.722  -5.124  28.555  0.00  0.00    +0.024 C 
ATOM     41  C   UNL     1       4.685  -5.390  30.074  0.00  0.00    +0.016 C 
ATOM     42  C   UNL     1       6.195  -5.267  28.107  0.00  0.00    +0.016 C 
BRANCH  40  43
ATOM     43  C   UNL     1       4.217  -3.692  28.186  0.00  0.00    +0.208 C 
BRANCH  43  46
ATOM     44  N   UNL     1       5.756  -1.911  27.399  0.00  0.00    -0.313 N 
ATOM     45  H   UNL     1       5.559  -1.431  28.264  0.00  0.00    +0.149 HD
ATOM     46  C   UNL     1       5.071  -3.060  27.066  0.00  0.00    +0.242 C 
ATOM     47  O   UNL     1       5.119  -3.523  25.929  0.00  0.00    -0.273 OA
BRANCH  44  48
ATOM     48  C   UNL     1       6.661  -1.288  26.447  0.00  0.00    +0.113 C 
BRANCH  48  49
ATOM     49  C   UNL     1       7.730  -0.426  27.111  0.00  0.00    +0.114 C 
BRANCH  49  52
ATOM     50  N   UNL     1       7.200   1.937  26.995  0.00  0.00    -0.314 N 
ATOM     51  H   UNL     1       7.760   1.943  26.150  0.00  0.00    +0.149 HD
ATOM     52  C   UNL     1       7.073   0.781  27.731  0.00  0.00    +0.215 C 
ATOM     53  O   UNL     1       6.470   0.735  28.798  0.00  0.00    -0.276 OA
BRANCH  50  54
ATOM     54  C   UNL     1       6.604   3.180  27.447  0.00  0.00    +0.115 C 
BRANCH  54  55
ATOM     55  C   UNL     1       5.725   3.852  26.385  0.00  0.00    +0.096 C 
BRANCH  55  56
ATOM     56  S   UNL     1       3.988   3.744  26.907  0.00  0.00    -0.086 S 
BRANCH  56  57
ATOM     57  C   UNL     1       3.694   2.016  26.724  0.00  0.00    +0.203 C 
ATOM     58  O   UNL     1       4.194   1.355  25.819  0.00  0.00    -0.284 OA
BRANCH  57  60
ATOM     59  C   UNL     1       3.258   1.975  29.163  0.00  0.00    +0.028 C 
ATOM     60  C   UNL     1       2.846   1.402  27.810  0.00  0.00    +0.171 C 
BRANCH  60  61
ATOM     61  C   UNL     1       2.893  -0.106  27.886  0.00  0.00    +0.316 C 
ATOM     62  O   UNL     1       3.157  -0.692  28.930  0.00  0.00    -0.250 OA
BRANCH  61  63
ATOM     63  O   UNL     1       2.711  -0.782  26.735  0.00  0.00    -0.480 OA
ATOM     64  H   UNL     1       2.089  -0.365  26.094  0.00  0.00    +0.295 HD
ENDBRANCH  61  63
ENDBRANCH  60  61
ENDBRANCH  57  60
ENDBRANCH  56  57
ENDBRANCH  55  56
ENDBRANCH  54  55
ENDBRANCH  50  54
ENDBRANCH  49  52
ENDBRANCH  48  49
ENDBRANCH  44  48
ENDBRANCH  43  46
BRANCH  43  65
ATOM     65  O   UNL     1       2.851  -3.739  27.775  0.00  0.00    -0.382 OA
ATOM     66  H   UNL     1       2.309  -3.429  28.520  0.00  0.00    +0.210 HD
ENDBRANCH  43  65
ENDBRANCH  40  43
ENDBRANCH  39  40
ENDBRANCH  38  39
ENDBRANCH   1  38
TORSDOF 29
ENDMDL
MODEL 4
REMARK VINA RESULT:      -6.5      1.664      2.319
REMARK  Name = 
REMARK  32 active torsions:
REMARK  status: ('A' for Active; 'I' for Inactive)
REMARK    1  A    between atoms: C_1  and  C_2
REMARK    2  A    between atoms: C_2  and  C_4
REMARK    3  A    between atoms: C_2  and  C_7
REMARK    4  A    between atoms: C_4  and  O_5
REMARK    5  A    between atoms: C_7  and  S_9
REMARK    6  A    between atoms: S_9  and  C_10
REMARK    7  A    between atoms: C_10  and  C_11
REMARK    8  A    between atoms: C_11  and  N_12
REMARK    9  A    between atoms: C_13  and  C_15
REMARK   10  A    between atoms: C_15  and  C_16
REMARK   11  A    between atoms: C_16  and  N_17
REMARK   12  A    between atoms: C_18  and  C_20
REMARK   13  A    between atoms: C_20  and  O_22
REMARK   14  A    between atoms: C_20  and  C_23
REMARK   15  A    between atoms: C_23  and  C_24
REMARK   16  A    between atoms: C_23  and  C_25
REMARK   17  A    between atoms: C_23  and  C_26
REMARK   18  A    between atoms: C_26  and  O_27
REMARK   19  A    between atoms: O_27  and  P_28
REMARK   20  A    between atoms: P_28  and  O_29
REMARK   21  A    between atoms: P_28  and  O_31
REMARK   22  A    between atoms: O_31  and  P_32
REMARK   23  A    between atoms: P_32  and  O_33
REMARK   24  A    between atoms: P_32  and  O_35
REMARK   25  A    between atoms: O_35  and  C_36
REMARK   26  A    between atoms: C_36  and  C_37
REMARK   27  A    between atoms: C_40  and  N_52
REMARK   28  A    between atoms: C_42  and  O_44
REMARK   29  A    between atoms: C_45  and  O_47
REMARK   30  A    between atoms: O_47  and  P_48
REMARK   31  A    between atoms: P_48  and  O_49
REMARK   32  A    between atoms: P_48  and  O_50
REMARK                            x       y       z     vdW  Elec       q    Type
REMARK                         _______ _______ _______ _____ _____    ______ ____
ROOT
ATOM      1  P   UNL     1       6.077  -4.435  22.458  0.00  0.00    +0.483 P 
ATOM      2  O   UNL     1       5.669  -3.056  22.060  0.00  0.00    -0.227 OA
ENDROOT
BRANCH   1   3
ATOM      3  O   UNL     1       7.211  -5.009  21.483  0.00  0.00    -0.302 OA
ATOM      4  H   UNL     1       7.114  -5.967  21.332  0.00  0.00    +0.222 HD
ENDBRANCH   1   3
BRANCH   1   5
ATOM      5  O   UNL     1       4.920  -5.525  22.480  0.00  0.00    -0.186 OA
BRANCH   5   6
ATOM      6  P   UNL     1       3.817  -5.919  23.753  0.00  0.00    +0.483 P 
ATOM      7  O   UNL     1       4.700  -7.097  24.171  0.00  0.00    -0.227 OA
BRANCH   6   8
ATOM      8  O   UNL     1       2.767  -6.600  22.712  0.00  0.00    -0.302 OA
ATOM      9  H   UNL     1       3.246  -7.340  22.306  0.00  0.00    +0.222 HD
ENDBRANCH   6   8
BRANCH   6  10
ATOM     10  O   UNL     1       2.713  -6.312  25.027  0.00  0.00    -0.284 OA
BRANCH  10  11
ATOM     11  C   UNL     1       2.126  -5.146  25.611  0.00  0.00    +0.206 C 
BRANCH  11  12
ATOM     12  C   UNL     1       2.635  -4.965  27.040  0.00  0.00    +0.179 C 
ATOM     13  C   UNL     1       4.152  -4.815  27.119  0.00  0.00    +0.194 C 
ATOM     14  C   UNL     1       4.404  -3.311  27.021  0.00  0.00    +0.196 C 
ATOM     15  C   UNL     1       2.994  -2.696  27.146  0.00  0.00    +0.253 C 
ATOM     16  O   UNL     1       2.093  -3.738  27.566  0.00  0.00    -0.346 OA
BRANCH  15  17
ATOM     17  N   UNL     1       2.795  -1.554  28.003  0.00  0.00    -0.286 N 
ATOM     18  C   UNL     1       2.985  -0.230  27.736  0.00  0.00    +0.167 A 
ATOM     19  N   UNL     1       3.498   0.336  26.631  0.00  0.00    -0.216 NA
ATOM     20  C   UNL     1       3.462   1.682  26.722  0.00  0.00    +0.225 A 
ATOM     21  N   UNL     1       2.982   2.445  27.725  0.00  0.00    -0.219 NA
ATOM     22  C   UNL     1       2.468   1.826  28.811  0.00  0.00    +0.147 A 
ATOM     23  N   UNL     1       1.944   2.604  29.831  0.00  0.00    -0.341 N 
ATOM     24  H   UNL     1       1.905   2.129  30.726  0.00  0.00    +0.144 HD
ATOM     25  H   UNL     1       2.290   3.554  29.811  0.00  0.00    +0.144 HD
ATOM     26  C   UNL     1       2.482   0.424  28.852  0.00  0.00    +0.147 A 
ATOM     27  N   UNL     1       2.074  -0.479  29.812  0.00  0.00    -0.231 NA
ATOM     28  C   UNL     1       2.295  -1.658  29.282  0.00  0.00    +0.203 A 
ENDBRANCH  15  17
BRANCH  14  29
ATOM     29  O   UNL     1       5.035  -3.032  25.761  0.00  0.00    -0.385 OA
ATOM     30  H   UNL     1       4.455  -3.363  25.053  0.00  0.00    +0.210 HD
ENDBRANCH  14  29
BRANCH  13  31
ATOM     31  O   UNL     1       4.563  -5.282  28.398  0.00  0.00    -0.278 OA
BRANCH  31  32
ATOM     32  P   UNL     1       5.042  -6.799  28.528  0.00  0.00    +0.473 P 
ATOM     33  O   UNL     1       6.377  -7.030  29.145  0.00  0.00    -0.228 OA
BRANCH  32  34
ATOM     34  O   UNL     1       3.829  -7.515  29.267  0.00  0.00    -0.303 OA
ATOM     35  H   UNL     1       4.122  -8.318  29.731  0.00  0.00    +0.222 HD
ENDBRANCH  32  34
BRANCH  32  36
ATOM     36  O   UNL     1       4.942  -7.348  27.034  0.00  0.00    -0.303 OA
ATOM     37  H   UNL     1       5.592  -8.053  26.867  0.00  0.00    +0.222 HD
ENDBRANCH  32  36
ENDBRANCH  31  32
ENDBRANCH  13  31
ENDBRANCH  11  12
ENDBRANCH  10  11
ENDBRANCH   6  10
ENDBRANCH   5   6
ENDBRANCH   1   5
BRANCH   1  38
ATOM     38  O   UNL     1       6.731  -4.573  23.916  0.00  0.00    -0.286 OA
BRANCH  38  39
ATOM     39  C   UNL     1       8.033  -5.111  24.057  0.00  0.00    +0.181 C 
BRANCH  39  40
ATOM     40  C   UNL     1       8.667  -4.579  25.363  0.00  0.00    +0.024 C 
ATOM     41  C   UNL     1       7.774  -4.982  26.554  0.00  0.00    +0.016 C 
ATOM     42  C   UNL     1      10.037  -5.265  25.573  0.00  0.00    +0.016 C 
BRANCH  40  43
ATOM     43  C   UNL     1       8.884  -3.034  25.273  0.00  0.00    +0.208 C 
BRANCH  43  46
ATOM     44  N   UNL     1       8.458  -1.794  23.166  0.00  0.00    -0.313 N 
ATOM     45  H   UNL     1       7.518  -1.652  23.500  0.00  0.00    +0.149 HD
ATOM     46  C   UNL     1       9.332  -2.604  23.861  0.00  0.00    +0.242 C 
ATOM     47  O   UNL     1      10.388  -2.981  23.358  0.00  0.00    -0.273 OA
BRANCH  44  48
ATOM     48  C   UNL     1       8.824  -1.258  21.865  0.00  0.00    +0.113 C 
BRANCH  48  49
ATOM     49  C   UNL     1      10.047  -0.349  21.913  0.00  0.00    +0.114 C 
BRANCH  49  52
ATOM     50  N   UNL     1       8.501   1.463  21.462  0.00  0.00    -0.314 N 
ATOM     51  H   UNL     1       8.105   0.848  20.760  0.00  0.00    +0.149 HD
ATOM     52  C   UNL     1       9.598   1.064  22.189  0.00  0.00    +0.215 C 
ATOM     53  O   UNL     1      10.162   1.794  22.998  0.00  0.00    -0.276 OA
BRANCH  50  54
ATOM     54  C   UNL     1       7.934   2.788  21.631  0.00  0.00    +0.115 C 
BRANCH  54  55
ATOM     55  C   UNL     1       6.533   2.774  22.256  0.00  0.00    +0.096 C 
BRANCH  55  56
ATOM     56  S   UNL     1       6.441   4.081  23.515  0.00  0.00    -0.086 S 
BRANCH  56  57
ATOM     57  C   UNL     1       7.506   3.423  24.755  0.00  0.00    +0.203 C 
ATOM     58  O   UNL     1       8.609   3.905  24.999  0.00  0.00    -0.284 OA
BRANCH  57  60
ATOM     59  C   UNL     1       7.192   2.492  27.029  0.00  0.00    +0.028 C 
ATOM     60  C   UNL     1       6.926   2.275  25.542  0.00  0.00    +0.171 C 
BRANCH  60  61
ATOM     61  C   UNL     1       7.435   0.907  25.152  0.00  0.00    +0.316 C 
ATOM     62  O   UNL     1       6.707   0.072  24.626  0.00  0.00    -0.250 OA
BRANCH  61  63
ATOM     63  O   UNL     1       8.709   0.612  25.480  0.00  0.00    -0.480 OA
ATOM     64  H   UNL     1       8.818   0.039  26.275  0.00  0.00    +0.295 HD
ENDBRANCH  61  63
ENDBRANCH  60  61
ENDBRANCH  57  60
ENDBRANCH  56  57
ENDBRANCH  55  56
ENDBRANCH  54  55
ENDBRANCH  50  54
ENDBRANCH  49  52
ENDBRANCH  48  49
ENDBRANCH  44  48
ENDBRANCH  43  46
BRANCH  43  65
ATOM     65  O   UNL     1       7.683  -2.344  25.622  0.00  0.00    -0.382 OA
ATOM     66  H   UNL     1       7.101  -2.979  26.074  0.00  0.00    +0.210 HD
ENDBRANCH  43  65
ENDBRANCH  40  43
ENDBRANCH  39  40
ENDBRANCH  38  39
ENDBRANCH   1  38
TORSDOF 29
ENDMDL
MODEL 5
REMARK VINA RESULT:      -6.5      3.235      6.566
REMARK  Name = 
REMARK  32 active torsions:
REMARK  status: ('A' for Active; 'I' for Inactive)
REMARK    1  A    between atoms: C_1  and  C_2
REMARK    2  A    between atoms: C_2  and  C_4
REMARK    3  A    between atoms: C_2  and  C_7
REMARK    4  A    between atoms: C_4  and  O_5
REMARK    5  A    between atoms: C_7  and  S_9
REMARK    6  A    between atoms: S_9  and  C_10
REMARK    7  A    between atoms: C_10  and  C_11
REMARK    8  A    between atoms: C_11  and  N_12
REMARK    9  A    between atoms: C_13  and  C_15
REMARK   10  A    between atoms: C_15  and  C_16
REMARK   11  A    between atoms: C_16  and  N_17
REMARK   12  A    between atoms: C_18  and  C_20
REMARK   13  A    between atoms: C_20  and  O_22
REMARK   14  A    between atoms: C_20  and  C_23
REMARK   15  A    between atoms: C_23  and  C_24
REMARK   16  A    between atoms: C_23  and  C_25
REMARK   17  A    between atoms: C_23  and  C_26
REMARK   18  A    between atoms: C_26  and  O_27
REMARK   19  A    between atoms: O_27  and  P_28
REMARK   20  A    between atoms: P_28  and  O_29
REMARK   21  A    between atoms: P_28  and  O_31
REMARK   22  A    between atoms: O_31  and  P_32
REMARK   23  A    between atoms: P_32  and  O_33
REMARK   24  A    between atoms: P_32  and  O_35
REMARK   25  A    between atoms: O_35  and  C_36
REMARK   26  A    between atoms: C_36  and  C_37
REMARK   27  A    between atoms: C_40  and  N_52
REMARK   28  A    between atoms: C_42  and  O_44
REMARK   29  A    between atoms: C_45  and  O_47
REMARK   30  A    between atoms: O_47  and  P_48
REMARK   31  A    between atoms: P_48  and  O_49
REMARK   32  A    between atoms: P_48  and  O_50
REMARK                            x       y       z     vdW  Elec       q    Type
REMARK                         _______ _______ _______ _____ _____    ______ ____
ROOT
ATOM      1  P   UNL     1       9.002  -2.264  22.887  0.00  0.00    +0.483 P 
ATOM      2  O   UNL     1       7.810  -2.883  22.238  0.00  0.00    -0.227 OA
ENDROOT
BRANCH   1   3
ATOM      3  O   UNL     1      10.043  -1.724  21.795  0.00  0.00    -0.302 OA
ATOM      4  H   UNL     1       9.794  -1.987  20.891  0.00  0.00    +0.222 HD
ENDBRANCH   1   3
BRANCH   1   5
ATOM      5  O   UNL     1       9.833  -3.206  23.862  0.00  0.00    -0.186 OA
BRANCH   5   6
ATOM      6  P   UNL     1       9.264  -4.234  25.132  0.00  0.00    +0.483 P 
ATOM      7  O   UNL     1       9.075  -5.380  24.136  0.00  0.00    -0.227 OA
BRANCH   6   8
ATOM      8  O   UNL     1       7.805  -3.513  25.142  0.00  0.00    -0.302 OA
ATOM      9  H   UNL     1       7.750  -3.050  25.994  0.00  0.00    +0.222 HD
ENDBRANCH   6   8
BRANCH   6  10
ATOM     10  O   UNL     1       8.697  -5.262  26.403  0.00  0.00    -0.284 OA
BRANCH  10  11
ATOM     11  C   UNL     1       7.496  -4.768  27.001  0.00  0.00    +0.206 C 
BRANCH  11  12
ATOM     12  C   UNL     1       6.452  -5.880  27.070  0.00  0.00    +0.179 C 
ATOM     13  C   UNL     1       5.259  -5.524  27.954  0.00  0.00    +0.194 C 
ATOM     14  C   UNL     1       4.250  -4.871  27.009  0.00  0.00    +0.196 C 
ATOM     15  C   UNL     1       4.843  -5.131  25.608  0.00  0.00    +0.253 C 
ATOM     16  O   UNL     1       5.912  -6.084  25.750  0.00  0.00    -0.346 OA
BRANCH  15  17
ATOM     17  N   UNL     1       3.976  -5.579  24.546  0.00  0.00    -0.286 N 
ATOM     18  C   UNL     1       3.236  -6.721  24.459  0.00  0.00    +0.167 A 
ATOM     19  N   UNL     1       3.204  -7.765  25.304  0.00  0.00    -0.216 NA
ATOM     20  C   UNL     1       2.295  -8.678  24.903  0.00  0.00    +0.225 A 
ATOM     21  N   UNL     1       1.472  -8.633  23.835  0.00  0.00    -0.219 NA
ATOM     22  C   UNL     1       1.537  -7.557  23.021  0.00  0.00    +0.147 A 
ATOM     23  N   UNL     1       0.673  -7.490  21.940  0.00  0.00    -0.341 N 
ATOM     24  H   UNL     1       0.993  -6.875  21.201  0.00  0.00    +0.144 HD
ATOM     25  H   UNL     1       0.307  -8.396  21.679  0.00  0.00    +0.144 HD
ATOM     26  C   UNL     1       2.473  -6.553  23.312  0.00  0.00    +0.147 A 
ATOM     27  N   UNL     1       2.799  -5.376  22.670  0.00  0.00    -0.231 NA
ATOM     28  C   UNL     1       3.720  -4.824  23.423  0.00  0.00    +0.203 A 
ENDBRANCH  15  17
BRANCH  14  29
ATOM     29  O   UNL     1       4.153  -3.475  27.334  0.00  0.00    -0.385 OA
ATOM     30  H   UNL     1       4.857  -3.004  26.854  0.00  0.00    +0.210 HD
ENDBRANCH  14  29
BRANCH  13  31
ATOM     31  O   UNL     1       4.718  -6.741  28.455  0.00  0.00    -0.278 OA
BRANCH  31  32
ATOM     32  P   UNL     1       3.310  -6.687  29.205  0.00  0.00    +0.473 P 
ATOM     33  O   UNL     1       2.784  -5.338  29.549  0.00  0.00    -0.228 OA
BRANCH  32  34
ATOM     34  O   UNL     1       2.358  -7.563  28.280  0.00  0.00    -0.303 OA
ATOM     35  H   UNL     1       2.805  -7.822  27.456  0.00  0.00    +0.222 HD
ENDBRANCH  32  34
BRANCH  32  36
ATOM     36  O   UNL     1       3.537  -7.613  30.484  0.00  0.00    -0.303 OA
ATOM     37  H   UNL     1       3.955  -8.457  30.245  0.00  0.00    +0.222 HD
ENDBRANCH  32  36
ENDBRANCH  31  32
ENDBRANCH  13  31
ENDBRANCH  11  12
ENDBRANCH  10  11
ENDBRANCH   6  10
ENDBRANCH   5   6
ENDBRANCH   1   5
BRANCH   1  38
ATOM     38  O   UNL     1       8.708  -0.975  23.795  0.00  0.00    -0.286 OA
BRANCH  38  39
ATOM     39  C   UNL     1       9.726  -0.014  24.006  0.00  0.00    +0.181 C 
BRANCH  39  40
ATOM     40  C   UNL     1       9.223   1.373  23.546  0.00  0.00    +0.024 C 
ATOM     41  C   UNL     1       8.533   2.075  24.734  0.00  0.00    +0.016 C 
ATOM     42  C   UNL     1      10.439   2.244  23.152  0.00  0.00    +0.016 C 
BRANCH  40  43
ATOM     43  C   UNL     1       8.281   1.229  22.308  0.00  0.00    +0.208 C 
BRANCH  43  46
ATOM     44  N   UNL     1       5.966   2.075  22.592  0.00  0.00    -0.313 N 
ATOM     45  H   UNL     1       5.686   1.115  22.718  0.00  0.00    +0.149 HD
ATOM     46  C   UNL     1       7.261   2.384  22.232  0.00  0.00    +0.242 C 
ATOM     47  O   UNL     1       7.563   3.509  21.842  0.00  0.00    -0.273 OA
BRANCH  44  48
ATOM     48  C   UNL     1       4.947   3.111  22.644  0.00  0.00    +0.113 C 
BRANCH  48  49
ATOM     49  C   UNL     1       4.221   3.171  23.984  0.00  0.00    +0.114 C 
BRANCH  49  52
ATOM     50  N   UNL     1       4.636   3.850  26.273  0.00  0.00    -0.314 N 
ATOM     51  H   UNL     1       3.764   3.380  26.490  0.00  0.00    +0.149 HD
ATOM     52  C   UNL     1       5.077   3.921  24.973  0.00  0.00    +0.215 C 
ATOM     53  O   UNL     1       6.085   4.539  24.645  0.00  0.00    -0.276 OA
BRANCH  50  54
ATOM     54  C   UNL     1       5.364   4.501  27.347  0.00  0.00    +0.115 C 
BRANCH  54  55
ATOM     55  C   UNL     1       6.385   3.583  28.030  0.00  0.00    +0.096 C 
BRANCH  55  56
ATOM     56  S   UNL     1       5.538   2.077  28.590  0.00  0.00    -0.086 S 
BRANCH  56  57
ATOM     57  C   UNL     1       6.150   0.902  27.428  0.00  0.00    +0.203 C 
ATOM     58  O   UNL     1       7.281   0.430  27.501  0.00  0.00    -0.284 OA
BRANCH  57  60
ATOM     59  C   UNL     1       3.852   0.048  27.071  0.00  0.00    +0.028 C 
ATOM     60  C   UNL     1       5.150   0.465  26.386  0.00  0.00    +0.171 C 
BRANCH  60  61
ATOM     61  C   UNL     1       5.609  -0.660  25.488  0.00  0.00    +0.316 C 
ATOM     62  O   UNL     1       5.842  -1.781  25.925  0.00  0.00    -0.250 OA
BRANCH  61  63
ATOM     63  O   UNL     1       5.829  -0.357  24.194  0.00  0.00    -0.480 OA
ATOM     64  H   UNL     1       6.567  -0.850  23.764  0.00  0.00    +0.295 HD
ENDBRANCH  61  63
ENDBRANCH  60  61
ENDBRANCH  57  60
ENDBRANCH  56  57
ENDBRANCH  55  56
ENDBRANCH  54  55
ENDBRANCH  50  54
ENDBRANCH  49  52
ENDBRANCH  48  49
ENDBRANCH  44  48
ENDBRANCH  43  46
BRANCH  43  65
ATOM     65  O   UNL     1       9.048   1.190  21.104  0.00  0.00    -0.382 OA
ATOM     66  H   UNL     1       8.556   0.655  20.459  0.00  0.00    +0.210 HD
ENDBRANCH  43  65
ENDBRANCH  40  43
ENDBRANCH  39  40
ENDBRANCH  38  39
ENDBRANCH   1  38
TORSDOF 29
ENDMDL
MODEL 6
REMARK VINA RESULT:      -6.5      3.382      7.636
REMARK  Name = 
REMARK  32 active torsions:
REMARK  status: ('A' for Active; 'I' for Inactive)
REMARK    1  A    between atoms: C_1  and  C_2
REMARK    2  A    between atoms: C_2  and  C_4
REMARK    3  A    between atoms: C_2  and  C_7
REMARK    4  A    between atoms: C_4  and  O_5
REMARK    5  A    between atoms: C_7  and  S_9
REMARK    6  A    between atoms: S_9  and  C_10
REMARK    7  A    between atoms: C_10  and  C_11
REMARK    8  A    between atoms: C_11  and  N_12
REMARK    9  A    between atoms: C_13  and  C_15
REMARK   10  A    between atoms: C_15  and  C_16
REMARK   11  A    between atoms: C_16  and  N_17
REMARK   12  A    between atoms: C_18  and  C_20
REMARK   13  A    between atoms: C_20  and  O_22
REMARK   14  A    between atoms: C_20  and  C_23
REMARK   15  A    between atoms: C_23  and  C_24
REMARK   16  A    between atoms: C_23  and  C_25
REMARK   17  A    between atoms: C_23  and  C_26
REMARK   18  A    between atoms: C_26  and  O_27
REMARK   19  A    between atoms: O_27  and  P_28
REMARK   20  A    between atoms: P_28  and  O_29
REMARK   21  A    between atoms: P_28  and  O_31
REMARK   22  A    between atoms: O_31  and  P_32
REMARK   23  A    between atoms: P_32  and  O_33
REMARK   24  A    between atoms: P_32  and  O_35
REMARK   25  A    between atoms: O_35  and  C_36
REMARK   26  A    between atoms: C_36  and  C_37
REMARK   27  A    between atoms: C_40  and  N_52
REMARK   28  A    between atoms: C_42  and  O_44
REMARK   29  A    between atoms: C_45  and  O_47
REMARK   30  A    between atoms: O_47  and  P_48
REMARK   31  A    between atoms: P_48  and  O_49
REMARK   32  A    between atoms: P_48  and  O_50
REMARK                            x       y       z     vdW  Elec       q    Type
REMARK                         _______ _______ _______ _____ _____    ______ ____
ROOT
ATOM      1  P   UNL     1      10.384   2.617  23.436  0.00  0.00    +0.483 P 
ATOM      2  O   UNL     1      11.651   3.404  23.389  0.00  0.00    -0.227 OA
ENDROOT
BRANCH   1   3
ATOM      3  O   UNL     1      10.217   1.871  24.844  0.00  0.00    -0.302 OA
ATOM      4  H   UNL     1      10.431   2.454  25.595  0.00  0.00    +0.222 HD
ENDBRANCH   1   3
BRANCH   1   5
ATOM      5  O   UNL     1      10.217   1.497  22.321  0.00  0.00    -0.186 OA
BRANCH   5   6
ATOM      6  P   UNL     1       9.180   0.113  22.311  0.00  0.00    +0.483 P 
ATOM      7  O   UNL     1       9.119   0.154  20.782  0.00  0.00    -0.227 OA
BRANCH   6   8
ATOM      8  O   UNL     1       7.890   1.003  22.753  0.00  0.00    -0.302 OA
ATOM      9  H   UNL     1       7.163   0.708  22.182  0.00  0.00    +0.222 HD
ENDBRANCH   6   8
BRANCH   6  10
ATOM     10  O   UNL     1       8.143  -1.273  22.302  0.00  0.00    -0.284 OA
BRANCH  10  11
ATOM     11  C   UNL     1       6.947  -1.057  23.056  0.00  0.00    +0.206 C 
BRANCH  11  12
ATOM     12  C   UNL     1       6.089  -2.321  23.047  0.00  0.00    +0.179 C 
ATOM     13  C   UNL     1       6.805  -3.523  22.437  0.00  0.00    +0.194 C 
ATOM     14  C   UNL     1       7.498  -4.208  23.615  0.00  0.00    +0.196 C 
ATOM     15  C   UNL     1       6.917  -3.485  24.849  0.00  0.00    +0.253 C 
ATOM     16  O   UNL     1       5.802  -2.687  24.410  0.00  0.00    -0.346 OA
BRANCH  15  17
ATOM     17  N   UNL     1       6.498  -4.260  25.990  0.00  0.00    -0.286 N 
ATOM     18  C   UNL     1       5.355  -4.983  26.171  0.00  0.00    +0.167 A 
ATOM     19  N   UNL     1       4.286  -5.075  25.363  0.00  0.00    -0.216 NA
ATOM     20  C   UNL     1       3.381  -5.942  25.863  0.00  0.00    +0.225 A 
ATOM     21  N   UNL     1       3.454  -6.676  26.993  0.00  0.00    -0.219 NA
ATOM     22  C   UNL     1       4.556  -6.554  27.766  0.00  0.00    +0.147 A 
ATOM     23  N   UNL     1       4.651  -7.329  28.910  0.00  0.00    -0.341 N 
ATOM     24  H   UNL     1       5.290  -6.955  29.603  0.00  0.00    +0.144 HD
ATOM     25  H   UNL     1       3.752  -7.666  29.227  0.00  0.00    +0.144 HD
ATOM     26  C   UNL     1       5.555  -5.652  27.370  0.00  0.00    +0.147 A 
ATOM     27  N   UNL     1       6.752  -5.284  27.948  0.00  0.00    -0.231 NA
ATOM     28  C   UNL     1       7.285  -4.430  27.107  0.00  0.00    +0.203 A 
ENDBRANCH  15  17
BRANCH  14  29
ATOM     29  O   UNL     1       8.917  -4.040  23.475  0.00  0.00    -0.385 OA
ATOM     30  H   UNL     1       9.140  -3.127  23.727  0.00  0.00    +0.210 HD
ENDBRANCH  14  29
BRANCH  13  31
ATOM     31  O   UNL     1       5.810  -4.390  21.904  0.00  0.00    -0.278 OA
BRANCH  31  32
ATOM     32  P   UNL     1       6.132  -5.951  21.831  0.00  0.00    +0.473 P 
ATOM     33  O   UNL     1       7.559  -6.349  21.963  0.00  0.00    -0.228 OA
BRANCH  32  34
ATOM     34  O   UNL     1       5.155  -6.587  22.914  0.00  0.00    -0.303 OA
ATOM     35  H   UNL     1       5.159  -7.559  22.866  0.00  0.00    +0.222 HD
ENDBRANCH  32  34
BRANCH  32  36
ATOM     36  O   UNL     1       5.485  -6.397  20.443  0.00  0.00    -0.303 OA
ATOM     37  H   UNL     1       4.555  -6.663  20.550  0.00  0.00    +0.222 HD
ENDBRANCH  32  36
ENDBRANCH  31  32
ENDBRANCH  13  31
ENDBRANCH  11  12
ENDBRANCH  10  11
ENDBRANCH   6  10
ENDBRANCH   5   6
ENDBRANCH   1   5
BRANCH   1  38
ATOM     38  O   UNL     1       9.032   3.468  23.298  0.00  0.00    -0.286 OA
BRANCH  38  39
ATOM     39  C   UNL     1       8.685   4.408  24.300  0.00  0.00    +0.181 C 
BRANCH  39  40
ATOM     40  C   UNL     1       7.608   5.369  23.748  0.00  0.00    +0.024 C 
ATOM     41  C   UNL     1       6.531   5.590  24.830  0.00  0.00    +0.016 C 
ATOM     42  C   UNL     1       8.257   6.746  23.470  0.00  0.00    +0.016 C 
BRANCH  40  43
ATOM     43  C   UNL     1       7.012   4.813  22.415  0.00  0.00    +0.208 C 
BRANCH  43  46
ATOM     44  N   UNL     1       4.600   4.315  22.110  0.00  0.00    -0.313 N 
ATOM     45  H   UNL     1       4.513   5.237  21.712  0.00  0.00    +0.149 HD
ATOM     46  C   UNL     1       5.791   3.906  22.674  0.00  0.00    +0.242 C 
ATOM     47  O   UNL     1       5.852   2.895  23.369  0.00  0.00    -0.273 OA
BRANCH  44  48
ATOM     48  C   UNL     1       3.410   3.487  22.215  0.00  0.00    +0.113 C 
BRANCH  48  49
ATOM     49  C   UNL     1       2.304   4.129  23.045  0.00  0.00    +0.114 C 
BRANCH  49  52
ATOM     50  N   UNL     1       3.064   4.415  25.329  0.00  0.00    -0.314 N 
ATOM     51  H   UNL     1       3.525   5.252  24.990  0.00  0.00    +0.149 HD
ATOM     52  C   UNL     1       2.379   3.603  24.456  0.00  0.00    +0.215 C 
ATOM     53  O   UNL     1       1.866   2.541  24.797  0.00  0.00    -0.276 OA
BRANCH  50  54
ATOM     54  C   UNL     1       3.205   4.058  26.728  0.00  0.00    +0.115 C 
BRANCH  54  55
ATOM     55  C   UNL     1       4.519   3.330  27.039  0.00  0.00    +0.096 C 
BRANCH  55  56
ATOM     56  S   UNL     1       4.133   1.699  27.740  0.00  0.00    -0.086 S 
BRANCH  56  57
ATOM     57  C   UNL     1       4.997   0.646  26.622  0.00  0.00    +0.203 C 
ATOM     58  O   UNL     1       4.570   0.381  25.502  0.00  0.00    -0.284 OA
BRANCH  57  60
ATOM     59  C   UNL     1       6.605   0.743  28.504  0.00  0.00    +0.028 C 
ATOM     60  C   UNL     1       6.336   0.160  27.120  0.00  0.00    +0.171 C 
BRANCH  60  61
ATOM     61  C   UNL     1       7.508   0.477  26.222  0.00  0.00    +0.316 C 
ATOM     62  O   UNL     1       8.528  -0.203  26.228  0.00  0.00    -0.250 OA
BRANCH  61  63
ATOM     63  O   UNL     1       7.418   1.591  25.469  0.00  0.00    -0.480 OA
ATOM     64  H   UNL     1       7.555   2.439  25.952  0.00  0.00    +0.295 HD
ENDBRANCH  61  63
ENDBRANCH  60  61
ENDBRANCH  57  60
ENDBRANCH  56  57
ENDBRANCH  55  56
ENDBRANCH  54  55
ENDBRANCH  50  54
ENDBRANCH  49  52
ENDBRANCH  48  49
ENDBRANCH  44  48
ENDBRANCH  43  46
BRANCH  43  65
ATOM     65  O   UNL     1       6.634   5.887  21.555  0.00  0.00    -0.382 OA
ATOM     66  H   UNL     1       7.449   6.328  21.260  0.00  0.00    +0.210 HD
ENDBRANCH  43  65
ENDBRANCH  40  43
ENDBRANCH  39  40
ENDBRANCH  38  39
ENDBRANCH   1  38
TORSDOF 29
ENDMDL
MODEL 7
REMARK VINA RESULT:      -6.3      4.363      8.175
REMARK  Name = 
REMARK  32 active torsions:
REMARK  status: ('A' for Active; 'I' for Inactive)
REMARK    1  A    between atoms: C_1  and  C_2
REMARK    2  A    between atoms: C_2  and  C_4
REMARK    3  A    between atoms: C_2  and  C_7
REMARK    4  A    between atoms: C_4  and  O_5
REMARK    5  A    between atoms: C_7  and  S_9
REMARK    6  A    between atoms: S_9  and  C_10
REMARK    7  A    between atoms: C_10  and  C_11
REMARK    8  A    between atoms: C_11  and  N_12
REMARK    9  A    between atoms: C_13  and  C_15
REMARK   10  A    between atoms: C_15  and  C_16
REMARK   11  A    between atoms: C_16  and  N_17
REMARK   12  A    between atoms: C_18  and  C_20
REMARK   13  A    between atoms: C_20  and  O_22
REMARK   14  A    between atoms: C_20  and  C_23
REMARK   15  A    between atoms: C_23  and  C_24
REMARK   16  A    between atoms: C_23  and  C_25
REMARK   17  A    between atoms: C_23  and  C_26
REMARK   18  A    between atoms: C_26  and  O_27
REMARK   19  A    between atoms: O_27  and  P_28
REMARK   20  A    between atoms: P_28  and  O_29
REMARK   21  A    between atoms: P_28  and  O_31
REMARK   22  A    between atoms: O_31  and  P_32
REMARK   23  A    between atoms: P_32  and  O_33
REMARK   24  A    between atoms: P_32  and  O_35
REMARK   25  A    between atoms: O_35  and  C_36
REMARK   26  A    between atoms: C_36  and  C_37
REMARK   27  A    between atoms: C_40  and  N_52
REMARK   28  A    between atoms: C_42  and  O_44
REMARK   29  A    between atoms: C_45  and  O_47
REMARK   30  A    between atoms: O_47  and  P_48
REMARK   31  A    between atoms: P_48  and  O_49
REMARK   32  A    between atoms: P_48  and  O_50
REMARK                            x       y       z     vdW  Elec       q    Type
REMARK                         _______ _______ _______ _____ _____    ______ ____
ROOT
ATOM      1  P   UNL     1       4.013  -1.875  26.615  0.00  0.00    +0.483 P 
ATOM      2  O   UNL     1       4.628  -2.464  25.390  0.00  0.00    -0.227 OA
ENDROOT
BRANCH   1   3
ATOM      3  O   UNL     1       2.463  -1.544  26.385  0.00  0.00    -0.302 OA
ATOM      4  H   UNL     1       1.903  -2.338  26.459  0.00  0.00    +0.222 HD
ENDBRANCH   1   3
BRANCH   1   5
ATOM      5  O   UNL     1       4.676  -0.534  27.153  0.00  0.00    -0.186 OA
BRANCH   5   6
ATOM      6  P   UNL     1       4.935   0.963  26.326  0.00  0.00    +0.483 P 
ATOM      7  O   UNL     1       3.433   1.252  26.354  0.00  0.00    -0.227 OA
BRANCH   6   8
ATOM      8  O   UNL     1       5.136   0.208  24.898  0.00  0.00    -0.302 OA
ATOM      9  H   UNL     1       5.543  -0.648  25.112  0.00  0.00    +0.222 HD
ENDBRANCH   6   8
BRANCH   6  10
ATOM     10  O   UNL     1       5.194   2.461  25.499  0.00  0.00    -0.284 OA
BRANCH  10  11
ATOM     11  C   UNL     1       4.026   3.286  25.497  0.00  0.00    +0.206 C 
BRANCH  11  12
ATOM     12  C   UNL     1       4.164   4.385  24.445  0.00  0.00    +0.179 C 
ATOM     13  C   UNL     1       5.381   4.197  23.543  0.00  0.00    +0.194 C 
ATOM     14  C   UNL     1       4.872   3.369  22.363  0.00  0.00    +0.196 C 
ATOM     15  C   UNL     1       3.341   3.360  22.558  0.00  0.00    +0.253 C 
ATOM     16  O   UNL     1       3.019   4.330  23.573  0.00  0.00    -0.346 OA
BRANCH  15  17
ATOM     17  N   UNL     1       2.482   3.592  21.423  0.00  0.00    -0.286 N 
ATOM     18  C   UNL     1       2.241   4.750  20.744  0.00  0.00    +0.167 A 
ATOM     19  N   UNL     1       2.673   5.991  21.025  0.00  0.00    -0.216 NA
ATOM     20  C   UNL     1       2.272   6.863  20.077  0.00  0.00    +0.225 A 
ATOM     21  N   UNL     1       1.555   6.621  18.960  0.00  0.00    -0.219 NA
ATOM     22  C   UNL     1       1.152   5.354  18.720  0.00  0.00    +0.147 A 
ATOM     23  N   UNL     1       0.443   5.093  17.558  0.00  0.00    -0.341 N 
ATOM     24  H   UNL     1      -0.115   4.248  17.603  0.00  0.00    +0.144 HD
ATOM     25  H   UNL     1       0.017   5.924  17.169  0.00  0.00    +0.144 HD
ATOM     26  C   UNL     1       1.477   4.359  19.654  0.00  0.00    +0.147 A 
ATOM     27  N   UNL     1       1.187   3.012  19.711  0.00  0.00    -0.231 NA
ATOM     28  C   UNL     1       1.786   2.583  20.796  0.00  0.00    +0.203 A 
ENDBRANCH  15  17
BRANCH  14  29
ATOM     29  O   UNL     1       5.460   2.060  22.432  0.00  0.00    -0.385 OA
ATOM     30  H   UNL     1       5.227   1.669  23.292  0.00  0.00    +0.210 HD
ENDBRANCH  14  29
BRANCH  13  31
ATOM     31  O   UNL     1       5.776   5.483  23.082  0.00  0.00    -0.278 OA
BRANCH  31  32
ATOM     32  P   UNL     1       7.275   5.672  22.568  0.00  0.00    +0.473 P 
ATOM     33  O   UNL     1       8.277   6.123  23.571  0.00  0.00    -0.228 OA
BRANCH  32  34
ATOM     34  O   UNL     1       7.608   4.285  21.864  0.00  0.00    -0.303 OA
ATOM     35  H   UNL     1       8.249   4.400  21.141  0.00  0.00    +0.222 HD
ENDBRANCH  32  34
BRANCH  32  36
ATOM     36  O   UNL     1       7.122   6.681  21.342  0.00  0.00    -0.303 OA
ATOM     37  H   UNL     1       7.584   7.520  21.509  0.00  0.00    +0.222 HD
ENDBRANCH  32  36
ENDBRANCH  31  32
ENDBRANCH  13  31
ENDBRANCH  11  12
ENDBRANCH  10  11
ENDBRANCH   6  10
ENDBRANCH   5   6
ENDBRANCH   1   5
BRANCH   1  38
ATOM     38  O   UNL     1       4.007  -2.819  27.912  0.00  0.00    -0.286 OA
BRANCH  38  39
ATOM     39  C   UNL     1       4.982  -3.838  28.046  0.00  0.00    +0.181 C 
BRANCH  39  40
ATOM     40  C   UNL     1       4.355  -5.054  28.766  0.00  0.00    +0.024 C 
ATOM     41  C   UNL     1       5.149  -5.336  30.057  0.00  0.00    +0.016 C 
ATOM     42  C   UNL     1       2.911  -4.696  29.192  0.00  0.00    +0.016 C 
BRANCH  40  43
ATOM     43  C   UNL     1       4.309  -6.289  27.810  0.00  0.00    +0.208 C 
BRANCH  43  46
ATOM     44  N   UNL     1       4.848  -5.841  25.429  0.00  0.00    -0.313 N 
ATOM     45  H   UNL     1       3.855  -5.863  25.254  0.00  0.00    +0.149 HD
ATOM     46  C   UNL     1       5.346  -6.166  26.673  0.00  0.00    +0.242 C 
ATOM     47  O   UNL     1       6.544  -6.377  26.844  0.00  0.00    -0.273 OA
BRANCH  44  48
ATOM     48  C   UNL     1       5.747  -5.611  24.311  0.00  0.00    +0.113 C 
BRANCH  48  49
ATOM     49  C   UNL     1       5.024  -5.193  23.035  0.00  0.00    +0.114 C 
BRANCH  49  52
ATOM     50  N   UNL     1       6.733  -3.484  23.226  0.00  0.00    -0.314 N 
ATOM     51  H   UNL     1       6.908  -3.870  24.146  0.00  0.00    +0.149 HD
ATOM     52  C   UNL     1       5.722  -3.994  22.444  0.00  0.00    +0.215 C 
ATOM     53  O   UNL     1       5.418  -3.518  21.355  0.00  0.00    -0.276 OA
BRANCH  50  54
ATOM     54  C   UNL     1       7.515  -2.344  22.785  0.00  0.00    +0.115 C 
BRANCH  54  55
ATOM     55  C   UNL     1       8.819  -2.163  23.572  0.00  0.00    +0.096 C 
BRANCH  55  56
ATOM     56  S   UNL     1       8.545  -0.939  24.887  0.00  0.00    -0.086 S 
BRANCH  56  57
ATOM     57  C   UNL     1       8.701   0.563  23.979  0.00  0.00    +0.203 C 
ATOM     58  O   UNL     1       7.780   1.369  23.876  0.00  0.00    -0.284 OA
BRANCH  57  60
ATOM     59  C   UNL     1      11.108   0.769  24.527  0.00  0.00    +0.028 C 
ATOM     60  C   UNL     1      10.073   0.815  23.406  0.00  0.00    +0.171 C 
BRANCH  60  61
ATOM     61  C   UNL     1      10.226   2.117  22.656  0.00  0.00    +0.316 C 
ATOM     62  O   UNL     1      10.895   3.044  23.100  0.00  0.00    -0.250 OA
BRANCH  61  63
ATOM     63  O   UNL     1       9.529   2.248  21.510  0.00  0.00    -0.480 OA
ATOM     64  H   UNL     1      10.054   2.142  20.682  0.00  0.00    +0.295 HD
ENDBRANCH  61  63
ENDBRANCH  60  61
ENDBRANCH  57  60
ENDBRANCH  56  57
ENDBRANCH  55  56
ENDBRANCH  54  55
ENDBRANCH  50  54
ENDBRANCH  49  52
ENDBRANCH  48  49
ENDBRANCH  44  48
ENDBRANCH  43  46
BRANCH  43  65
ATOM     65  O   UNL     1       4.544  -7.491  28.542  0.00  0.00    -0.382 OA
ATOM     66  H   UNL     1       5.495  -7.530  28.744  0.00  0.00    +0.210 HD
ENDBRANCH  43  65
ENDBRANCH  40  43
ENDBRANCH  39  40
ENDBRANCH  38  39
ENDBRANCH   1  38
TORSDOF 29
ENDMDL
MODEL 8
REMARK VINA RESULT:      -6.2      2.892      6.182
REMARK  Name = 
REMARK  32 active torsions:
REMARK  status: ('A' for Active; 'I' for Inactive)
REMARK    1  A    between atoms: C_1  and  C_2
REMARK    2  A    between atoms: C_2  and  C_4
REMARK    3  A    between atoms: C_2  and  C_7
REMARK    4  A    between atoms: C_4  and  O_5
REMARK    5  A    between atoms: C_7  and  S_9
REMARK    6  A    between atoms: S_9  and  C_10
REMARK    7  A    between atoms: C_10  and  C_11
REMARK    8  A    between atoms: C_11  and  N_12
REMARK    9  A    between atoms: C_13  and  C_15
REMARK   10  A    between atoms: C_15  and  C_16
REMARK   11  A    between atoms: C_16  and  N_17
REMARK   12  A    between atoms: C_18  and  C_20
REMARK   13  A    between atoms: C_20  and  O_22
REMARK   14  A    between atoms: C_20  and  C_23
REMARK   15  A    between atoms: C_23  and  C_24
REMARK   16  A    between atoms: C_23  and  C_25
REMARK   17  A    between atoms: C_23  and  C_26
REMARK   18  A    between atoms: C_26  and  O_27
REMARK   19  A    between atoms: O_27  and  P_28
REMARK   20  A    between atoms: P_28  and  O_29
REMARK   21  A    between atoms: P_28  and  O_31
REMARK   22  A    between atoms: O_31  and  P_32
REMARK   23  A    between atoms: P_32  and  O_33
REMARK   24  A    between atoms: P_32  and  O_35
REMARK   25  A    between atoms: O_35  and  C_36
REMARK   26  A    between atoms: C_36  and  C_37
REMARK   27  A    between atoms: C_40  and  N_52
REMARK   28  A    between atoms: C_42  and  O_44
REMARK   29  A    between atoms: C_45  and  O_47
REMARK   30  A    between atoms: O_47  and  P_48
REMARK   31  A    between atoms: P_48  and  O_49
REMARK   32  A    between atoms: P_48  and  O_50
REMARK                            x       y       z     vdW  Elec       q    Type
REMARK                         _______ _______ _______ _____ _____    ______ ____
ROOT
ATOM      1  P   UNL     1       3.991  -6.777  25.277  0.00  0.00    +0.483 P 
ATOM      2  O   UNL     1       3.265  -8.063  25.064  0.00  0.00    -0.227 OA
ENDROOT
BRANCH   1   3
ATOM      3  O   UNL     1       2.997  -5.525  25.170  0.00  0.00    -0.302 OA
ATOM      4  H   UNL     1       3.390  -4.713  25.538  0.00  0.00    +0.222 HD
ENDBRANCH   1   3
BRANCH   1   5
ATOM      5  O   UNL     1       5.188  -6.477  24.274  0.00  0.00    -0.186 OA
BRANCH   5   6
ATOM      6  P   UNL     1       5.250  -5.366  22.950  0.00  0.00    +0.483 P 
ATOM      7  O   UNL     1       3.796  -5.686  22.597  0.00  0.00    -0.227 OA
BRANCH   6   8
ATOM      8  O   UNL     1       6.090  -6.416  22.032  0.00  0.00    -0.302 OA
ATOM      9  H   UNL     1       6.971  -6.022  21.926  0.00  0.00    +0.222 HD
ENDBRANCH   6   8
BRANCH   6  10
ATOM     10  O   UNL     1       5.312  -4.253  21.626  0.00  0.00    -0.284 OA
BRANCH  10  11
ATOM     11  C   UNL     1       6.514  -3.479  21.629  0.00  0.00    +0.206 C 
BRANCH  11  12
ATOM     12  C   UNL     1       6.860  -3.056  23.055  0.00  0.00    +0.179 C 
ATOM     13  C   UNL     1       8.353  -3.148  23.359  0.00  0.00    +0.194 C 
ATOM     14  C   UNL     1       8.914  -1.772  22.998  0.00  0.00    +0.196 C 
ATOM     15  C   UNL     1       7.652  -0.918  22.752  0.00  0.00    +0.253 C 
ATOM     16  O   UNL     1       6.513  -1.666  23.217  0.00  0.00    -0.346 OA
BRANCH  15  17
ATOM     17  N   UNL     1       7.579   0.410  23.308  0.00  0.00    -0.286 N 
ATOM     18  C   UNL     1       8.550   1.362  23.402  0.00  0.00    +0.167 A 
ATOM     19  N   UNL     1       9.852   1.265  23.084  0.00  0.00    -0.216 NA
ATOM     20  C   UNL     1      10.478   2.447  23.260  0.00  0.00    +0.225 A 
ATOM     21  N   UNL     1       9.957   3.622  23.672  0.00  0.00    -0.219 NA
ATOM     22  C   UNL     1       8.640   3.669  23.971  0.00  0.00    +0.147 A 
ATOM     23  N   UNL     1       8.092   4.879  24.363  0.00  0.00    -0.341 N 
ATOM     24  H   UNL     1       7.234   4.785  24.894  0.00  0.00    +0.144 HD
ATOM     25  H   UNL     1       8.790   5.530  24.701  0.00  0.00    +0.144 HD
ATOM     26  C   UNL     1       7.886   2.490  23.863  0.00  0.00    +0.147 A 
ATOM     27  N   UNL     1       6.560   2.212  24.123  0.00  0.00    -0.231 NA
ATOM     28  C   UNL     1       6.411   0.949  23.802  0.00  0.00    +0.203 A 
ENDBRANCH  15  17
BRANCH  14  29
ATOM     29  O   UNL     1       9.745  -1.906  21.835  0.00  0.00    -0.385 OA
ATOM     30  H   UNL     1       9.378  -1.339  21.134  0.00  0.00    +0.210 HD
ENDBRANCH  14  29
BRANCH  13  31
ATOM     31  O   UNL     1       8.493  -3.364  24.758  0.00  0.00    -0.278 OA
BRANCH  31  32
ATOM     32  P   UNL     1       8.815  -4.843  25.264  0.00  0.00    +0.473 P 
ATOM     33  O   UNL     1       9.914  -4.988  26.256  0.00  0.00    -0.228 OA
BRANCH  32  34
ATOM     34  O   UNL     1       7.402  -5.393  25.743  0.00  0.00    -0.303 OA
ATOM     35  H   UNL     1       7.211  -6.264  25.354  0.00  0.00    +0.222 HD
ENDBRANCH  32  34
BRANCH  32  36
ATOM     36  O   UNL     1       9.085  -5.645  23.912  0.00  0.00    -0.303 OA
ATOM     37  H   UNL     1       9.423  -6.540  24.088  0.00  0.00    +0.222 HD
ENDBRANCH  32  36
ENDBRANCH  31  32
ENDBRANCH  13  31
ENDBRANCH  11  12
ENDBRANCH  10  11
ENDBRANCH   6  10
ENDBRANCH   5   6
ENDBRANCH   1   5
BRANCH   1  38
ATOM     38  O   UNL     1       4.672  -6.594  26.717  0.00  0.00    -0.286 OA
BRANCH  38  39
ATOM     39  C   UNL     1       3.872  -6.265  27.839  0.00  0.00    +0.181 C 
BRANCH  39  40
ATOM     40  C   UNL     1       4.532  -5.101  28.613  0.00  0.00    +0.024 C 
ATOM     41  C   UNL     1       4.341  -5.334  30.126  0.00  0.00    +0.016 C 
ATOM     42  C   UNL     1       6.055  -5.116  28.342  0.00  0.00    +0.016 C 
BRANCH  40  43
ATOM     43  C   UNL     1       3.948  -3.731  28.141  0.00  0.00    +0.208 C 
BRANCH  43  46
ATOM     44  N   UNL     1       5.494  -1.895  27.511  0.00  0.00    -0.313 N 
ATOM     45  H   UNL     1       5.222  -1.442  28.370  0.00  0.00    +0.149 HD
ATOM     46  C   UNL     1       4.864  -3.051  27.101  0.00  0.00    +0.242 C 
ATOM     47  O   UNL     1       5.006  -3.484  25.960  0.00  0.00    -0.273 OA
BRANCH  44  48
ATOM     48  C   UNL     1       6.448  -1.227  26.642  0.00  0.00    +0.113 C 
BRANCH  48  49
ATOM     49  C   UNL     1       7.293  -0.185  27.368  0.00  0.00    +0.114 C 
BRANCH  49  52
ATOM     50  N   UNL     1       6.210   1.982  27.301  0.00  0.00    -0.314 N 
ATOM     51  H   UNL     1       6.732   2.132  26.446  0.00  0.00    +0.149 HD
ATOM     52  C   UNL     1       6.379   0.822  28.020  0.00  0.00    +0.215 C 
ATOM     53  O   UNL     1       5.830   0.619  29.098  0.00  0.00    -0.276 OA
BRANCH  50  54
ATOM     54  C   UNL     1       5.342   3.040  27.784  0.00  0.00    +0.115 C 
BRANCH  54  55
ATOM     55  C   UNL     1       5.526   4.366  27.036  0.00  0.00    +0.096 C 
BRANCH  55  56
ATOM     56  S   UNL     1       3.960   4.804  26.225  0.00  0.00    -0.086 S 
BRANCH  56  57
ATOM     57  C   UNL     1       4.552   5.619  24.779  0.00  0.00    +0.203 C 
ATOM     58  O   UNL     1       5.562   6.316  24.783  0.00  0.00    -0.284 OA
BRANCH  57  60
ATOM     59  C   UNL     1       2.381   4.810  23.903  0.00  0.00    +0.028 C 
ATOM     60  C   UNL     1       3.765   5.330  23.526  0.00  0.00    +0.171 C 
BRANCH  60  61
ATOM     61  C   UNL     1       4.410   4.349  22.575  0.00  0.00    +0.316 C 
ATOM     62  O   UNL     1       3.832   3.333  22.204  0.00  0.00    -0.250 OA
BRANCH  61  63
ATOM     63  O   UNL     1       5.684   4.597  22.212  0.00  0.00    -0.480 OA
ATOM     64  H   UNL     1       5.926   5.550  22.146  0.00  0.00    +0.295 HD
ENDBRANCH  61  63
ENDBRANCH  60  61
ENDBRANCH  57  60
ENDBRANCH  56  57
ENDBRANCH  55  56
ENDBRANCH  54  55
ENDBRANCH  50  54
ENDBRANCH  49  52
ENDBRANCH  48  49
ENDBRANCH  44  48
ENDBRANCH  43  46
BRANCH  43  65
ATOM     65  O   UNL     1       2.647  -3.914  27.582  0.00  0.00    -0.382 OA
ATOM     66  H   UNL     1       2.009  -3.905  28.316  0.00  0.00    +0.210 HD
ENDBRANCH  43  65
ENDBRANCH  40  43
ENDBRANCH  39  40
ENDBRANCH  38  39
ENDBRANCH   1  38
TORSDOF 29
ENDMDL
MODEL 9
REMARK VINA RESULT:      -6.2      3.968      8.669
REMARK  Name = 
REMARK  32 active torsions:
REMARK  status: ('A' for Active; 'I' for Inactive)
REMARK    1  A    between atoms: C_1  and  C_2
REMARK    2  A    between atoms: C_2  and  C_4
REMARK    3  A    between atoms: C_2  and  C_7
REMARK    4  A    between atoms: C_4  and  O_5
REMARK    5  A    between atoms: C_7  and  S_9
REMARK    6  A    between atoms: S_9  and  C_10
REMARK    7  A    between atoms: C_10  and  C_11
REMARK    8  A    between atoms: C_11  and  N_12
REMARK    9  A    between atoms: C_13  and  C_15
REMARK   10  A    between atoms: C_15  and  C_16
REMARK   11  A    between atoms: C_16  and  N_17
REMARK   12  A    between atoms: C_18  and  C_20
REMARK   13  A    between atoms: C_20  and  O_22
REMARK   14  A    between atoms: C_20  and  C_23
REMARK   15  A    between atoms: C_23  and  C_24
REMARK   16  A    between atoms: C_23  and  C_25
REMARK   17  A    between atoms: C_23  and  C_26
REMARK   18  A    between atoms: C_26  and  O_27
REMARK   19  A    between atoms: O_27  and  P_28
REMARK   20  A    between atoms: P_28  and  O_29
REMARK   21  A    between atoms: P_28  and  O_31
REMARK   22  A    between atoms: O_31  and  P_32
REMARK   23  A    between atoms: P_32  and  O_33
REMARK   24  A    between atoms: P_32  and  O_35
REMARK   25  A    between atoms: O_35  and  C_36
REMARK   26  A    between atoms: C_36  and  C_37
REMARK   27  A    between atoms: C_40  and  N_52
REMARK   28  A    between atoms: C_42  and  O_44
REMARK   29  A    between atoms: C_45  and  O_47
REMARK   30  A    between atoms: O_47  and  P_48
REMARK   31  A    between atoms: P_48  and  O_49
REMARK   32  A    between atoms: P_48  and  O_50
REMARK                            x       y       z     vdW  Elec       q    Type
REMARK                         _______ _______ _______ _____ _____    ______ ____
ROOT
ATOM      1  P   UNL     1      10.736   3.046  23.431  0.00  0.00    +0.483 P 
ATOM      2  O   UNL     1      12.196   3.118  23.735  0.00  0.00    -0.227 OA
ENDROOT
BRANCH   1   3
ATOM      3  O   UNL     1      10.476   2.952  21.853  0.00  0.00    -0.302 OA
ATOM      4  H   UNL     1       9.528   2.869  21.643  0.00  0.00    +0.222 HD
ENDBRANCH   1   3
BRANCH   1   5
ATOM      5  O   UNL     1       9.855   4.262  23.953  0.00  0.00    -0.186 OA
BRANCH   5   6
ATOM      6  P   UNL     1       8.133   4.434  23.967  0.00  0.00    +0.483 P 
ATOM      7  O   UNL     1       8.062   3.733  25.325  0.00  0.00    -0.227 OA
BRANCH   6   8
ATOM      8  O   UNL     1       7.943   3.209  22.911  0.00  0.00    -0.302 OA
ATOM      9  H   UNL     1       8.553   3.399  22.180  0.00  0.00    +0.222 HD
ENDBRANCH   6   8
BRANCH   6  10
ATOM     10  O   UNL     1       6.412   4.609  23.980  0.00  0.00    -0.284 OA
BRANCH  10  11
ATOM     11  C   UNL     1       5.917   4.974  25.271  0.00  0.00    +0.206 C 
BRANCH  11  12
ATOM     12  C   UNL     1       4.552   4.330  25.508  0.00  0.00    +0.179 C 
ATOM     13  C   UNL     1       4.007   3.616  24.274  0.00  0.00    +0.194 C 
ATOM     14  C   UNL     1       4.514   2.179  24.395  0.00  0.00    +0.196 C 
ATOM     15  C   UNL     1       5.103   2.119  25.820  0.00  0.00    +0.253 C 
ATOM     16  O   UNL     1       4.696   3.312  26.517  0.00  0.00    -0.346 OA
BRANCH  15  17
ATOM     17  N   UNL     1       4.810   0.983  26.658  0.00  0.00    -0.286 N 
ATOM     18  C   UNL     1       4.823  -0.345  26.349  0.00  0.00    +0.167 A 
ATOM     19  N   UNL     1       5.021  -0.925  25.152  0.00  0.00    -0.216 NA
ATOM     20  C   UNL     1       5.022  -2.269  25.266  0.00  0.00    +0.225 A 
ATOM     21  N   UNL     1       4.874  -3.020  26.377  0.00  0.00    -0.219 NA
ATOM     22  C   UNL     1       4.687  -2.388  27.557  0.00  0.00    +0.147 A 
ATOM     23  N   UNL     1       4.568  -3.152  28.707  0.00  0.00    -0.341 N 
ATOM     24  H   UNL     1       4.094  -2.675  29.465  0.00  0.00    +0.144 HD
ATOM     25  H   UNL     1       4.307  -4.109  28.511  0.00  0.00    +0.144 HD
ATOM     26  C   UNL     1       4.630  -0.986  27.564  0.00  0.00    +0.147 A 
ATOM     27  N   UNL     1       4.420  -0.073  28.577  0.00  0.00    -0.231 NA
ATOM     28  C   UNL     1       4.512   1.101  27.998  0.00  0.00    +0.203 A 
ENDBRANCH  15  17
BRANCH  14  29
ATOM     29  O   UNL     1       5.491   1.949  23.367  0.00  0.00    -0.385 OA
ATOM     30  H   UNL     1       5.744   2.811  22.992  0.00  0.00    +0.210 HD
ENDBRANCH  14  29
BRANCH  13  31
ATOM     31  O   UNL     1       2.587   3.626  24.365  0.00  0.00    -0.278 OA
BRANCH  31  32
ATOM     32  P   UNL     1       1.745   3.450  23.021  0.00  0.00    +0.473 P 
ATOM     33  O   UNL     1       2.519   3.319  21.757  0.00  0.00    -0.228 OA
BRANCH  32  34
ATOM     34  O   UNL     1       0.773   2.233  23.342  0.00  0.00    -0.303 OA
ATOM     35  H   UNL     1       1.169   1.625  23.990  0.00  0.00    +0.222 HD
ENDBRANCH  32  34
BRANCH  32  36
ATOM     36  O   UNL     1       0.770   4.713  23.028  0.00  0.00    -0.303 OA
ATOM     37  H   UNL     1       0.814   5.194  23.872  0.00  0.00    +0.222 HD
ENDBRANCH  32  36
ENDBRANCH  31  32
ENDBRANCH  13  31
ENDBRANCH  11  12
ENDBRANCH  10  11
ENDBRANCH   6  10
ENDBRANCH   5   6
ENDBRANCH   1   5
BRANCH   1  38
ATOM     38  O   UNL     1       9.967   1.766  24.016  0.00  0.00    -0.286 OA
BRANCH  38  39
ATOM     39  C   UNL     1      10.565   0.485  23.931  0.00  0.00    +0.181 C 
BRANCH  39  40
ATOM     40  C   UNL     1       9.571  -0.500  23.274  0.00  0.00    +0.024 C 
ATOM     41  C   UNL     1       9.247  -0.009  21.849  0.00  0.00    +0.016 C 
ATOM     42  C   UNL     1      10.252  -1.882  23.132  0.00  0.00    +0.016 C 
BRANCH  40  43
ATOM     43  C   UNL     1       8.293  -0.656  24.159  0.00  0.00    +0.208 C 
BRANCH  43  46
ATOM     44  N   UNL     1       8.308  -2.706  25.557  0.00  0.00    -0.313 N 
ATOM     45  H   UNL     1       7.753  -3.140  24.835  0.00  0.00    +0.149 HD
ATOM     46  C   UNL     1       8.609  -1.362  25.495  0.00  0.00    +0.242 C 
ATOM     47  O   UNL     1       9.069  -0.767  26.466  0.00  0.00    -0.273 OA
BRANCH  44  48
ATOM     48  C   UNL     1       8.649  -3.486  26.735  0.00  0.00    +0.113 C 
BRANCH  48  49
ATOM     49  C   UNL     1       8.493  -4.988  26.526  0.00  0.00    +0.114 C 
BRANCH  49  52
ATOM     50  N   UNL     1       6.331  -6.007  26.121  0.00  0.00    -0.314 N 
ATOM     51  H   UNL     1       6.621  -6.056  25.151  0.00  0.00    +0.149 HD
ATOM     52  C   UNL     1       7.150  -5.421  27.058  0.00  0.00    +0.215 C 
ATOM     53  O   UNL     1       6.818  -5.267  28.229  0.00  0.00    -0.276 OA
BRANCH  50  54
ATOM     54  C   UNL     1       5.013  -6.497  26.482  0.00  0.00    +0.115 C 
BRANCH  54  55
ATOM     55  C   UNL     1       3.960  -6.264  25.392  0.00  0.00    +0.096 C 
BRANCH  55  56
ATOM     56  S   UNL     1       4.627  -6.834  23.801  0.00  0.00    -0.086 S 
BRANCH  56  57
ATOM     57  C   UNL     1       4.638  -5.327  22.887  0.00  0.00    +0.203 C 
ATOM     58  O   UNL     1       3.745  -4.490  22.985  0.00  0.00    -0.284 OA
BRANCH  57  60
ATOM     59  C   UNL     1       6.698  -6.392  22.016  0.00  0.00    +0.028 C 
ATOM     60  C   UNL     1       5.865  -5.114  22.037  0.00  0.00    +0.171 C 
BRANCH  60  61
ATOM     61  C   UNL     1       6.748  -3.964  22.461  0.00  0.00    +0.316 C 
ATOM     62  O   UNL     1       6.541  -2.816  22.084  0.00  0.00    -0.250 OA
BRANCH  61  63
ATOM     63  O   UNL     1       7.827  -4.267  23.210  0.00  0.00    -0.480 OA
ATOM     64  H   UNL     1       8.684  -4.298  22.724  0.00  0.00    +0.295 HD
ENDBRANCH  61  63
ENDBRANCH  60  61
ENDBRANCH  57  60
ENDBRANCH  56  57
ENDBRANCH  55  56
ENDBRANCH  54  55
ENDBRANCH  50  54
ENDBRANCH  49  52
ENDBRANCH  48  49
ENDBRANCH  44  48
ENDBRANCH  43  46
BRANCH  43  65
ATOM     65  O   UNL     1       7.714   0.623  24.422  0.00  0.00    -0.382 OA
ATOM     66  H   UNL     1       8.403   1.293  24.272  0.00  0.00    +0.210 HD
ENDBRANCH  43  65
ENDBRANCH  40  43
ENDBRANCH  39  40
ENDBRANCH  38  39
ENDBRANCH   1  38
TORSDOF 29
ENDMDL
