MODEL 1
REMARK VINA RESULT:      -7.1      0.000      0.000
REMARK  Name = 
REMARK  14 active torsions:
REMARK  status: ('A' for Active; 'I' for Inactive)
REMARK    1  A    between atoms: O_1  and  C_2
REMARK    2  A    between atoms: C_2  and  C_3
REMARK    3  A    between atoms: C_3  and  C_4
REMARK    4  A    between atoms: C_3  and  N_6
REMARK    5  A    between atoms: C_4  and  O_5
REMARK    6  A    between atoms: N_6  and  N_7
REMARK    7  A    between atoms: C_18  and  O_19
REMARK    8  A    between atoms: N_22  and  C_23
REMARK    9  A    between atoms: C_25  and  C_27
REMARK   10  A    between atoms: C_27  and  O_28
REMARK   11  A    between atoms: C_29  and  O_31
REMARK   12  A    between atoms: C_32  and  O_34
REMARK   13  A    between atoms: C_35  and  O_37
REMARK   14  A    between atoms: C_42  and  O_43
REMARK                            x       y       z     vdW  Elec       q    Type
REMARK                         _______ _______ _______ _____ _____    ______ ____
ROOT
ATOM      1  N   UNL     1       6.073   2.309  26.716  0.00  0.00    -0.193 N 
ATOM      2  C   UNL     1       5.105   1.298  26.958  0.00  0.00    +0.279 A 
ATOM      3  O   UNL     1       4.073   1.438  27.596  0.00  0.00    -0.265 OA
ATOM      4  C   UNL     1       5.659   0.190  26.266  0.00  0.00    +0.064 A 
ATOM      5  C   UNL     1       6.962   0.494  25.812  0.00  0.00    +0.064 A 
ATOM      6  C   UNL     1       7.655  -0.578  25.155  0.00  0.00    +0.023 A 
ATOM      7  C   UNL     1       8.692  -0.247  24.267  0.00  0.00    +0.008 A 
ATOM      8  C   UNL     1      10.062   0.010  24.357  0.00  0.00    +0.014 A 
ATOM      9  C   UNL     1      10.564   0.873  23.397  0.00  0.00    +0.046 A 
ATOM     10  C   UNL     1       9.712   1.344  22.403  0.00  0.00    +0.119 A 
ATOM     11  C   UNL     1       8.535   0.669  22.053  0.00  0.00    +0.071 A 
ATOM     12  C   UNL     1       8.131  -0.319  22.955  0.00  0.00    +0.051 A 
ATOM     13  N   UNL     1       7.169  -1.338  22.950  0.00  0.00    -0.352 N 
ATOM     14  H   UNL     1       6.659  -1.751  22.177  0.00  0.00    +0.166 HD
ATOM     15  C   UNL     1       6.942  -1.429  24.284  0.00  0.00    +0.073 A 
ATOM     16  C   UNL     1       5.761  -1.901  24.804  0.00  0.00    +0.077 A 
ATOM     17  N   UNL     1       5.243  -3.130  24.538  0.00  0.00    -0.309 N 
ATOM     18  C   UNL     1       4.043  -3.021  25.281  0.00  0.00    +0.056 A 
ATOM     19  C   UNL     1       2.960  -3.924  25.415  0.00  0.00    +0.072 A 
ATOM     20  C   UNL     1       1.885  -3.624  26.238  0.00  0.00    +0.119 A 
ATOM     21  C   UNL     1       1.811  -2.433  26.935  0.00  0.00    +0.046 A 
ATOM     22  C   UNL     1       2.850  -1.503  26.827  0.00  0.00    +0.014 A 
ATOM     23  C   UNL     1       3.996  -1.767  26.036  0.00  0.00    +0.009 A 
ATOM     24  C   UNL     1       5.188  -1.061  25.784  0.00  0.00    +0.023 A 
ATOM     25  C   UNL     1       7.154   1.921  25.916  0.00  0.00    +0.279 A 
ATOM     26  O   UNL     1       7.960   2.676  25.394  0.00  0.00    -0.265 OA
ENDROOT
BRANCH  17  27
ATOM     27  C   UNL     1       6.011  -4.270  24.038  0.00  0.00    +0.251 C 
ATOM     28  C   UNL     1       5.310  -5.553  23.537  0.00  0.00    +0.195 C 
ATOM     29  C   UNL     1       4.614  -6.277  24.706  0.00  0.00    +0.178 C 
ATOM     30  C   UNL     1       5.623  -6.562  25.828  0.00  0.00    +0.177 C 
ATOM     31  C   UNL     1       6.411  -5.306  26.200  0.00  0.00    +0.177 C 
ATOM     32  O   UNL     1       6.986  -4.675  25.034  0.00  0.00    -0.346 OA
BRANCH  28  33
ATOM     33  O   UNL     1       4.478  -5.370  22.391  0.00  0.00    -0.385 OA
ATOM     34  H   UNL     1       3.738  -5.996  22.404  0.00  0.00    +0.210 HD
ENDBRANCH  28  33
BRANCH  29  35
ATOM     35  O   UNL     1       4.048  -7.523  24.278  0.00  0.00    -0.386 OA
ATOM     36  H   UNL     1       4.480  -8.215  24.812  0.00  0.00    +0.210 HD
ENDBRANCH  29  35
BRANCH  30  37
ATOM     37  O   UNL     1       4.931  -7.104  26.959  0.00  0.00    -0.386 OA
ATOM     38  H   UNL     1       3.996  -6.832  26.916  0.00  0.00    +0.210 HD
ENDBRANCH  30  37
BRANCH  31  39
ATOM     39  C   UNL     1       7.558  -5.652  27.163  0.00  0.00    +0.190 C 
BRANCH  39  40
ATOM     40  O   UNL     1       7.040  -6.164  28.388  0.00  0.00    -0.392 OA
ATOM     41  H   UNL     1       7.370  -5.564  29.085  0.00  0.00    +0.210 HD
ENDBRANCH  39  40
ENDBRANCH  31  39
ENDBRANCH  17  27
BRANCH   1  42
ATOM     42  N   UNL     1       5.714   3.703  26.875  0.00  0.00    -0.271 N 
ATOM     43  H   UNL     1       6.139   4.254  26.124  0.00  0.00    +0.167 HD
BRANCH  42  44
ATOM     44  C   UNL     1       6.083   4.314  28.173  0.00  0.00    +0.138 C 
BRANCH  44  45
ATOM     45  C   UNL     1       6.823   3.349  29.125  0.00  0.00    +0.181 C 
BRANCH  45  46
ATOM     46  O   UNL     1       7.806   4.040  29.902  0.00  0.00    -0.393 OA
ATOM     47  H   UNL     1       8.241   3.363  30.461  0.00  0.00    +0.209 HD
ENDBRANCH  45  46
ENDBRANCH  44  45
BRANCH  44  48
ATOM     48  C   UNL     1       7.003   5.537  27.896  0.00  0.00    +0.181 C 
BRANCH  48  49
ATOM     49  O   UNL     1       8.081   5.226  27.010  0.00  0.00    -0.393 OA
ATOM     50  H   UNL     1       8.236   6.029  26.464  0.00  0.00    +0.209 HD
ENDBRANCH  48  49
ENDBRANCH  44  48
ENDBRANCH  42  44
ENDBRANCH   1  42
BRANCH  10  51
ATOM     51  O   UNL     1      10.011   2.528  21.795  0.00  0.00    -0.507 OA
ATOM     52  H   UNL     1      10.952   2.695  22.010  0.00  0.00    +0.292 HD
ENDBRANCH  10  51
BRANCH  20  53
ATOM     53  O   UNL     1       0.918  -4.580  26.351  0.00  0.00    -0.507 OA
ATOM     54  H   UNL     1       0.798  -5.020  25.494  0.00  0.00    +0.292 HD
ENDBRANCH  20  53
TORSDOF 14
ENDMDL
MODEL 2
REMARK VINA RESULT:      -7.0      1.047      1.216
REMARK  Name = 
REMARK  14 active torsions:
REMARK  status: ('A' for Active; 'I' for Inactive)
REMARK    1  A    between atoms: O_1  and  C_2
REMARK    2  A    between atoms: C_2  and  C_3
REMARK    3  A    between atoms: C_3  and  C_4
REMARK    4  A    between atoms: C_3  and  N_6
REMARK    5  A    between atoms: C_4  and  O_5
REMARK    6  A    between atoms: N_6  and  N_7
REMARK    7  A    between atoms: C_18  and  O_19
REMARK    8  A    between atoms: N_22  and  C_23
REMARK    9  A    between atoms: C_25  and  C_27
REMARK   10  A    between atoms: C_27  and  O_28
REMARK   11  A    between atoms: C_29  and  O_31
REMARK   12  A    between atoms: C_32  and  O_34
REMARK   13  A    between atoms: C_35  and  O_37
REMARK   14  A    between atoms: C_42  and  O_43
REMARK                            x       y       z     vdW  Elec       q    Type
REMARK                         _______ _______ _______ _____ _____    ______ ____
ROOT
ATOM      1  N   UNL     1       6.583   2.146  26.853  0.00  0.00    -0.193 N 
ATOM      2  C   UNL     1       5.544   1.219  27.131  0.00  0.00    +0.279 A 
ATOM      3  O   UNL     1       4.597   1.410  27.879  0.00  0.00    -0.265 OA
ATOM      4  C   UNL     1       5.912   0.114  26.319  0.00  0.00    +0.064 A 
ATOM      5  C   UNL     1       7.191   0.323  25.753  0.00  0.00    +0.064 A 
ATOM      6  C   UNL     1       7.704  -0.760  24.965  0.00  0.00    +0.023 A 
ATOM      7  C   UNL     1       8.679  -0.468  23.997  0.00  0.00    +0.008 A 
ATOM      8  C   UNL     1      10.071  -0.351  23.961  0.00  0.00    +0.014 A 
ATOM      9  C   UNL     1      10.564   0.526  23.010  0.00  0.00    +0.046 A 
ATOM     10  C   UNL     1       9.674   1.146  22.139  0.00  0.00    +0.119 A 
ATOM     11  C   UNL     1       8.406   0.614  21.871  0.00  0.00    +0.071 A 
ATOM     12  C   UNL     1       7.991  -0.393  22.748  0.00  0.00    +0.051 A 
ATOM     13  N   UNL     1       6.934  -1.311  22.779  0.00  0.00    -0.352 N 
ATOM     14  H   UNL     1       6.312  -1.618  22.038  0.00  0.00    +0.166 HD
ATOM     15  C   UNL     1       6.828  -1.476  24.121  0.00  0.00    +0.073 A 
ATOM     16  C   UNL     1       5.659  -1.868  24.729  0.00  0.00    +0.077 A 
ATOM     17  N   UNL     1       4.995  -3.020  24.443  0.00  0.00    -0.309 N 
ATOM     18  C   UNL     1       3.890  -2.849  25.310  0.00  0.00    +0.056 A 
ATOM     19  C   UNL     1       2.737  -3.651  25.498  0.00  0.00    +0.072 A 
ATOM     20  C   UNL     1       1.782  -3.309  26.444  0.00  0.00    +0.119 A 
ATOM     21  C   UNL     1       1.898  -2.169  27.217  0.00  0.00    +0.046 A 
ATOM     22  C   UNL     1       3.012  -1.337  27.060  0.00  0.00    +0.014 A 
ATOM     23  C   UNL     1       4.044  -1.653  26.141  0.00  0.00    +0.009 A 
ATOM     24  C   UNL     1       5.273  -1.049  25.812  0.00  0.00    +0.023 A 
ATOM     25  C   UNL     1       7.537   1.715  25.924  0.00  0.00    +0.279 A 
ATOM     26  O   UNL     1       8.362   2.424  25.370  0.00  0.00    -0.265 OA
ENDROOT
BRANCH  17  27
ATOM     27  C   UNL     1       5.591  -4.189  23.798  0.00  0.00    +0.251 C 
ATOM     28  C   UNL     1       4.774  -5.480  23.562  0.00  0.00    +0.195 C 
ATOM     29  C   UNL     1       4.424  -6.147  24.907  0.00  0.00    +0.178 C 
ATOM     30  C   UNL     1       5.702  -6.404  25.718  0.00  0.00    +0.177 C 
ATOM     31  C   UNL     1       6.568  -5.147  25.807  0.00  0.00    +0.177 C 
ATOM     32  O   UNL     1       6.801  -4.570  24.502  0.00  0.00    -0.346 OA
BRANCH  28  33
ATOM     33  O   UNL     1       3.659  -5.328  22.683  0.00  0.00    -0.385 OA
ATOM     34  H   UNL     1       3.727  -4.496  22.188  0.00  0.00    +0.210 HD
ENDBRANCH  28  33
BRANCH  29  35
ATOM     35  O   UNL     1       3.758  -7.400  24.702  0.00  0.00    -0.386 OA
ATOM     36  H   UNL     1       3.976  -7.954  25.475  0.00  0.00    +0.210 HD
ENDBRANCH  29  35
BRANCH  30  37
ATOM     37  O   UNL     1       5.347  -6.893  27.017  0.00  0.00    -0.386 OA
ATOM     38  H   UNL     1       5.243  -6.135  27.621  0.00  0.00    +0.210 HD
ENDBRANCH  30  37
BRANCH  31  39
ATOM     39  C   UNL     1       7.934  -5.474  26.430  0.00  0.00    +0.190 C 
BRANCH  39  40
ATOM     40  O   UNL     1       7.774  -5.900  27.781  0.00  0.00    -0.392 OA
ATOM     41  H   UNL     1       8.132  -6.808  27.815  0.00  0.00    +0.210 HD
ENDBRANCH  39  40
ENDBRANCH  31  39
ENDBRANCH  17  27
BRANCH   1  42
ATOM     42  N   UNL     1       6.385   3.553  27.133  0.00  0.00    -0.271 N 
ATOM     43  H   UNL     1       5.957   3.662  28.057  0.00  0.00    +0.167 HD
BRANCH  42  44
ATOM     44  C   UNL     1       5.564   4.292  26.146  0.00  0.00    +0.138 C 
BRANCH  44  45
ATOM     45  C   UNL     1       4.262   4.879  26.738  0.00  0.00    +0.181 C 
BRANCH  45  46
ATOM     46  O   UNL     1       3.231   3.889  26.806  0.00  0.00    -0.393 OA
ATOM     47  H   UNL     1       2.381   4.376  26.793  0.00  0.00    +0.209 HD
ENDBRANCH  45  46
ENDBRANCH  44  45
BRANCH  44  48
ATOM     48  C   UNL     1       6.416   5.460  25.574  0.00  0.00    +0.181 C 
BRANCH  48  49
ATOM     49  O   UNL     1       7.813   5.301  25.832  0.00  0.00    -0.393 OA
ATOM     50  H   UNL     1       8.084   4.460  25.401  0.00  0.00    +0.209 HD
ENDBRANCH  48  49
ENDBRANCH  44  48
ENDBRANCH  42  44
ENDBRANCH   1  42
BRANCH  10  51
ATOM     51  O   UNL     1      10.033   2.336  21.577  0.00  0.00    -0.507 OA
ATOM     52  H   UNL     1       9.190   2.815  21.433  0.00  0.00    +0.292 HD
ENDBRANCH  10  51
BRANCH  20  53
ATOM     53  O   UNL     1       0.738  -4.173  26.597  0.00  0.00    -0.507 OA
ATOM     54  H   UNL     1       0.013  -3.908  26.010  0.00  0.00    +0.292 HD
ENDBRANCH  20  53
TORSDOF 14
ENDMDL
MODEL 3
REMARK VINA RESULT:      -6.8      2.262      5.437
REMARK  Name = 
REMARK  14 active torsions:
REMARK  status: ('A' for Active; 'I' for Inactive)
REMARK    1  A    between atoms: O_1  and  C_2
REMARK    2  A    between atoms: C_2  and  C_3
REMARK    3  A    between atoms: C_3  and  C_4
REMARK    4  A    between atoms: C_3  and  N_6
REMARK    5  A    between atoms: C_4  and  O_5
REMARK    6  A    between atoms: N_6  and  N_7
REMARK    7  A    between atoms: C_18  and  O_19
REMARK    8  A    between atoms: N_22  and  C_23
REMARK    9  A    between atoms: C_25  and  C_27
REMARK   10  A    between atoms: C_27  and  O_28
REMARK   11  A    between atoms: C_29  and  O_31
REMARK   12  A    between atoms: C_32  and  O_34
REMARK   13  A    between atoms: C_35  and  O_37
REMARK   14  A    between atoms: C_42  and  O_43
REMARK                            x       y       z     vdW  Elec       q    Type
REMARK                         _______ _______ _______ _____ _____    ______ ____
ROOT
ATOM      1  N   UNL     1       8.013   2.083  24.748  0.00  0.00    -0.193 N 
ATOM      2  C   UNL     1       8.424   0.733  24.594  0.00  0.00    +0.279 A 
ATOM      3  O   UNL     1       9.438   0.356  24.026  0.00  0.00    -0.265 OA
ATOM      4  C   UNL     1       7.391   0.033  25.269  0.00  0.00    +0.064 A 
ATOM      5  C   UNL     1       6.348   0.918  25.627  0.00  0.00    +0.064 A 
ATOM      6  C   UNL     1       5.210   0.312  26.256  0.00  0.00    +0.023 A 
ATOM      7  C   UNL     1       4.394   1.122  27.064  0.00  0.00    +0.008 A 
ATOM      8  C   UNL     1       3.298   1.968  26.875  0.00  0.00    +0.014 A 
ATOM      9  C   UNL     1       3.198   3.012  27.779  0.00  0.00    +0.046 A 
ATOM     10  C   UNL     1       4.118   3.093  28.820  0.00  0.00    +0.119 A 
ATOM     11  C   UNL     1       4.838   1.976  29.264  0.00  0.00    +0.071 A 
ATOM     12  C   UNL     1       4.792   0.868  28.412  0.00  0.00    +0.051 A 
ATOM     13  N   UNL     1       5.180  -0.474  28.505  0.00  0.00    -0.352 N 
ATOM     14  H   UNL     1       5.405  -1.036  29.320  0.00  0.00    +0.166 HD
ATOM     15  C   UNL     1       5.409  -0.725  27.192  0.00  0.00    +0.073 A 
ATOM     16  C   UNL     1       6.270  -1.708  26.764  0.00  0.00    +0.077 A 
ATOM     17  N   UNL     1       6.155  -3.023  27.091  0.00  0.00    -0.309 N 
ATOM     18  C   UNL     1       7.309  -3.508  26.430  0.00  0.00    +0.056 A 
ATOM     19  C   UNL     1       7.866  -4.810  26.390  0.00  0.00    +0.072 A 
ATOM     20  C   UNL     1       9.001  -5.073  25.636  0.00  0.00    +0.119 A 
ATOM     21  C   UNL     1       9.646  -4.081  24.921  0.00  0.00    +0.046 A 
ATOM     22  C   UNL     1       9.142  -2.776  24.939  0.00  0.00    +0.014 A 
ATOM     23  C   UNL     1       7.963  -2.451  25.654  0.00  0.00    +0.009 A 
ATOM     24  C   UNL     1       7.212  -1.270  25.808  0.00  0.00    +0.023 A 
ATOM     25  C   UNL     1       6.835   2.270  25.480  0.00  0.00    +0.279 A 
ATOM     26  O   UNL     1       6.437   3.333  25.929  0.00  0.00    -0.265 OA
ENDROOT
BRANCH  17  27
ATOM     27  C   UNL     1       4.927  -3.663  27.560  0.00  0.00    +0.251 C 
ATOM     28  C   UNL     1       4.945  -5.079  28.179  0.00  0.00    +0.195 C 
ATOM     29  C   UNL     1       5.323  -6.126  27.112  0.00  0.00    +0.178 C 
ATOM     30  C   UNL     1       4.372  -6.024  25.911  0.00  0.00    +0.177 C 
ATOM     31  C   UNL     1       4.255  -4.583  25.414  0.00  0.00    +0.177 C 
ATOM     32  O   UNL     1       3.945  -3.673  26.493  0.00  0.00    -0.346 OA
BRANCH  28  33
ATOM     33  O   UNL     1       5.691  -5.192  29.391  0.00  0.00    -0.385 OA
ATOM     34  H   UNL     1       5.432  -4.496  30.016  0.00  0.00    +0.210 HD
ENDBRANCH  28  33
BRANCH  29  35
ATOM     35  O   UNL     1       5.242  -7.455  27.643  0.00  0.00    -0.386 OA
ATOM     36  H   UNL     1       5.056  -7.356  28.596  0.00  0.00    +0.210 HD
ENDBRANCH  29  35
BRANCH  30  37
ATOM     37  O   UNL     1       4.824  -6.905  24.875  0.00  0.00    -0.386 OA
ATOM     38  H   UNL     1       5.594  -7.404  25.201  0.00  0.00    +0.210 HD
ENDBRANCH  30  37
BRANCH  31  39
ATOM     39  C   UNL     1       3.142  -4.463  24.360  0.00  0.00    +0.190 C 
BRANCH  39  40
ATOM     40  O   UNL     1       3.637  -4.827  23.073  0.00  0.00    -0.392 OA
ATOM     41  H   UNL     1       4.467  -4.326  22.958  0.00  0.00    +0.210 HD
ENDBRANCH  39  40
ENDBRANCH  31  39
ENDBRANCH  17  27
BRANCH   1  42
ATOM     42  N   UNL     1       8.977   3.152  24.585  0.00  0.00    -0.271 N 
ATOM     43  H   UNL     1       8.845   3.848  25.325  0.00  0.00    +0.167 HD
BRANCH  42  44
ATOM     44  C   UNL     1       8.946   3.847  23.277  0.00  0.00    +0.138 C 
BRANCH  44  45
ATOM     45  C   UNL     1       8.197   3.064  22.176  0.00  0.00    +0.181 C 
BRANCH  45  46
ATOM     46  O   UNL     1       9.087   2.211  21.450  0.00  0.00    -0.393 OA
ATOM     47  H   UNL     1       9.973   2.333  21.849  0.00  0.00    +0.209 HD
ENDBRANCH  45  46
ENDBRANCH  44  45
BRANCH  44  48
ATOM     48  C   UNL     1       8.246   5.222  23.468  0.00  0.00    +0.181 C 
BRANCH  48  49
ATOM     49  O   UNL     1       8.668   6.194  22.507  0.00  0.00    -0.393 OA
ATOM     50  H   UNL     1       8.899   7.005  23.011  0.00  0.00    +0.209 HD
ENDBRANCH  48  49
ENDBRANCH  44  48
ENDBRANCH  42  44
ENDBRANCH   1  42
BRANCH  10  51
ATOM     51  O   UNL     1       4.361   4.313  29.381  0.00  0.00    -0.507 OA
ATOM     52  H   UNL     1       4.298   4.951  28.641  0.00  0.00    +0.292 HD
ENDBRANCH  10  51
BRANCH  20  53
ATOM     53  O   UNL     1       9.429  -6.367  25.610  0.00  0.00    -0.507 OA
ATOM     54  H   UNL     1       9.889  -6.571  26.439  0.00  0.00    +0.292 HD
ENDBRANCH  20  53
TORSDOF 14
ENDMDL
MODEL 4
REMARK VINA RESULT:      -6.8      2.109      5.021
REMARK  Name = 
REMARK  14 active torsions:
REMARK  status: ('A' for Active; 'I' for Inactive)
REMARK    1  A    between atoms: O_1  and  C_2
REMARK    2  A    between atoms: C_2  and  C_3
REMARK    3  A    between atoms: C_3  and  C_4
REMARK    4  A    between atoms: C_3  and  N_6
REMARK    5  A    between atoms: C_4  and  O_5
REMARK    6  A    between atoms: N_6  and  N_7
REMARK    7  A    between atoms: C_18  and  O_19
REMARK    8  A    between atoms: N_22  and  C_23
REMARK    9  A    between atoms: C_25  and  C_27
REMARK   10  A    between atoms: C_27  and  O_28
REMARK   11  A    between atoms: C_29  and  O_31
REMARK   12  A    between atoms: C_32  and  O_34
REMARK   13  A    between atoms: C_35  and  O_37
REMARK   14  A    between atoms: C_42  and  O_43
REMARK                            x       y       z     vdW  Elec       q    Type
REMARK                         _______ _______ _______ _____ _____    ______ ____
ROOT
ATOM      1  N   UNL     1       8.118   1.416  23.180  0.00  0.00    -0.193 N 
ATOM      2  C   UNL     1       7.885   0.115  22.661  0.00  0.00    +0.279 A 
ATOM      3  O   UNL     1       8.407  -0.360  21.664  0.00  0.00    -0.265 OA
ATOM      4  C   UNL     1       6.957  -0.413  23.597  0.00  0.00    +0.064 A 
ATOM      5  C   UNL     1       6.539   0.595  24.496  0.00  0.00    +0.064 A 
ATOM      6  C   UNL     1       5.543   0.198  25.451  0.00  0.00    +0.023 A 
ATOM      7  C   UNL     1       5.442   0.935  26.643  0.00  0.00    +0.008 A 
ATOM      8  C   UNL     1       4.776   2.086  27.072  0.00  0.00    +0.014 A 
ATOM      9  C   UNL     1       5.410   2.792  28.080  0.00  0.00    +0.046 A 
ATOM     10  C   UNL     1       6.582   2.279  28.627  0.00  0.00    +0.119 A 
ATOM     11  C   UNL     1       6.908   0.920  28.545  0.00  0.00    +0.071 A 
ATOM     12  C   UNL     1       6.142   0.184  27.636  0.00  0.00    +0.051 A 
ATOM     13  N   UNL     1       5.976  -1.177  27.348  0.00  0.00    -0.352 N 
ATOM     14  H   UNL     1       6.225  -1.996  27.892  0.00  0.00    +0.166 HD
ATOM     15  C   UNL     1       5.624  -1.081  26.041  0.00  0.00    +0.073 A 
ATOM     16  C   UNL     1       5.826  -2.102  25.142  0.00  0.00    +0.077 A 
ATOM     17  N   UNL     1       5.321  -3.356  25.282  0.00  0.00    -0.309 N 
ATOM     18  C   UNL     1       5.890  -3.944  24.126  0.00  0.00    +0.056 A 
ATOM     19  C   UNL     1       5.838  -5.278  23.653  0.00  0.00    +0.072 A 
ATOM     20  C   UNL     1       6.445  -5.631  22.458  0.00  0.00    +0.119 A 
ATOM     21  C   UNL     1       7.142  -4.712  21.696  0.00  0.00    +0.046 A 
ATOM     22  C   UNL     1       7.233  -3.383  22.126  0.00  0.00    +0.014 A 
ATOM     23  C   UNL     1       6.598  -2.949  23.316  0.00  0.00    +0.009 A 
ATOM     24  C   UNL     1       6.476  -1.700  23.955  0.00  0.00    +0.023 A 
ATOM     25  C   UNL     1       7.436   1.718  24.364  0.00  0.00    +0.279 A 
ATOM     26  O   UNL     1       7.668   2.667  25.097  0.00  0.00    -0.265 OA
ENDROOT
BRANCH  17  27
ATOM     27  C   UNL     1       4.182  -3.710  26.127  0.00  0.00    +0.251 C 
ATOM     28  C   UNL     1       4.337  -4.677  27.322  0.00  0.00    +0.195 C 
ATOM     29  C   UNL     1       4.667  -6.098  26.824  0.00  0.00    +0.178 C 
ATOM     30  C   UNL     1       3.600  -6.569  25.826  0.00  0.00    +0.177 C 
ATOM     31  C   UNL     1       3.356  -5.524  24.736  0.00  0.00    +0.177 C 
ATOM     32  O   UNL     1       3.102  -4.219  25.301  0.00  0.00    -0.346 OA
BRANCH  28  33
ATOM     33  O   UNL     1       5.202  -4.211  28.359  0.00  0.00    -0.385 OA
ATOM     34  H   UNL     1       5.933  -4.832  28.497  0.00  0.00    +0.210 HD
ENDBRANCH  28  33
BRANCH  29  35
ATOM     35  O   UNL     1       4.710  -7.029  27.914  0.00  0.00    -0.386 OA
ATOM     36  H   UNL     1       5.527  -6.830  28.409  0.00  0.00    +0.210 HD
ENDBRANCH  29  35
BRANCH  30  37
ATOM     37  O   UNL     1       3.997  -7.828  25.269  0.00  0.00    -0.386 OA
ATOM     38  H   UNL     1       4.684  -7.672  24.596  0.00  0.00    +0.210 HD
ENDBRANCH  30  37
BRANCH  31  39
ATOM     39  C   UNL     1       2.142  -5.911  23.877  0.00  0.00    +0.190 C 
BRANCH  39  40
ATOM     40  O   UNL     1       2.543  -6.766  22.808  0.00  0.00    -0.392 OA
ATOM     41  H   UNL     1       1.741  -7.259  22.550  0.00  0.00    +0.210 HD
ENDBRANCH  39  40
ENDBRANCH  31  39
ENDBRANCH  17  27
BRANCH   1  42
ATOM     42  N   UNL     1       9.306   2.145  22.786  0.00  0.00    -0.271 N 
ATOM     43  H   UNL     1       9.761   1.663  22.005  0.00  0.00    +0.167 HD
BRANCH  42  44
ATOM     44  C   UNL     1      10.309   2.357  23.855  0.00  0.00    +0.138 C 
BRANCH  44  45
ATOM     45  C   UNL     1      11.099   1.082  24.227  0.00  0.00    +0.181 C 
BRANCH  45  46
ATOM     46  O   UNL     1      10.534   0.437  25.372  0.00  0.00    -0.393 OA
ATOM     47  H   UNL     1      11.256   0.360  26.029  0.00  0.00    +0.209 HD
ENDBRANCH  45  46
ENDBRANCH  44  45
BRANCH  44  48
ATOM     48  C   UNL     1      11.318   3.439  23.375  0.00  0.00    +0.181 C 
BRANCH  48  49
ATOM     49  O   UNL     1      10.735   4.743  23.303  0.00  0.00    -0.393 OA
ATOM     50  H   UNL     1      10.875   5.062  22.384  0.00  0.00    +0.209 HD
ENDBRANCH  48  49
ENDBRANCH  44  48
ENDBRANCH  42  44
ENDBRANCH   1  42
BRANCH  10  51
ATOM     51  O   UNL     1       7.462   3.145  29.210  0.00  0.00    -0.507 OA
ATOM     52  H   UNL     1       7.822   3.678  28.471  0.00  0.00    +0.292 HD
ENDBRANCH  10  51
BRANCH  20  53
ATOM     53  O   UNL     1       6.292  -6.924  22.053  0.00  0.00    -0.507 OA
ATOM     54  H   UNL     1       5.363  -7.080  21.818  0.00  0.00    +0.292 HD
ENDBRANCH  20  53
TORSDOF 14
ENDMDL
MODEL 5
REMARK VINA RESULT:      -6.7      2.223      7.908
REMARK  Name = 
REMARK  14 active torsions:
REMARK  status: ('A' for Active; 'I' for Inactive)
REMARK    1  A    between atoms: O_1  and  C_2
REMARK    2  A    between atoms: C_2  and  C_3
REMARK    3  A    between atoms: C_3  and  C_4
REMARK    4  A    between atoms: C_3  and  N_6
REMARK    5  A    between atoms: C_4  and  O_5
REMARK    6  A    between atoms: N_6  and  N_7
REMARK    7  A    between atoms: C_18  and  O_19
REMARK    8  A    between atoms: N_22  and  C_23
REMARK    9  A    between atoms: C_25  and  C_27
REMARK   10  A    between atoms: C_27  and  O_28
REMARK   11  A    between atoms: C_29  and  O_31
REMARK   12  A    between atoms: C_32  and  O_34
REMARK   13  A    between atoms: C_35  and  O_37
REMARK   14  A    between atoms: C_42  and  O_43
REMARK                            x       y       z     vdW  Elec       q    Type
REMARK                         _______ _______ _______ _____ _____    ______ ____
ROOT
ATOM      1  N   UNL     1       3.928  -3.542  26.334  0.00  0.00    -0.193 N 
ATOM      2  C   UNL     1       4.228  -2.215  26.739  0.00  0.00    +0.279 A 
ATOM      3  O   UNL     1       3.881  -1.693  27.787  0.00  0.00    -0.265 OA
ATOM      4  C   UNL     1       5.008  -1.745  25.649  0.00  0.00    +0.064 A 
ATOM      5  C   UNL     1       4.996  -2.686  24.594  0.00  0.00    +0.064 A 
ATOM      6  C   UNL     1       5.695  -2.290  23.404  0.00  0.00    +0.023 A 
ATOM      7  C   UNL     1       6.151  -3.300  22.541  0.00  0.00    +0.008 A 
ATOM      8  C   UNL     1       5.630  -4.035  21.473  0.00  0.00    +0.014 A 
ATOM      9  C   UNL     1       6.158  -5.305  21.318  0.00  0.00    +0.046 A 
ATOM     10  C   UNL     1       7.189  -5.713  22.159  0.00  0.00    +0.119 A 
ATOM     11  C   UNL     1       8.008  -4.796  22.830  0.00  0.00    +0.071 A 
ATOM     12  C   UNL     1       7.538  -3.479  22.834  0.00  0.00    +0.051 A 
ATOM     13  N   UNL     1       8.068  -2.235  23.199  0.00  0.00    -0.352 N 
ATOM     14  H   UNL     1       9.031  -1.954  23.355  0.00  0.00    +0.166 HD
ATOM     15  C   UNL     1       6.917  -1.594  23.521  0.00  0.00    +0.073 A 
ATOM     16  C   UNL     1       6.879  -0.537  24.400  0.00  0.00    +0.077 A 
ATOM     17  N   UNL     1       7.585   0.615  24.244  0.00  0.00    -0.309 N 
ATOM     18  C   UNL     1       7.194   1.266  25.439  0.00  0.00    +0.056 A 
ATOM     19  C   UNL     1       7.598   2.511  25.981  0.00  0.00    +0.072 A 
ATOM     20  C   UNL     1       7.049   2.980  27.165  0.00  0.00    +0.119 A 
ATOM     21  C   UNL     1       6.113   2.251  27.874  0.00  0.00    +0.046 A 
ATOM     22  C   UNL     1       5.690   1.009  27.386  0.00  0.00    +0.014 A 
ATOM     23  C   UNL     1       6.180   0.493  26.161  0.00  0.00    +0.009 A 
ATOM     24  C   UNL     1       5.907  -0.670  25.415  0.00  0.00    +0.023 A 
ATOM     25  C   UNL     1       4.477  -3.931  25.107  0.00  0.00    +0.279 A 
ATOM     26  O   UNL     1       4.546  -5.077  24.689  0.00  0.00    -0.265 OA
ENDROOT
BRANCH  17  27
ATOM     27  C   UNL     1       8.136   1.093  22.977  0.00  0.00    +0.251 C 
ATOM     28  C   UNL     1       9.618   1.514  22.854  0.00  0.00    +0.195 C 
ATOM     29  C   UNL     1       9.885   2.786  23.683  0.00  0.00    +0.178 C 
ATOM     30  C   UNL     1       8.921   3.905  23.260  0.00  0.00    +0.177 C 
ATOM     31  C   UNL     1       7.473   3.416  23.244  0.00  0.00    +0.177 C 
ATOM     32  O   UNL     1       7.333   2.196  22.483  0.00  0.00    -0.346 OA
BRANCH  28  33
ATOM     33  O   UNL     1      10.558   0.465  23.083  0.00  0.00    -0.385 OA
ATOM     34  H   UNL     1      11.427   0.830  23.314  0.00  0.00    +0.210 HD
ENDBRANCH  28  33
BRANCH  29  35
ATOM     35  O   UNL     1      11.229   3.251  23.495  0.00  0.00    -0.386 OA
ATOM     36  H   UNL     1      11.687   2.557  22.985  0.00  0.00    +0.210 HD
ENDBRANCH  29  35
BRANCH  30  37
ATOM     37  O   UNL     1       9.089   5.028  24.135  0.00  0.00    -0.386 OA
ATOM     38  H   UNL     1       9.894   5.511  23.875  0.00  0.00    +0.210 HD
ENDBRANCH  30  37
BRANCH  31  39
ATOM     39  C   UNL     1       6.552   4.473  22.616  0.00  0.00    +0.190 C 
BRANCH  39  40
ATOM     40  O   UNL     1       7.290   5.310  21.729  0.00  0.00    -0.392 OA
ATOM     41  H   UNL     1       7.184   4.914  20.843  0.00  0.00    +0.210 HD
ENDBRANCH  39  40
ENDBRANCH  31  39
ENDBRANCH  17  27
BRANCH   1  42
ATOM     42  N   UNL     1       3.516  -4.519  27.320  0.00  0.00    -0.271 N 
ATOM     43  H   UNL     1       2.902  -4.074  28.008  0.00  0.00    +0.167 HD
BRANCH  42  44
ATOM     44  C   UNL     1       4.615  -5.200  28.043  0.00  0.00    +0.138 C 
BRANCH  44  45
ATOM     45  C   UNL     1       4.690  -4.836  29.542  0.00  0.00    +0.181 C 
BRANCH  45  46
ATOM     46  O   UNL     1       5.949  -5.216  30.106  0.00  0.00    -0.393 OA
ATOM     47  H   UNL     1       6.637  -4.775  29.566  0.00  0.00    +0.209 HD
ENDBRANCH  45  46
ENDBRANCH  44  45
BRANCH  44  48
ATOM     48  C   UNL     1       4.407  -6.737  27.918  0.00  0.00    +0.181 C 
BRANCH  48  49
ATOM     49  O   UNL     1       5.483  -7.486  28.488  0.00  0.00    -0.393 OA
ATOM     50  H   UNL     1       6.296  -6.948  28.364  0.00  0.00    +0.209 HD
ENDBRANCH  48  49
ENDBRANCH  44  48
ENDBRANCH  42  44
ENDBRANCH   1  42
BRANCH  10  51
ATOM     51  O   UNL     1       7.364  -7.049  22.375  0.00  0.00    -0.507 OA
ATOM     52  H   UNL     1       7.426  -7.446  21.481  0.00  0.00    +0.292 HD
ENDBRANCH  10  51
BRANCH  20  53
ATOM     53  O   UNL     1       7.454   4.215  27.578  0.00  0.00    -0.507 OA
ATOM     54  H   UNL     1       7.273   4.312  28.527  0.00  0.00    +0.292 HD
ENDBRANCH  20  53
TORSDOF 14
ENDMDL
MODEL 6
REMARK VINA RESULT:      -6.4      2.312      8.976
REMARK  Name = 
REMARK  14 active torsions:
REMARK  status: ('A' for Active; 'I' for Inactive)
REMARK    1  A    between atoms: O_1  and  C_2
REMARK    2  A    between atoms: C_2  and  C_3
REMARK    3  A    between atoms: C_3  and  C_4
REMARK    4  A    between atoms: C_3  and  N_6
REMARK    5  A    between atoms: C_4  and  O_5
REMARK    6  A    between atoms: N_6  and  N_7
REMARK    7  A    between atoms: C_18  and  O_19
REMARK    8  A    between atoms: N_22  and  C_23
REMARK    9  A    between atoms: C_25  and  C_27
REMARK   10  A    between atoms: C_27  and  O_28
REMARK   11  A    between atoms: C_29  and  O_31
REMARK   12  A    between atoms: C_32  and  O_34
REMARK   13  A    between atoms: C_35  and  O_37
REMARK   14  A    between atoms: C_42  and  O_43
REMARK                            x       y       z     vdW  Elec       q    Type
REMARK                         _______ _______ _______ _____ _____    ______ ____
ROOT
ATOM      1  N   UNL     1       6.758  -3.885  26.128  0.00  0.00    -0.193 N 
ATOM      2  C   UNL     1       7.618  -3.104  25.312  0.00  0.00    +0.279 A 
ATOM      3  O   UNL     1       8.426  -3.539  24.506  0.00  0.00    -0.265 OA
ATOM      4  C   UNL     1       7.254  -1.783  25.683  0.00  0.00    +0.064 A 
ATOM      5  C   UNL     1       6.369  -1.807  26.785  0.00  0.00    +0.064 A 
ATOM      6  C   UNL     1       5.984  -0.523  27.297  0.00  0.00    +0.023 A 
ATOM      7  C   UNL     1       4.780  -0.434  28.017  0.00  0.00    +0.008 A 
ATOM      8  C   UNL     1       4.376  -0.605  29.344  0.00  0.00    +0.014 A 
ATOM      9  C   UNL     1       3.067  -1.024  29.510  0.00  0.00    +0.046 A 
ATOM     10  C   UNL     1       2.256  -1.164  28.388  0.00  0.00    +0.119 A 
ATOM     11  C   UNL     1       2.528  -0.496  27.187  0.00  0.00    +0.071 A 
ATOM     12  C   UNL     1       3.805   0.067  27.102  0.00  0.00    +0.051 A 
ATOM     13  N   UNL     1       4.447   0.946  26.220  0.00  0.00    -0.352 N 
ATOM     14  H   UNL     1       4.060   1.573  25.523  0.00  0.00    +0.166 HD
ATOM     15  C   UNL     1       5.727   0.532  26.395  0.00  0.00    +0.073 A 
ATOM     16  C   UNL     1       6.697   0.697  25.435  0.00  0.00    +0.077 A 
ATOM     17  N   UNL     1       7.060   1.898  24.910  0.00  0.00    -0.309 N 
ATOM     18  C   UNL     1       8.019   1.440  23.975  0.00  0.00    +0.056 A 
ATOM     19  C   UNL     1       8.777   2.153  23.013  0.00  0.00    +0.072 A 
ATOM     20  C   UNL     1       9.702   1.498  22.214  0.00  0.00    +0.119 A 
ATOM     21  C   UNL     1       9.904   0.134  22.300  0.00  0.00    +0.046 A 
ATOM     22  C   UNL     1       9.170  -0.617  23.226  0.00  0.00    +0.014 A 
ATOM     23  C   UNL     1       8.241  -0.002  24.102  0.00  0.00    +0.009 A 
ATOM     24  C   UNL     1       7.420  -0.480  25.141  0.00  0.00    +0.023 A 
ATOM     25  C   UNL     1       5.883  -3.157  26.943  0.00  0.00    +0.279 A 
ATOM     26  O   UNL     1       4.915  -3.611  27.533  0.00  0.00    -0.265 OA
ENDROOT
BRANCH  17  27
ATOM     27  C   UNL     1       6.816   3.194  25.542  0.00  0.00    +0.251 C 
ATOM     28  C   UNL     1       5.707   4.141  25.032  0.00  0.00    +0.195 C 
ATOM     29  C   UNL     1       6.055   4.666  23.625  0.00  0.00    +0.178 C 
ATOM     30  C   UNL     1       7.436   5.335  23.635  0.00  0.00    +0.177 C 
ATOM     31  C   UNL     1       8.487   4.434  24.286  0.00  0.00    +0.177 C 
ATOM     32  O   UNL     1       8.050   3.957  25.578  0.00  0.00    -0.346 OA
BRANCH  28  33
ATOM     33  O   UNL     1       4.381   3.624  25.147  0.00  0.00    -0.385 OA
ATOM     34  H   UNL     1       3.800   4.271  25.578  0.00  0.00    +0.210 HD
ENDBRANCH  28  33
BRANCH  29  35
ATOM     35  O   UNL     1       5.088   5.627  23.180  0.00  0.00    -0.386 OA
ATOM     36  H   UNL     1       5.526   6.498  23.235  0.00  0.00    +0.210 HD
ENDBRANCH  29  35
BRANCH  30  37
ATOM     37  O   UNL     1       7.800   5.688  22.295  0.00  0.00    -0.386 OA
ATOM     38  H   UNL     1       8.770   5.652  22.213  0.00  0.00    +0.210 HD
ENDBRANCH  30  37
BRANCH  31  39
ATOM     39  C   UNL     1       9.806   5.197  24.485  0.00  0.00    +0.190 C 
BRANCH  39  40
ATOM     40  O   UNL     1      10.506   5.309  23.247  0.00  0.00    -0.392 OA
ATOM     41  H   UNL     1      11.083   4.523  23.199  0.00  0.00    +0.210 HD
ENDBRANCH  39  40
ENDBRANCH  31  39
ENDBRANCH  17  27
BRANCH   1  42
ATOM     42  N   UNL     1       6.489  -5.264  25.777  0.00  0.00    -0.271 N 
ATOM     43  H   UNL     1       7.338  -5.692  25.395  0.00  0.00    +0.167 HD
BRANCH  42  44
ATOM     44  C   UNL     1       5.383  -5.475  24.815  0.00  0.00    +0.138 C 
BRANCH  44  45
ATOM     45  C   UNL     1       5.854  -5.625  23.351  0.00  0.00    +0.181 C 
BRANCH  45  46
ATOM     46  O   UNL     1       4.839  -5.206  22.434  0.00  0.00    -0.393 OA
ATOM     47  H   UNL     1       4.625  -4.279  22.666  0.00  0.00    +0.209 HD
ENDBRANCH  45  46
ENDBRANCH  44  45
BRANCH  44  48
ATOM     48  C   UNL     1       4.618  -6.767  25.222  0.00  0.00    +0.181 C 
BRANCH  48  49
ATOM     49  O   UNL     1       4.248  -7.566  24.095  0.00  0.00    -0.393 OA
ATOM     50  H   UNL     1       3.427  -7.171  23.728  0.00  0.00    +0.209 HD
ENDBRANCH  48  49
ENDBRANCH  44  48
ENDBRANCH  42  44
ENDBRANCH   1  42
BRANCH  10  51
ATOM     51  O   UNL     1       1.198  -2.023  28.452  0.00  0.00    -0.507 OA
ATOM     52  H   UNL     1       0.440  -1.522  28.085  0.00  0.00    +0.292 HD
ENDBRANCH  10  51
BRANCH  20  53
ATOM     53  O   UNL     1      10.428   2.275  21.359  0.00  0.00    -0.507 OA
ATOM     54  H   UNL     1       9.827   2.843  20.852  0.00  0.00    +0.292 HD
ENDBRANCH  20  53
TORSDOF 14
ENDMDL
MODEL 7
REMARK VINA RESULT:      -6.3      2.004      2.450
REMARK  Name = 
REMARK  14 active torsions:
REMARK  status: ('A' for Active; 'I' for Inactive)
REMARK    1  A    between atoms: O_1  and  C_2
REMARK    2  A    between atoms: C_2  and  C_3
REMARK    3  A    between atoms: C_3  and  C_4
REMARK    4  A    between atoms: C_3  and  N_6
REMARK    5  A    between atoms: C_4  and  O_5
REMARK    6  A    between atoms: N_6  and  N_7
REMARK    7  A    between atoms: C_18  and  O_19
REMARK    8  A    between atoms: N_22  and  C_23
REMARK    9  A    between atoms: C_25  and  C_27
REMARK   10  A    between atoms: C_27  and  O_28
REMARK   11  A    between atoms: C_29  and  O_31
REMARK   12  A    between atoms: C_32  and  O_34
REMARK   13  A    between atoms: C_35  and  O_37
REMARK   14  A    between atoms: C_42  and  O_43
REMARK                            x       y       z     vdW  Elec       q    Type
REMARK                         _______ _______ _______ _____ _____    ______ ____
ROOT
ATOM      1  N   UNL     1       5.803   2.251  27.590  0.00  0.00    -0.193 N 
ATOM      2  C   UNL     1       5.182   0.978  27.502  0.00  0.00    +0.279 A 
ATOM      3  O   UNL     1       4.272   0.577  28.211  0.00  0.00    -0.265 OA
ATOM      4  C   UNL     1       5.877   0.388  26.413  0.00  0.00    +0.064 A 
ATOM      5  C   UNL     1       6.962   1.204  26.021  0.00  0.00    +0.064 A 
ATOM      6  C   UNL     1       7.785   0.677  24.970  0.00  0.00    +0.023 A 
ATOM      7  C   UNL     1       8.536   1.583  24.203  0.00  0.00    +0.008 A 
ATOM      8  C   UNL     1       9.790   2.194  24.293  0.00  0.00    +0.014 A 
ATOM      9  C   UNL     1       9.883   3.438  23.693  0.00  0.00    +0.046 A 
ATOM     10  C   UNL     1       8.783   3.937  23.001  0.00  0.00    +0.119 A 
ATOM     11  C   UNL     1       7.777   3.099  22.503  0.00  0.00    +0.071 A 
ATOM     12  C   UNL     1       7.799   1.792  22.998  0.00  0.00    +0.051 A 
ATOM     13  N   UNL     1       7.145   0.596  22.677  0.00  0.00    -0.352 N 
ATOM     14  H   UNL     1       6.634   0.333  21.840  0.00  0.00    +0.166 HD
ATOM     15  C   UNL     1       7.178  -0.004  23.893  0.00  0.00    +0.073 A 
ATOM     16  C   UNL     1       6.263  -0.955  24.276  0.00  0.00    +0.077 A 
ATOM     17  N   UNL     1       6.041  -2.118  23.607  0.00  0.00    -0.309 N 
ATOM     18  C   UNL     1       4.997  -2.631  24.413  0.00  0.00    +0.056 A 
ATOM     19  C   UNL     1       4.221  -3.808  24.272  0.00  0.00    +0.072 A 
ATOM     20  C   UNL     1       3.260  -4.141  25.215  0.00  0.00    +0.119 A 
ATOM     21  C   UNL     1       3.002  -3.335  26.308  0.00  0.00    +0.046 A 
ATOM     22  C   UNL     1       3.733  -2.156  26.486  0.00  0.00    +0.014 A 
ATOM     23  C   UNL     1       4.758  -1.780  25.581  0.00  0.00    +0.009 A 
ATOM     24  C   UNL     1       5.669  -0.708  25.533  0.00  0.00    +0.023 A 
ATOM     25  C   UNL     1       6.795   2.500  26.635  0.00  0.00    +0.279 A 
ATOM     26  O   UNL     1       7.280   3.591  26.380  0.00  0.00    -0.265 OA
ENDROOT
BRANCH  17  27
ATOM     27  C   UNL     1       6.979  -2.736  22.671  0.00  0.00    +0.251 C 
ATOM     28  C   UNL     1       6.658  -4.081  21.981  0.00  0.00    +0.195 C 
ATOM     29  C   UNL     1       6.627  -5.222  23.018  0.00  0.00    +0.178 C 
ATOM     30  C   UNL     1       7.949  -5.265  23.797  0.00  0.00    +0.177 C 
ATOM     31  C   UNL     1       8.321  -3.885  24.340  0.00  0.00    +0.177 C 
ATOM     32  O   UNL     1       8.277  -2.878  23.305  0.00  0.00    -0.346 OA
BRANCH  28  33
ATOM     33  O   UNL     1       5.522  -4.052  21.116  0.00  0.00    -0.385 OA
ATOM     34  H   UNL     1       5.285  -3.137  20.897  0.00  0.00    +0.210 HD
ENDBRANCH  28  33
BRANCH  29  35
ATOM     35  O   UNL     1       6.434  -6.492  22.380  0.00  0.00    -0.386 OA
ATOM     36  H   UNL     1       7.203  -7.039  22.626  0.00  0.00    +0.210 HD
ENDBRANCH  29  35
BRANCH  30  37
ATOM     37  O   UNL     1       7.847  -6.236  24.846  0.00  0.00    -0.386 OA
ATOM     38  H   UNL     1       7.643  -5.776  25.680  0.00  0.00    +0.210 HD
ENDBRANCH  30  37
BRANCH  31  39
ATOM     39  C   UNL     1       9.742  -3.899  24.925  0.00  0.00    +0.190 C 
BRANCH  39  40
ATOM     40  O   UNL     1      10.290  -5.215  24.867  0.00  0.00    -0.392 OA
ATOM     41  H   UNL     1       9.523  -5.820  24.869  0.00  0.00    +0.210 HD
ENDBRANCH  39  40
ENDBRANCH  31  39
ENDBRANCH  17  27
BRANCH   1  42
ATOM     42  N   UNL     1       5.130   3.334  28.278  0.00  0.00    -0.271 N 
ATOM     43  H   UNL     1       4.744   2.990  29.163  0.00  0.00    +0.167 HD
BRANCH  42  44
ATOM     44  C   UNL     1       4.045   3.997  27.519  0.00  0.00    +0.138 C 
BRANCH  44  45
ATOM     45  C   UNL     1       2.655   3.867  28.182  0.00  0.00    +0.181 C 
BRANCH  45  46
ATOM     46  O   UNL     1       2.667   2.886  29.223  0.00  0.00    -0.393 OA
ATOM     47  H   UNL     1       3.283   2.183  28.932  0.00  0.00    +0.209 HD
ENDBRANCH  45  46
ENDBRANCH  44  45
BRANCH  44  48
ATOM     48  C   UNL     1       4.389   5.507  27.387  0.00  0.00    +0.181 C 
BRANCH  48  49
ATOM     49  O   UNL     1       5.248   5.782  26.277  0.00  0.00    -0.393 OA
ATOM     50  H   UNL     1       4.668   5.865  25.488  0.00  0.00    +0.209 HD
ENDBRANCH  48  49
ENDBRANCH  44  48
ENDBRANCH  42  44
ENDBRANCH   1  42
BRANCH  10  51
ATOM     51  O   UNL     1       8.661   5.288  22.858  0.00  0.00    -0.507 OA
ATOM     52  H   UNL     1       8.590   5.438  21.893  0.00  0.00    +0.292 HD
ENDBRANCH  10  51
BRANCH  20  53
ATOM     53  O   UNL     1       2.605  -5.322  25.028  0.00  0.00    -0.507 OA
ATOM     54  H   UNL     1       2.478  -5.473  24.077  0.00  0.00    +0.292 HD
ENDBRANCH  20  53
TORSDOF 14
ENDMDL
MODEL 8
REMARK VINA RESULT:      -6.2      2.486      7.987
REMARK  Name = 
REMARK  14 active torsions:
REMARK  status: ('A' for Active; 'I' for Inactive)
REMARK    1  A    between atoms: O_1  and  C_2
REMARK    2  A    between atoms: C_2  and  C_3
REMARK    3  A    between atoms: C_3  and  C_4
REMARK    4  A    between atoms: C_3  and  N_6
REMARK    5  A    between atoms: C_4  and  O_5
REMARK    6  A    between atoms: N_6  and  N_7
REMARK    7  A    between atoms: C_18  and  O_19
REMARK    8  A    between atoms: N_22  and  C_23
REMARK    9  A    between atoms: C_25  and  C_27
REMARK   10  A    between atoms: C_27  and  O_28
REMARK   11  A    between atoms: C_29  and  O_31
REMARK   12  A    between atoms: C_32  and  O_34
REMARK   13  A    between atoms: C_35  and  O_37
REMARK   14  A    between atoms: C_42  and  O_43
REMARK                            x       y       z     vdW  Elec       q    Type
REMARK                         _______ _______ _______ _____ _____    ______ ____
ROOT
ATOM      1  N   UNL     1       4.946  -3.340  27.045  0.00  0.00    -0.193 N 
ATOM      2  C   UNL     1       5.142  -1.978  27.395  0.00  0.00    +0.279 A 
ATOM      3  O   UNL     1       5.010  -1.503  28.512  0.00  0.00    -0.265 OA
ATOM      4  C   UNL     1       5.528  -1.408  26.153  0.00  0.00    +0.064 A 
ATOM      5  C   UNL     1       5.379  -2.352  25.111  0.00  0.00    +0.064 A 
ATOM      6  C   UNL     1       5.673  -1.869  23.792  0.00  0.00    +0.023 A 
ATOM      7  C   UNL     1       6.031  -2.808  22.810  0.00  0.00    +0.008 A 
ATOM      8  C   UNL     1       5.361  -3.625  21.895  0.00  0.00    +0.014 A 
ATOM      9  C   UNL     1       6.013  -4.802  21.570  0.00  0.00    +0.046 A 
ATOM     10  C   UNL     1       7.278  -5.041  22.100  0.00  0.00    +0.119 A 
ATOM     11  C   UNL     1       8.098  -4.003  22.559  0.00  0.00    +0.071 A 
ATOM     12  C   UNL     1       7.456  -2.772  22.724  0.00  0.00    +0.051 A 
ATOM     13  N   UNL     1       7.873  -1.458  22.973  0.00  0.00    -0.352 N 
ATOM     14  H   UNL     1       8.790  -1.034  22.880  0.00  0.00    +0.166 HD
ATOM     15  C   UNL     1       6.765  -0.995  23.604  0.00  0.00    +0.073 A 
ATOM     16  C   UNL     1       6.803   0.054  24.492  0.00  0.00    +0.077 A 
ATOM     17  N   UNL     1       7.264   1.297  24.191  0.00  0.00    -0.309 N 
ATOM     18  C   UNL     1       7.109   1.896  25.464  0.00  0.00    +0.056 A 
ATOM     19  C   UNL     1       7.452   3.193  25.918  0.00  0.00    +0.072 A 
ATOM     20  C   UNL     1       7.171   3.588  27.217  0.00  0.00    +0.119 A 
ATOM     21  C   UNL     1       6.574   2.733  28.125  0.00  0.00    +0.046 A 
ATOM     22  C   UNL     1       6.227   1.437  27.729  0.00  0.00    +0.014 A 
ATOM     23  C   UNL     1       6.448   0.986  26.404  0.00  0.00    +0.009 A 
ATOM     24  C   UNL     1       6.164  -0.213  25.723  0.00  0.00    +0.023 A 
ATOM     25  C   UNL     1       5.204  -3.656  25.706  0.00  0.00    +0.279 A 
ATOM     26  O   UNL     1       5.330  -4.782  25.251  0.00  0.00    -0.265 OA
ENDROOT
BRANCH  17  27
ATOM     27  C   UNL     1       7.385   1.839  22.838  0.00  0.00    +0.251 C 
ATOM     28  C   UNL     1       8.343   3.009  22.524  0.00  0.00    +0.195 C 
ATOM     29  C   UNL     1       7.860   4.300  23.215  0.00  0.00    +0.178 C 
ATOM     30  C   UNL     1       6.410   4.606  22.810  0.00  0.00    +0.177 C 
ATOM     31  C   UNL     1       5.512   3.381  22.988  0.00  0.00    +0.177 C 
ATOM     32  O   UNL     1       6.072   2.214  22.345  0.00  0.00    -0.346 OA
BRANCH  28  33
ATOM     33  O   UNL     1       9.726   2.722  22.735  0.00  0.00    -0.385 OA
ATOM     34  H   UNL     1      10.231   2.862  21.919  0.00  0.00    +0.210 HD
ENDBRANCH  28  33
BRANCH  29  35
ATOM     35  O   UNL     1       8.678   5.418  22.848  0.00  0.00    -0.386 OA
ATOM     36  H   UNL     1       8.575   6.076  23.562  0.00  0.00    +0.210 HD
ENDBRANCH  29  35
BRANCH  30  37
ATOM     37  O   UNL     1       5.934   5.724  23.569  0.00  0.00    -0.386 OA
ATOM     38  H   UNL     1       6.592   5.943  24.253  0.00  0.00    +0.210 HD
ENDBRANCH  30  37
BRANCH  31  39
ATOM     39  C   UNL     1       4.124   3.635  22.379  0.00  0.00    +0.190 C 
BRANCH  39  40
ATOM     40  O   UNL     1       3.183   2.686  22.876  0.00  0.00    -0.392 OA
ATOM     41  H   UNL     1       3.555   2.363  23.719  0.00  0.00    +0.210 HD
ENDBRANCH  39  40
ENDBRANCH  31  39
ENDBRANCH  17  27
BRANCH   1  42
ATOM     42  N   UNL     1       4.959  -4.357  28.075  0.00  0.00    -0.271 N 
ATOM     43  H   UNL     1       5.626  -5.093  27.823  0.00  0.00    +0.167 HD
BRANCH  42  44
ATOM     44  C   UNL     1       3.651  -4.990  28.365  0.00  0.00    +0.138 C 
BRANCH  44  45
ATOM     45  C   UNL     1       2.534  -4.586  27.377  0.00  0.00    +0.181 C 
BRANCH  45  46
ATOM     46  O   UNL     1       2.398  -5.548  26.327  0.00  0.00    -0.393 OA
ATOM     47  H   UNL     1       3.280  -5.622  25.906  0.00  0.00    +0.209 HD
ENDBRANCH  45  46
ENDBRANCH  44  45
BRANCH  44  48
ATOM     48  C   UNL     1       3.828  -6.533  28.307  0.00  0.00    +0.181 C 
BRANCH  48  49
ATOM     49  O   UNL     1       4.771  -6.943  27.314  0.00  0.00    -0.393 OA
ATOM     50  H   UNL     1       4.360  -6.755  26.442  0.00  0.00    +0.209 HD
ENDBRANCH  48  49
ENDBRANCH  44  48
ENDBRANCH  42  44
ENDBRANCH   1  42
BRANCH  10  51
ATOM     51  O   UNL     1       7.700  -6.333  22.224  0.00  0.00    -0.507 OA
ATOM     52  H   UNL     1       8.635  -6.270  22.508  0.00  0.00    +0.292 HD
ENDBRANCH  10  51
BRANCH  20  53
ATOM     53  O   UNL     1       7.482   4.874  27.546  0.00  0.00    -0.507 OA
ATOM     54  H   UNL     1       6.823   5.473  27.160  0.00  0.00    +0.292 HD
ENDBRANCH  20  53
TORSDOF 14
ENDMDL
MODEL 9
REMARK VINA RESULT:      -5.8      2.407      8.062
REMARK  Name = 
REMARK  14 active torsions:
REMARK  status: ('A' for Active; 'I' for Inactive)
REMARK    1  A    between atoms: O_1  and  C_2
REMARK    2  A    between atoms: C_2  and  C_3
REMARK    3  A    between atoms: C_3  and  C_4
REMARK    4  A    between atoms: C_3  and  N_6
REMARK    5  A    between atoms: C_4  and  O_5
REMARK    6  A    between atoms: N_6  and  N_7
REMARK    7  A    between atoms: C_18  and  O_19
REMARK    8  A    between atoms: N_22  and  C_23
REMARK    9  A    between atoms: C_25  and  C_27
REMARK   10  A    between atoms: C_27  and  O_28
REMARK   11  A    between atoms: C_29  and  O_31
REMARK   12  A    between atoms: C_32  and  O_34
REMARK   13  A    between atoms: C_35  and  O_37
REMARK   14  A    between atoms: C_42  and  O_43
REMARK                            x       y       z     vdW  Elec       q    Type
REMARK                         _______ _______ _______ _____ _____    ______ ____
ROOT
ATOM      1  N   UNL     1       4.651  -2.101  27.146  0.00  0.00    -0.193 N 
ATOM      2  C   UNL     1       4.844  -0.715  27.385  0.00  0.00    +0.279 A 
ATOM      3  O   UNL     1       4.488  -0.108  28.384  0.00  0.00    -0.265 OA
ATOM      4  C   UNL     1       5.537  -0.308  26.215  0.00  0.00    +0.064 A 
ATOM      5  C   UNL     1       5.573  -1.362  25.273  0.00  0.00    +0.064 A 
ATOM      6  C   UNL     1       6.189  -1.047  24.016  0.00  0.00    +0.023 A 
ATOM      7  C   UNL     1       6.704  -2.107  23.250  0.00  0.00    +0.008 A 
ATOM      8  C   UNL     1       6.213  -3.001  22.296  0.00  0.00    +0.014 A 
ATOM      9  C   UNL     1       6.849  -4.230  22.259  0.00  0.00    +0.046 A 
ATOM     10  C   UNL     1       7.943  -4.448  23.091  0.00  0.00    +0.119 A 
ATOM     11  C   UNL     1       8.698  -3.392  23.617  0.00  0.00    +0.071 A 
ATOM     12  C   UNL     1       8.110  -2.129  23.496  0.00  0.00    +0.051 A 
ATOM     13  N   UNL     1       8.538  -0.810  23.695  0.00  0.00    -0.352 N 
ATOM     14  H   UNL     1       9.476  -0.431  23.774  0.00  0.00    +0.166 HD
ATOM     15  C   UNL     1       7.345  -0.239  23.997  0.00  0.00    +0.073 A 
ATOM     16  C   UNL     1       7.242   0.905  24.753  0.00  0.00    +0.077 A 
ATOM     17  N   UNL     1       7.834   2.088  24.438  0.00  0.00    -0.309 N 
ATOM     18  C   UNL     1       7.429   2.836  25.569  0.00  0.00    +0.056 A 
ATOM     19  C   UNL     1       7.737   4.166  25.950  0.00  0.00    +0.072 A 
ATOM     20  C   UNL     1       7.191   4.719  27.098  0.00  0.00    +0.119 A 
ATOM     21  C   UNL     1       6.352   3.997  27.926  0.00  0.00    +0.046 A 
ATOM     22  C   UNL     1       6.027   2.676  27.601  0.00  0.00    +0.014 A 
ATOM     23  C   UNL     1       6.517   2.067  26.419  0.00  0.00    +0.009 A 
ATOM     24  C   UNL     1       6.325   0.806  25.822  0.00  0.00    +0.023 A 
ATOM     25  C   UNL     1       5.188  -2.581  25.945  0.00  0.00    +0.279 A 
ATOM     26  O   UNL     1       5.346  -3.756  25.655  0.00  0.00    -0.265 OA
ENDROOT
BRANCH  17  27
ATOM     27  C   UNL     1       8.293   2.463  23.101  0.00  0.00    +0.251 C 
ATOM     28  C   UNL     1       9.797   2.626  22.784  0.00  0.00    +0.195 C 
ATOM     29  C   UNL     1      10.378   3.835  23.543  0.00  0.00    +0.178 C 
ATOM     30  C   UNL     1       9.571   5.101  23.218  0.00  0.00    +0.177 C 
ATOM     31  C   UNL     1       8.071   4.865  23.394  0.00  0.00    +0.177 C 
ATOM     32  O   UNL     1       7.632   3.686  22.685  0.00  0.00    -0.346 OA
BRANCH  28  33
ATOM     33  O   UNL     1      10.568   1.431  22.919  0.00  0.00    -0.385 OA
ATOM     34  H   UNL     1      10.826   1.295  23.844  0.00  0.00    +0.210 HD
ENDBRANCH  28  33
BRANCH  29  35
ATOM     35  O   UNL     1      11.746   4.063  23.178  0.00  0.00    -0.386 OA
ATOM     36  H   UNL     1      11.747   4.231  22.217  0.00  0.00    +0.210 HD
ENDBRANCH  29  35
BRANCH  30  37
ATOM     37  O   UNL     1      10.036   6.180  24.038  0.00  0.00    -0.386 OA
ATOM     38  H   UNL     1      10.159   6.969  23.480  0.00  0.00    +0.210 HD
ENDBRANCH  30  37
BRANCH  31  39
ATOM     39  C   UNL     1       7.269   6.063  22.861  0.00  0.00    +0.190 C 
BRANCH  39  40
ATOM     40  O   UNL     1       7.568   6.287  21.485  0.00  0.00    -0.392 OA
ATOM     41  H   UNL     1       7.300   7.209  21.304  0.00  0.00    +0.210 HD
ENDBRANCH  39  40
ENDBRANCH  31  39
ENDBRANCH  17  27
BRANCH   1  42
ATOM     42  N   UNL     1       4.366  -2.991  28.252  0.00  0.00    -0.271 N 
ATOM     43  H   UNL     1       5.015  -3.783  28.231  0.00  0.00    +0.167 HD
BRANCH  42  44
ATOM     44  C   UNL     1       2.983  -3.518  28.310  0.00  0.00    +0.138 C 
BRANCH  44  45
ATOM     45  C   UNL     1       2.906  -5.061  28.296  0.00  0.00    +0.181 C 
BRANCH  45  46
ATOM     46  O   UNL     1       3.659  -5.608  27.209  0.00  0.00    -0.393 OA
ATOM     47  H   UNL     1       4.596  -5.382  27.382  0.00  0.00    +0.209 HD
ENDBRANCH  45  46
ENDBRANCH  44  45
BRANCH  44  48
ATOM     48  C   UNL     1       2.315  -3.003  29.616  0.00  0.00    +0.181 C 
BRANCH  48  49
ATOM     49  O   UNL     1       2.202  -1.578  29.653  0.00  0.00    -0.393 OA
ATOM     50  H   UNL     1       1.355  -1.352  29.208  0.00  0.00    +0.209 HD
ENDBRANCH  48  49
ENDBRANCH  44  48
ENDBRANCH  42  44
ENDBRANCH   1  42
BRANCH  10  51
ATOM     51  O   UNL     1       8.247  -5.730  23.447  0.00  0.00    -0.507 OA
ATOM     52  H   UNL     1       9.110  -5.670  23.905  0.00  0.00    +0.292 HD
ENDBRANCH  10  51
BRANCH  20  53
ATOM     53  O   UNL     1       7.497   6.024  27.352  0.00  0.00    -0.507 OA
ATOM     54  H   UNL     1       8.455   6.110  27.480  0.00  0.00    +0.292 HD
ENDBRANCH  20  53
TORSDOF 14
ENDMDL
