MODEL 1
REMARK VINA RESULT:      -6.5      0.000      0.000
REMARK  Name = 
REMARK  8 active torsions:
REMARK  status: ('A' for Active; 'I' for Inactive)
REMARK    1  A    between atoms: O_1  and  C_2
REMARK    2  A    between atoms: C_4  and  O_6
REMARK    3  A    between atoms: C_7  and  N_18
REMARK    4  A    between atoms: C_10  and  C_12
REMARK    5  A    between atoms: C_12  and  O_13
REMARK    6  A    between atoms: O_13  and  P_14
REMARK    7  A    between atoms: P_14  and  O_15
REMARK    8  A    between atoms: P_14  and  O_16
REMARK                            x       y       z     vdW  Elec       q    Type
REMARK                         _______ _______ _______ _____ _____    ______ ____
ROOT
ATOM      1  C   UNL     1       8.175  -2.057  22.368  0.00  0.00    +0.178 C 
ATOM      2  C   UNL     1       7.820  -0.872  23.275  0.00  0.00    +0.178 C 
ATOM      3  O   UNL     1       8.608  -0.976  24.478  0.00  0.00    -0.346 OA
ATOM      4  C   UNL     1       9.360  -2.204  24.431  0.00  0.00    +0.255 C 
ATOM      5  C   UNL     1       9.501  -2.536  22.930  0.00  0.00    +0.195 C 
ENDROOT
BRANCH   4   6
ATOM      6  N   UNL     1       8.682  -3.227  25.252  0.00  0.00    -0.271 N 
ATOM      7  C   UNL     1       9.302  -4.468  25.362  0.00  0.00    +0.331 A 
ATOM      8  O   UNL     1      10.334  -4.769  24.764  0.00  0.00    -0.246 OA
ATOM      9  N   UNL     1       8.697  -5.367  26.196  0.00  0.00    -0.275 N 
ATOM     10  H   UNL     1       9.154  -6.259  26.310  0.00  0.00    +0.173 HD
ATOM     11  C   UNL     1       7.648  -5.108  27.029  0.00  0.00    +0.254 A 
ATOM     12  O   UNL     1       7.244  -5.905  27.868  0.00  0.00    -0.268 OA
ATOM     13  C   UNL     1       7.029  -3.788  26.877  0.00  0.00    +0.088 A 
ATOM     14  C   UNL     1       7.575  -2.917  26.027  0.00  0.00    +0.098 A 
ENDBRANCH   4   6
BRANCH   1  15
ATOM     15  O   UNL     1       7.198  -3.100  22.444  0.00  0.00    -0.386 OA
ATOM     16  H   UNL     1       7.058  -3.469  21.555  0.00  0.00    +0.210 HD
ENDBRANCH   1  15
BRANCH   5  17
ATOM     17  O   UNL     1      10.556  -1.752  22.344  0.00  0.00    -0.385 OA
ATOM     18  H   UNL     1      10.393  -1.725  21.383  0.00  0.00    +0.210 HD
ENDBRANCH   5  17
BRANCH   2  19
ATOM     19  C   UNL     1       8.095   0.484  22.638  0.00  0.00    +0.206 C 
BRANCH  19  20
ATOM     20  O   UNL     1       8.353   1.426  23.667  0.00  0.00    -0.284 OA
BRANCH  20  21
ATOM     21  P   UNL     1       9.758   2.394  23.378  0.00  0.00    +0.472 P 
ATOM     22  O   UNL     1      11.016   3.259  23.121  0.00  0.00    -0.228 OA
BRANCH  21  23
ATOM     23  O   UNL     1       9.347   2.267  21.799  0.00  0.00    -0.303 OA
ATOM     24  H   UNL     1       8.718   1.521  21.752  0.00  0.00    +0.222 HD
ENDBRANCH  21  23
BRANCH  21  25
ATOM     25  O   UNL     1      10.560   0.964  23.390  0.00  0.00    -0.303 OA
ATOM     26  H   UNL     1       9.955   0.212  23.273  0.00  0.00    +0.222 HD
ENDBRANCH  21  25
ENDBRANCH  20  21
ENDBRANCH  19  20
ENDBRANCH   2  19
TORSDOF 8
ENDMDL
MODEL 2
REMARK VINA RESULT:      -6.1      3.139      6.594
REMARK  Name = 
REMARK  8 active torsions:
REMARK  status: ('A' for Active; 'I' for Inactive)
REMARK    1  A    between atoms: O_1  and  C_2
REMARK    2  A    between atoms: C_4  and  O_6
REMARK    3  A    between atoms: C_7  and  N_18
REMARK    4  A    between atoms: C_10  and  C_12
REMARK    5  A    between atoms: C_12  and  O_13
REMARK    6  A    between atoms: O_13  and  P_14
REMARK    7  A    between atoms: P_14  and  O_15
REMARK    8  A    between atoms: P_14  and  O_16
REMARK                            x       y       z     vdW  Elec       q    Type
REMARK                         _______ _______ _______ _____ _____    ______ ____
ROOT
ATOM      1  C   UNL     1       9.404  -1.381  24.228  0.00  0.00    +0.178 C 
ATOM      2  C   UNL     1       8.127  -2.015  23.659  0.00  0.00    +0.178 C 
ATOM      3  O   UNL     1       7.904  -1.471  22.343  0.00  0.00    -0.346 OA
ATOM      4  C   UNL     1       8.900  -0.461  22.087  0.00  0.00    +0.255 C 
ATOM      5  C   UNL     1      10.094  -0.831  22.993  0.00  0.00    +0.195 C 
ENDROOT
BRANCH   4   6
ATOM      6  N   UNL     1       8.314   0.875  22.313  0.00  0.00    -0.271 N 
ATOM      7  C   UNL     1       9.141   1.975  22.106  0.00  0.00    +0.331 A 
ATOM      8  O   UNL     1      10.333   1.886  21.814  0.00  0.00    -0.246 OA
ATOM      9  N   UNL     1       8.550   3.201  22.239  0.00  0.00    -0.275 N 
ATOM     10  H   UNL     1       9.130   4.006  22.060  0.00  0.00    +0.173 HD
ATOM     11  C   UNL     1       7.215   3.434  22.403  0.00  0.00    +0.254 A 
ATOM     12  O   UNL     1       6.719   4.554  22.361  0.00  0.00    -0.268 OA
ATOM     13  C   UNL     1       6.386   2.244  22.616  0.00  0.00    +0.088 A 
ATOM     14  C   UNL     1       6.958   1.042  22.543  0.00  0.00    +0.098 A 
ENDBRANCH   4   6
BRANCH   1  15
ATOM     15  O   UNL     1       9.112  -0.324  25.146  0.00  0.00    -0.386 OA
ATOM     16  H   UNL     1       9.945   0.007  25.524  0.00  0.00    +0.210 HD
ENDBRANCH   1  15
BRANCH   5  17
ATOM     17  O   UNL     1      10.867  -1.886  22.393  0.00  0.00    -0.385 OA
ATOM     18  H   UNL     1      10.364  -2.206  21.621  0.00  0.00    +0.210 HD
ENDBRANCH   5  17
BRANCH   2  19
ATOM     19  C   UNL     1       8.201  -3.532  23.545  0.00  0.00    +0.206 C 
BRANCH  19  20
ATOM     20  O   UNL     1       9.258  -3.999  24.367  0.00  0.00    -0.284 OA
BRANCH  20  21
ATOM     21  P   UNL     1       8.721  -4.637  25.883  0.00  0.00    +0.472 P 
ATOM     22  O   UNL     1       8.240  -5.208  27.239  0.00  0.00    -0.228 OA
BRANCH  21  23
ATOM     23  O   UNL     1       9.728  -5.885  25.553  0.00  0.00    -0.303 OA
ATOM     24  H   UNL     1      10.155  -6.107  26.402  0.00  0.00    +0.222 HD
ENDBRANCH  21  23
BRANCH  21  25
ATOM     25  O   UNL     1       7.487  -5.268  25.009  0.00  0.00    -0.303 OA
ATOM     26  H   UNL     1       6.875  -4.578  24.702  0.00  0.00    +0.222 HD
ENDBRANCH  21  25
ENDBRANCH  20  21
ENDBRANCH  19  20
ENDBRANCH   2  19
TORSDOF 8
ENDMDL
MODEL 3
REMARK VINA RESULT:      -6.1      2.943      6.414
REMARK  Name = 
REMARK  8 active torsions:
REMARK  status: ('A' for Active; 'I' for Inactive)
REMARK    1  A    between atoms: O_1  and  C_2
REMARK    2  A    between atoms: C_4  and  O_6
REMARK    3  A    between atoms: C_7  and  N_18
REMARK    4  A    between atoms: C_10  and  C_12
REMARK    5  A    between atoms: C_12  and  O_13
REMARK    6  A    between atoms: O_13  and  P_14
REMARK    7  A    between atoms: P_14  and  O_15
REMARK    8  A    between atoms: P_14  and  O_16
REMARK                            x       y       z     vdW  Elec       q    Type
REMARK                         _______ _______ _______ _____ _____    ______ ____
ROOT
ATOM      1  C   UNL     1       8.548  -2.611  22.450  0.00  0.00    +0.178 C 
ATOM      2  C   UNL     1       9.122  -2.945  23.833  0.00  0.00    +0.178 C 
ATOM      3  O   UNL     1       8.669  -1.941  24.762  0.00  0.00    -0.346 OA
ATOM      4  C   UNL     1       7.931  -0.940  24.034  0.00  0.00    +0.255 C 
ATOM      5  C   UNL     1       7.409  -1.659  22.772  0.00  0.00    +0.195 C 
ENDROOT
BRANCH   4   6
ATOM      6  N   UNL     1       8.796   0.231  23.794  0.00  0.00    -0.271 N 
ATOM      7  C   UNL     1       8.205   1.352  23.218  0.00  0.00    +0.331 A 
ATOM      8  O   UNL     1       7.033   1.389  22.847  0.00  0.00    -0.246 OA
ATOM      9  N   UNL     1       9.009   2.451  23.085  0.00  0.00    -0.275 N 
ATOM     10  H   UNL     1       8.584   3.279  22.699  0.00  0.00    +0.173 HD
ATOM     11  C   UNL     1      10.267   2.590  23.594  0.00  0.00    +0.254 A 
ATOM     12  O   UNL     1      10.884   3.649  23.581  0.00  0.00    -0.268 OA
ATOM     13  C   UNL     1      10.847   1.382  24.191  0.00  0.00    +0.088 A 
ATOM     14  C   UNL     1      10.093   0.285  24.279  0.00  0.00    +0.098 A 
ENDBRANCH   4   6
BRANCH   1  15
ATOM     15  O   UNL     1       9.512  -1.967  21.612  0.00  0.00    -0.386 OA
ATOM     16  H   UNL     1       9.932  -2.634  21.042  0.00  0.00    +0.210 HD
ENDBRANCH   1  15
BRANCH   5  17
ATOM     17  O   UNL     1       6.239  -2.435  23.087  0.00  0.00    -0.385 OA
ATOM     18  H   UNL     1       6.104  -2.371  24.051  0.00  0.00    +0.210 HD
ENDBRANCH   5  17
BRANCH   2  19
ATOM     19  C   UNL     1       8.693  -4.310  24.355  0.00  0.00    +0.206 C 
BRANCH  19  20
ATOM     20  O   UNL     1       7.475  -4.162  25.068  0.00  0.00    -0.284 OA
BRANCH  20  21
ATOM     21  P   UNL     1       7.435  -5.049  26.553  0.00  0.00    +0.472 P 
ATOM     22  O   UNL     1       7.398  -5.845  27.881  0.00  0.00    -0.228 OA
BRANCH  21  23
ATOM     23  O   UNL     1       8.440  -3.886  27.112  0.00  0.00    -0.303 OA
ATOM     24  H   UNL     1       9.323  -4.301  27.154  0.00  0.00    +0.222 HD
ENDBRANCH  21  23
BRANCH  21  25
ATOM     25  O   UNL     1       8.652  -5.924  25.889  0.00  0.00    -0.303 OA
ATOM     26  H   UNL     1       8.314  -6.613  25.291  0.00  0.00    +0.222 HD
ENDBRANCH  21  25
ENDBRANCH  20  21
ENDBRANCH  19  20
ENDBRANCH   2  19
TORSDOF 8
ENDMDL
MODEL 4
REMARK VINA RESULT:      -6.0      2.059      3.155
REMARK  Name = 
REMARK  8 active torsions:
REMARK  status: ('A' for Active; 'I' for Inactive)
REMARK    1  A    between atoms: O_1  and  C_2
REMARK    2  A    between atoms: C_4  and  O_6
REMARK    3  A    between atoms: C_7  and  N_18
REMARK    4  A    between atoms: C_10  and  C_12
REMARK    5  A    between atoms: C_12  and  O_13
REMARK    6  A    between atoms: O_13  and  P_14
REMARK    7  A    between atoms: P_14  and  O_15
REMARK    8  A    between atoms: P_14  and  O_16
REMARK                            x       y       z     vdW  Elec       q    Type
REMARK                         _______ _______ _______ _____ _____    ______ ____
ROOT
ATOM      1  C   UNL     1       7.320   1.321  22.649  0.00  0.00    +0.178 C 
ATOM      2  C   UNL     1       7.587   1.934  24.030  0.00  0.00    +0.178 C 
ATOM      3  O   UNL     1       8.889   1.500  24.470  0.00  0.00    -0.346 OA
ATOM      4  C   UNL     1       9.416   0.572  23.501  0.00  0.00    +0.255 C 
ATOM      5  C   UNL     1       8.706   0.923  22.176  0.00  0.00    +0.195 C 
ENDROOT
BRANCH   4   6
ATOM      6  N   UNL     1       9.222  -0.808  23.986  0.00  0.00    -0.271 N 
ATOM      7  C   UNL     1       9.877  -1.824  23.295  0.00  0.00    +0.331 A 
ATOM      8  O   UNL     1      10.543  -1.636  22.278  0.00  0.00    -0.246 OA
ATOM      9  N   UNL     1       9.749  -3.082  23.817  0.00  0.00    -0.275 N 
ATOM     10  H   UNL     1      10.244  -3.821  23.344  0.00  0.00    +0.173 HD
ATOM     11  C   UNL     1       9.175  -3.399  25.013  0.00  0.00    +0.254 A 
ATOM     12  O   UNL     1       9.224  -4.520  25.505  0.00  0.00    -0.268 OA
ATOM     13  C   UNL     1       8.499  -2.296  25.704  0.00  0.00    +0.088 A 
ATOM     14  C   UNL     1       8.569  -1.072  25.180  0.00  0.00    +0.098 A 
ENDBRANCH   4   6
BRANCH   1  15
ATOM     15  O   UNL     1       6.473   0.171  22.729  0.00  0.00    -0.386 OA
ATOM     16  H   UNL     1       5.694   0.388  23.270  0.00  0.00    +0.210 HD
ENDBRANCH   1  15
BRANCH   5  17
ATOM     17  O   UNL     1       9.328   2.067  21.565  0.00  0.00    -0.385 OA
ATOM     18  H   UNL     1       8.630   2.735  21.431  0.00  0.00    +0.210 HD
ENDBRANCH   5  17
BRANCH   2  19
ATOM     19  C   UNL     1       7.563   3.457  24.034  0.00  0.00    +0.206 C 
BRANCH  19  20
ATOM     20  O   UNL     1       8.672   3.927  24.782  0.00  0.00    -0.284 OA
BRANCH  20  21
ATOM     21  P   UNL     1       9.584   5.150  23.966  0.00  0.00    +0.472 P 
ATOM     22  O   UNL     1      10.402   6.244  23.236  0.00  0.00    -0.228 OA
BRANCH  21  23
ATOM     23  O   UNL     1       8.511   4.940  22.750  0.00  0.00    -0.303 OA
ATOM     24  H   UNL     1       8.705   5.647  22.105  0.00  0.00    +0.222 HD
ENDBRANCH  21  23
BRANCH  21  25
ATOM     25  O   UNL     1      10.533   3.905  23.480  0.00  0.00    -0.303 OA
ATOM     26  H   UNL     1      10.024   3.083  23.381  0.00  0.00    +0.222 HD
ENDBRANCH  21  25
ENDBRANCH  20  21
ENDBRANCH  19  20
ENDBRANCH   2  19
TORSDOF 8
ENDMDL
MODEL 5
REMARK VINA RESULT:      -6.0      2.094      2.820
REMARK  Name = 
REMARK  8 active torsions:
REMARK  status: ('A' for Active; 'I' for Inactive)
REMARK    1  A    between atoms: O_1  and  C_2
REMARK    2  A    between atoms: C_4  and  O_6
REMARK    3  A    between atoms: C_7  and  N_18
REMARK    4  A    between atoms: C_10  and  C_12
REMARK    5  A    between atoms: C_12  and  O_13
REMARK    6  A    between atoms: O_13  and  P_14
REMARK    7  A    between atoms: P_14  and  O_15
REMARK    8  A    between atoms: P_14  and  O_16
REMARK                            x       y       z     vdW  Elec       q    Type
REMARK                         _______ _______ _______ _____ _____    ______ ____
ROOT
ATOM      1  C   UNL     1       9.980  -0.567  22.373  0.00  0.00    +0.178 C 
ATOM      2  C   UNL     1       8.615   0.090  22.128  0.00  0.00    +0.178 C 
ATOM      3  O   UNL     1       7.678  -0.454  23.078  0.00  0.00    -0.346 OA
ATOM      4  C   UNL     1       8.339  -1.484  23.839  0.00  0.00    +0.255 C 
ATOM      5  C   UNL     1       9.842  -1.135  23.774  0.00  0.00    +0.195 C 
ENDROOT
BRANCH   4   6
ATOM      6  N   UNL     1       7.965  -2.807  23.302  0.00  0.00    -0.271 N 
ATOM      7  C   UNL     1       8.412  -3.927  23.999  0.00  0.00    +0.331 A 
ATOM      8  O   UNL     1       9.146  -3.867  24.985  0.00  0.00    -0.246 OA
ATOM      9  N   UNL     1       7.980  -5.136  23.529  0.00  0.00    -0.275 N 
ATOM     10  H   UNL     1       8.270  -5.953  24.044  0.00  0.00    +0.173 HD
ATOM     11  C   UNL     1       7.047  -5.330  22.552  0.00  0.00    +0.254 A 
ATOM     12  O   UNL     1       6.582  -6.430  22.277  0.00  0.00    -0.268 OA
ATOM     13  C   UNL     1       6.607  -4.122  21.848  0.00  0.00    +0.088 A 
ATOM     14  C   UNL     1       7.061  -2.937  22.259  0.00  0.00    +0.098 A 
ENDBRANCH   4   6
BRANCH   1  15
ATOM     15  O   UNL     1      10.245  -1.615  21.436  0.00  0.00    -0.386 OA
ATOM     16  H   UNL     1       9.758  -1.436  20.613  0.00  0.00    +0.210 HD
ENDBRANCH   1  15
BRANCH   5  17
ATOM     17  O   UNL     1      10.154  -0.098  24.722  0.00  0.00    -0.385 OA
ATOM     18  H   UNL     1      10.615  -0.522  25.469  0.00  0.00    +0.210 HD
ENDBRANCH   5  17
BRANCH   2  19
ATOM     19  C   UNL     1       8.634   1.604  22.286  0.00  0.00    +0.206 C 
BRANCH  19  20
ATOM     20  O   UNL     1       8.178   1.932  23.588  0.00  0.00    -0.284 OA
BRANCH  20  21
ATOM     21  P   UNL     1       8.786   3.444  24.170  0.00  0.00    +0.472 P 
ATOM     22  O   UNL     1       9.330   4.796  24.692  0.00  0.00    -0.228 OA
BRANCH  21  23
ATOM     23  O   UNL     1       8.615   3.947  22.623  0.00  0.00    -0.303 OA
ATOM     24  H   UNL     1       9.160   3.338  22.088  0.00  0.00    +0.222 HD
ENDBRANCH  21  23
BRANCH  21  25
ATOM     25  O   UNL     1      10.262   2.783  23.900  0.00  0.00    -0.303 OA
ATOM     26  H   UNL     1      10.193   1.862  23.599  0.00  0.00    +0.222 HD
ENDBRANCH  21  25
ENDBRANCH  20  21
ENDBRANCH  19  20
ENDBRANCH   2  19
TORSDOF 8
ENDMDL
MODEL 6
REMARK VINA RESULT:      -5.9      3.425      6.644
REMARK  Name = 
REMARK  8 active torsions:
REMARK  status: ('A' for Active; 'I' for Inactive)
REMARK    1  A    between atoms: O_1  and  C_2
REMARK    2  A    between atoms: C_4  and  O_6
REMARK    3  A    between atoms: C_7  and  N_18
REMARK    4  A    between atoms: C_10  and  C_12
REMARK    5  A    between atoms: C_12  and  O_13
REMARK    6  A    between atoms: O_13  and  P_14
REMARK    7  A    between atoms: P_14  and  O_15
REMARK    8  A    between atoms: P_14  and  O_16
REMARK                            x       y       z     vdW  Elec       q    Type
REMARK                         _______ _______ _______ _____ _____    ______ ____
ROOT
ATOM      1  C   UNL     1       9.219  -1.324  24.392  0.00  0.00    +0.178 C 
ATOM      2  C   UNL     1       7.865  -1.895  23.949  0.00  0.00    +0.178 C 
ATOM      3  O   UNL     1       7.600  -1.434  22.609  0.00  0.00    -0.346 OA
ATOM      4  C   UNL     1       8.651  -0.528  22.218  0.00  0.00    +0.255 C 
ATOM      5  C   UNL     1       9.869  -0.924  23.080  0.00  0.00    +0.195 C 
ENDROOT
BRANCH   4   6
ATOM      6  N   UNL     1       8.182   0.863  22.371  0.00  0.00    -0.271 N 
ATOM      7  C   UNL     1       9.090   1.877  22.077  0.00  0.00    +0.331 A 
ATOM      8  O   UNL     1      10.262   1.672  21.765  0.00  0.00    -0.246 OA
ATOM      9  N   UNL     1       8.604   3.154  22.145  0.00  0.00    -0.275 N 
ATOM     10  H   UNL     1       9.242   3.895  21.903  0.00  0.00    +0.173 HD
ATOM     11  C   UNL     1       7.297   3.506  22.324  0.00  0.00    +0.254 A 
ATOM     12  O   UNL     1       6.893   4.658  22.222  0.00  0.00    -0.268 OA
ATOM     13  C   UNL     1       6.380   2.404  22.630  0.00  0.00    +0.088 A 
ATOM     14  C   UNL     1       6.851   1.156  22.621  0.00  0.00    +0.098 A 
ENDBRANCH   4   6
BRANCH   1  15
ATOM     15  O   UNL     1       9.066  -0.182  25.240  0.00  0.00    -0.386 OA
ATOM     16  H   UNL     1       9.168   0.625  24.707  0.00  0.00    +0.210 HD
ENDBRANCH   1  15
BRANCH   5  17
ATOM     17  O   UNL     1      10.522  -2.078  22.521  0.00  0.00    -0.385 OA
ATOM     18  H   UNL     1      10.865  -2.602  23.268  0.00  0.00    +0.210 HD
ENDBRANCH   5  17
BRANCH   2  19
ATOM     19  C   UNL     1       7.818  -3.417  23.950  0.00  0.00    +0.206 C 
BRANCH  19  20
ATOM     20  O   UNL     1       7.656  -3.868  22.615  0.00  0.00    -0.284 OA
BRANCH  20  21
ATOM     21  P   UNL     1       6.202  -4.771  22.365  0.00  0.00    +0.472 P 
ATOM     22  O   UNL     1       4.899  -5.578  22.141  0.00  0.00    -0.228 OA
BRANCH  21  23
ATOM     23  O   UNL     1       7.072  -5.596  21.251  0.00  0.00    -0.303 OA
ATOM     24  H   UNL     1       7.497  -6.326  21.741  0.00  0.00    +0.222 HD
ENDBRANCH  21  23
BRANCH  21  25
ATOM     25  O   UNL     1       5.813  -3.569  21.320  0.00  0.00    -0.303 OA
ATOM     26  H   UNL     1       6.478  -3.476  20.617  0.00  0.00    +0.222 HD
ENDBRANCH  21  25
ENDBRANCH  20  21
ENDBRANCH  19  20
ENDBRANCH   2  19
TORSDOF 8
ENDMDL
MODEL 7
REMARK VINA RESULT:      -5.9      3.246      6.593
REMARK  Name = 
REMARK  8 active torsions:
REMARK  status: ('A' for Active; 'I' for Inactive)
REMARK    1  A    between atoms: O_1  and  C_2
REMARK    2  A    between atoms: C_4  and  O_6
REMARK    3  A    between atoms: C_7  and  N_18
REMARK    4  A    between atoms: C_10  and  C_12
REMARK    5  A    between atoms: C_12  and  O_13
REMARK    6  A    between atoms: O_13  and  P_14
REMARK    7  A    between atoms: P_14  and  O_15
REMARK    8  A    between atoms: P_14  and  O_16
REMARK                            x       y       z     vdW  Elec       q    Type
REMARK                         _______ _______ _______ _____ _____    ______ ____
ROOT
ATOM      1  C   UNL     1       8.137  -3.433  25.638  0.00  0.00    +0.178 C 
ATOM      2  C   UNL     1       6.823  -3.652  24.876  0.00  0.00    +0.178 C 
ATOM      3  O   UNL     1       7.095  -3.529  23.466  0.00  0.00    -0.346 OA
ATOM      4  C   UNL     1       8.474  -3.147  23.295  0.00  0.00    +0.255 C 
ATOM      5  C   UNL     1       9.193  -3.644  24.568  0.00  0.00    +0.195 C 
ENDROOT
BRANCH   4   6
ATOM      6  N   UNL     1       8.554  -1.696  23.039  0.00  0.00    -0.271 N 
ATOM      7  C   UNL     1       9.757  -1.202  22.542  0.00  0.00    +0.331 A 
ATOM      8  O   UNL     1      10.759  -1.895  22.373  0.00  0.00    -0.246 OA
ATOM      9  N   UNL     1       9.775   0.130  22.234  0.00  0.00    -0.275 N 
ATOM     10  H   UNL     1      10.630   0.494  21.843  0.00  0.00    +0.173 HD
ATOM     11  C   UNL     1       8.696   0.967  22.228  0.00  0.00    +0.254 A 
ATOM     12  O   UNL     1       8.738   2.112  21.794  0.00  0.00    -0.268 OA
ATOM     13  C   UNL     1       7.453   0.401  22.759  0.00  0.00    +0.088 A 
ATOM     14  C   UNL     1       7.433  -0.884  23.115  0.00  0.00    +0.098 A 
ENDBRANCH   4   6
BRANCH   1  15
ATOM     15  O   UNL     1       8.230  -2.110  26.174  0.00  0.00    -0.386 OA
ATOM     16  H   UNL     1       8.468  -2.166  27.115  0.00  0.00    +0.210 HD
ENDBRANCH   1  15
BRANCH   5  17
ATOM     17  O   UNL     1       9.468  -5.053  24.467  0.00  0.00    -0.385 OA
ATOM     18  H   UNL     1       8.911  -5.501  25.130  0.00  0.00    +0.210 HD
ENDBRANCH   5  17
BRANCH   2  19
ATOM     19  C   UNL     1       6.196  -5.017  25.127  0.00  0.00    +0.206 C 
BRANCH  19  20
ATOM     20  O   UNL     1       6.059  -5.689  23.885  0.00  0.00    -0.284 OA
BRANCH  20  21
ATOM     21  P   UNL     1       4.424  -5.776  23.326  0.00  0.00    +0.472 P 
ATOM     22  O   UNL     1       2.960  -5.853  22.825  0.00  0.00    -0.228 OA
BRANCH  21  23
ATOM     23  O   UNL     1       4.500  -7.346  23.782  0.00  0.00    -0.303 OA
ATOM     24  H   UNL     1       4.330  -7.347  24.743  0.00  0.00    +0.222 HD
ENDBRANCH  21  23
BRANCH  21  25
ATOM     25  O   UNL     1       5.098  -6.063  21.860  0.00  0.00    -0.303 OA
ATOM     26  H   UNL     1       5.592  -5.291  21.535  0.00  0.00    +0.222 HD
ENDBRANCH  21  25
ENDBRANCH  20  21
ENDBRANCH  19  20
ENDBRANCH   2  19
TORSDOF 8
ENDMDL
MODEL 8
REMARK VINA RESULT:      -5.8      3.242      6.397
REMARK  Name = 
REMARK  8 active torsions:
REMARK  status: ('A' for Active; 'I' for Inactive)
REMARK    1  A    between atoms: O_1  and  C_2
REMARK    2  A    between atoms: C_4  and  O_6
REMARK    3  A    between atoms: C_7  and  N_18
REMARK    4  A    between atoms: C_10  and  C_12
REMARK    5  A    between atoms: C_12  and  O_13
REMARK    6  A    between atoms: O_13  and  P_14
REMARK    7  A    between atoms: P_14  and  O_15
REMARK    8  A    between atoms: P_14  and  O_16
REMARK                            x       y       z     vdW  Elec       q    Type
REMARK                         _______ _______ _______ _____ _____    ______ ____
ROOT
ATOM      1  C   UNL     1       8.086  -1.828  24.629  0.00  0.00    +0.178 C 
ATOM      2  C   UNL     1       7.316  -1.650  23.314  0.00  0.00    +0.178 C 
ATOM      3  O   UNL     1       8.274  -1.494  22.249  0.00  0.00    -0.346 OA
ATOM      4  C   UNL     1       9.597  -1.461  22.821  0.00  0.00    +0.255 C 
ATOM      5  C   UNL     1       9.477  -2.217  24.162  0.00  0.00    +0.195 C 
ENDROOT
BRANCH   4   6
ATOM      6  N   UNL     1      10.056  -0.061  22.913  0.00  0.00    -0.271 N 
ATOM      7  C   UNL     1       9.703   0.794  21.874  0.00  0.00    +0.331 A 
ATOM      8  O   UNL     1       9.095   0.430  20.868  0.00  0.00    -0.246 OA
ATOM      9  N   UNL     1      10.068   2.104  22.026  0.00  0.00    -0.275 N 
ATOM     10  H   UNL     1       9.790   2.740  21.295  0.00  0.00    +0.173 HD
ATOM     11  C   UNL     1      10.602   2.661  23.151  0.00  0.00    +0.254 A 
ATOM     12  O   UNL     1      10.766   3.868  23.289  0.00  0.00    -0.268 OA
ATOM     13  C   UNL     1      10.956   1.721  24.218  0.00  0.00    +0.088 A 
ATOM     14  C   UNL     1      10.655   0.431  24.062  0.00  0.00    +0.098 A 
ENDBRANCH   4   6
BRANCH   1  15
ATOM     15  O   UNL     1       8.137  -0.615  25.386  0.00  0.00    -0.386 OA
ATOM     16  H   UNL     1       7.259  -0.197  25.374  0.00  0.00    +0.210 HD
ENDBRANCH   1  15
BRANCH   5  17
ATOM     17  O   UNL     1       9.504  -3.638  23.937  0.00  0.00    -0.385 OA
ATOM     18  H   UNL     1      10.412  -3.940  24.124  0.00  0.00    +0.210 HD
ENDBRANCH   5  17
BRANCH   2  19
ATOM     19  C   UNL     1       6.411  -2.828  22.976  0.00  0.00    +0.206 C 
BRANCH  19  20
ATOM     20  O   UNL     1       6.981  -3.543  21.891  0.00  0.00    -0.284 OA
BRANCH  20  21
ATOM     21  P   UNL     1       6.726  -5.251  21.982  0.00  0.00    +0.472 P 
ATOM     22  O   UNL     1       6.499  -6.781  22.064  0.00  0.00    -0.228 OA
BRANCH  21  23
ATOM     23  O   UNL     1       5.135  -4.870  22.008  0.00  0.00    -0.303 OA
ATOM     24  H   UNL     1       4.955  -4.439  21.151  0.00  0.00    +0.222 HD
ENDBRANCH  21  23
BRANCH  21  25
ATOM     25  O   UNL     1       6.908  -5.041  23.597  0.00  0.00    -0.303 OA
ATOM     26  H   UNL     1       6.078  -5.206  24.076  0.00  0.00    +0.222 HD
ENDBRANCH  21  25
ENDBRANCH  20  21
ENDBRANCH  19  20
ENDBRANCH   2  19
TORSDOF 8
ENDMDL
MODEL 9
REMARK VINA RESULT:      -5.6      1.887      2.096
REMARK  Name = 
REMARK  8 active torsions:
REMARK  status: ('A' for Active; 'I' for Inactive)
REMARK    1  A    between atoms: O_1  and  C_2
REMARK    2  A    between atoms: C_4  and  O_6
REMARK    3  A    between atoms: C_7  and  N_18
REMARK    4  A    between atoms: C_10  and  C_12
REMARK    5  A    between atoms: C_12  and  O_13
REMARK    6  A    between atoms: O_13  and  P_14
REMARK    7  A    between atoms: P_14  and  O_15
REMARK    8  A    between atoms: P_14  and  O_16
REMARK                            x       y       z     vdW  Elec       q    Type
REMARK                         _______ _______ _______ _____ _____    ______ ____
ROOT
ATOM      1  C   UNL     1       7.669  -0.538  22.872  0.00  0.00    +0.178 C 
ATOM      2  C   UNL     1       8.033  -0.385  24.354  0.00  0.00    +0.178 C 
ATOM      3  O   UNL     1       8.888  -1.485  24.723  0.00  0.00    -0.346 OA
ATOM      4  C   UNL     1       9.003  -2.376  23.597  0.00  0.00    +0.255 C 
ATOM      5  C   UNL     1       8.725  -1.500  22.357  0.00  0.00    +0.195 C 
ENDROOT
BRANCH   4   6
ATOM      6  N   UNL     1       8.097  -3.526  23.785  0.00  0.00    -0.271 N 
ATOM      7  C   UNL     1       7.873  -3.952  25.092  0.00  0.00    +0.331 A 
ATOM      8  O   UNL     1       8.436  -3.466  26.072  0.00  0.00    -0.246 OA
ATOM      9  N   UNL     1       6.965  -4.962  25.244  0.00  0.00    -0.275 N 
ATOM     10  H   UNL     1       6.769  -5.258  26.188  0.00  0.00    +0.173 HD
ATOM     11  C   UNL     1       6.164  -5.475  24.265  0.00  0.00    +0.254 A 
ATOM     12  O   UNL     1       5.259  -6.271  24.486  0.00  0.00    -0.268 OA
ATOM     13  C   UNL     1       6.438  -4.996  22.907  0.00  0.00    +0.088 A 
ATOM     14  C   UNL     1       7.360  -4.048  22.734  0.00  0.00    +0.098 A 
ENDBRANCH   4   6
BRANCH   1  15
ATOM     15  O   UNL     1       6.363  -1.095  22.697  0.00  0.00    -0.386 OA
ATOM     16  H   UNL     1       5.966  -1.253  23.571  0.00  0.00    +0.210 HD
ENDBRANCH   1  15
BRANCH   5  17
ATOM     17  O   UNL     1       9.898  -0.745  22.005  0.00  0.00    -0.385 OA
ATOM     18  H   UNL     1       9.605  -0.003  21.445  0.00  0.00    +0.210 HD
ENDBRANCH   5  17
BRANCH   2  19
ATOM     19  C   UNL     1       8.762   0.915  24.669  0.00  0.00    +0.206 C 
BRANCH  19  20
ATOM     20  O   UNL     1       8.767   1.727  23.505  0.00  0.00    -0.284 OA
BRANCH  20  21
ATOM     21  P   UNL     1      10.174   2.724  23.368  0.00  0.00    +0.472 P 
ATOM     22  O   UNL     1      11.433   3.617  23.247  0.00  0.00    -0.228 OA
BRANCH  21  23
ATOM     23  O   UNL     1      10.221   2.201  21.819  0.00  0.00    -0.303 OA
ATOM     24  H   UNL     1       9.718   1.364  21.810  0.00  0.00    +0.222 HD
ENDBRANCH  21  23
BRANCH  21  25
ATOM     25  O   UNL     1      10.975   1.414  23.942  0.00  0.00    -0.303 OA
ATOM     26  H   UNL     1      11.700   1.669  24.537  0.00  0.00    +0.222 HD
ENDBRANCH  21  25
ENDBRANCH  20  21
ENDBRANCH  19  20
ENDBRANCH   2  19
TORSDOF 8
ENDMDL
