MODEL 1
REMARK VINA RESULT:      -7.0      0.000      0.000
REMARK  Name = 
REMARK  8 active torsions:
REMARK  status: ('A' for Active; 'I' for Inactive)
REMARK    1  A    between atoms: O_1  and  C_2
REMARK    2  A    between atoms: C_4  and  C_6
REMARK    3  A    between atoms: C_6  and  O_7
REMARK    4  A    between atoms: O_7  and  P_8
REMARK    5  A    between atoms: P_8  and  O_9
REMARK    6  A    between atoms: P_8  and  O_10
REMARK    7  A    between atoms: C_13  and  N_18
REMARK    8  A    between atoms: C_15  and  O_17
REMARK                            x       y       z     vdW  Elec       q    Type
REMARK                         _______ _______ _______ _____ _____    ______ ____
ROOT
ATOM      1  C   UNL     1       8.211  -5.304  25.883  0.00  0.00    +0.178 C 
ATOM      2  C   UNL     1       9.361  -4.443  25.375  0.00  0.00    +0.195 C 
ATOM      3  C   UNL     1       8.760  -3.690  24.175  0.00  0.00    +0.252 C 
ATOM      4  O   UNL     1       7.357  -4.001  24.117  0.00  0.00    -0.346 OA
ATOM      5  C   UNL     1       6.992  -4.542  25.384  0.00  0.00    +0.178 C 
ENDROOT
BRANCH   3   6
ATOM      6  N   UNL     1       8.950  -2.245  24.254  0.00  0.00    -0.298 N 
ATOM      7  C   UNL     1       9.169  -1.331  23.252  0.00  0.00    +0.108 A 
ATOM      8  C   UNL     1       9.252  -1.354  21.873  0.00  0.00    +0.142 A 
ATOM      9  N   UNL     1       9.506  -0.201  21.229  0.00  0.00    -0.242 NA
ATOM     10  C   UNL     1       9.684   0.912  21.967  0.00  0.00    +0.223 A 
ATOM     11  N   UNL     1       9.619   1.036  23.296  0.00  0.00    -0.215 NA
ATOM     12  C   UNL     1       9.355  -0.125  23.919  0.00  0.00    +0.181 A 
ATOM     13  N   UNL     1       9.242  -0.284  25.271  0.00  0.00    -0.216 NA
ATOM     14  C   UNL     1       9.012  -1.562  25.446  0.00  0.00    +0.204 A 
ENDBRANCH   3   6
BRANCH   1  15
ATOM     15  O   UNL     1       8.253  -5.415  27.304  0.00  0.00    -0.386 OA
ATOM     16  H   UNL     1       7.337  -5.404  27.634  0.00  0.00    +0.210 HD
ENDBRANCH   1  15
BRANCH   2  17
ATOM     17  O   UNL     1      10.447  -5.287  24.970  0.00  0.00    -0.385 OA
ATOM     18  H   UNL     1      10.818  -5.715  25.760  0.00  0.00    +0.210 HD
ENDBRANCH   2  17
BRANCH   5  19
ATOM     19  C   UNL     1       5.753  -5.414  25.254  0.00  0.00    +0.206 C 
BRANCH  19  20
ATOM     20  O   UNL     1       5.868  -6.443  26.220  0.00  0.00    -0.284 OA
BRANCH  20  21
ATOM     21  P   UNL     1       4.720  -6.575  27.315  0.00  0.00    +0.472 P 
ATOM     22  O   UNL     1       4.195  -5.318  27.906  0.00  0.00    -0.228 OA
BRANCH  21  23
ATOM     23  O   UNL     1       5.404  -7.566  28.359  0.00  0.00    -0.303 OA
ATOM     24  H   UNL     1       4.865  -7.630  29.170  0.00  0.00    +0.222 HD
ENDBRANCH  21  23
BRANCH  21  25
ATOM     25  O   UNL     1       3.670  -7.541  26.602  0.00  0.00    -0.303 OA
ATOM     26  H   UNL     1       2.848  -7.069  26.379  0.00  0.00    +0.222 HD
ENDBRANCH  21  25
ENDBRANCH  20  21
ENDBRANCH  19  20
ENDBRANCH   5  19
TORSDOF 8
ENDMDL
MODEL 2
REMARK VINA RESULT:      -6.9      1.732      2.192
REMARK  Name = 
REMARK  8 active torsions:
REMARK  status: ('A' for Active; 'I' for Inactive)
REMARK    1  A    between atoms: O_1  and  C_2
REMARK    2  A    between atoms: C_4  and  C_6
REMARK    3  A    between atoms: C_6  and  O_7
REMARK    4  A    between atoms: O_7  and  P_8
REMARK    5  A    between atoms: P_8  and  O_9
REMARK    6  A    between atoms: P_8  and  O_10
REMARK    7  A    between atoms: C_13  and  N_18
REMARK    8  A    between atoms: C_15  and  O_17
REMARK                            x       y       z     vdW  Elec       q    Type
REMARK                         _______ _______ _______ _____ _____    ______ ____
ROOT
ATOM      1  C   UNL     1       8.061  -5.563  26.075  0.00  0.00    +0.178 C 
ATOM      2  C   UNL     1       9.232  -4.698  25.624  0.00  0.00    +0.195 C 
ATOM      3  C   UNL     1       8.696  -3.963  24.383  0.00  0.00    +0.252 C 
ATOM      4  O   UNL     1       7.301  -4.286  24.248  0.00  0.00    -0.346 OA
ATOM      5  C   UNL     1       6.867  -4.815  25.498  0.00  0.00    +0.178 C 
ENDROOT
BRANCH   3   6
ATOM      6  N   UNL     1       8.870  -2.515  24.458  0.00  0.00    -0.298 N 
ATOM      7  C   UNL     1       9.155  -1.612  23.462  0.00  0.00    +0.108 A 
ATOM      8  C   UNL     1       9.340  -1.651  22.093  0.00  0.00    +0.142 A 
ATOM      9  N   UNL     1       9.633  -0.505  21.455  0.00  0.00    -0.242 NA
ATOM     10  C   UNL     1       9.749   0.618  22.190  0.00  0.00    +0.223 A 
ATOM     11  N   UNL     1       9.587   0.759  23.509  0.00  0.00    -0.215 NA
ATOM     12  C   UNL     1       9.285  -0.396  24.126  0.00  0.00    +0.181 A 
ATOM     13  N   UNL     1       9.075  -0.539  25.467  0.00  0.00    -0.216 NA
ATOM     14  C   UNL     1       8.841  -1.817  25.642  0.00  0.00    +0.204 A 
ENDBRANCH   3   6
BRANCH   1  15
ATOM     15  O   UNL     1       8.022  -5.659  27.496  0.00  0.00    -0.386 OA
ATOM     16  H   UNL     1       7.209  -5.221  27.806  0.00  0.00    +0.210 HD
ENDBRANCH   1  15
BRANCH   2  17
ATOM     17  O   UNL     1      10.345  -5.538  25.291  0.00  0.00    -0.385 OA
ATOM     18  H   UNL     1      11.164  -5.031  25.416  0.00  0.00    +0.210 HD
ENDBRANCH   2  17
BRANCH   5  19
ATOM     19  C   UNL     1       5.644  -5.698  25.306  0.00  0.00    +0.206 C 
BRANCH  19  20
ATOM     20  O   UNL     1       4.738  -4.980  24.490  0.00  0.00    -0.284 OA
BRANCH  20  21
ATOM     21  P   UNL     1       4.136  -5.713  23.211  0.00  0.00    +0.472 P 
ATOM     22  O   UNL     1       2.709  -5.456  22.889  0.00  0.00    -0.228 OA
BRANCH  21  23
ATOM     23  O   UNL     1       4.480  -7.234  23.537  0.00  0.00    -0.303 OA
ATOM     24  H   UNL     1       4.330  -7.421  24.483  0.00  0.00    +0.222 HD
ENDBRANCH  21  23
BRANCH  21  25
ATOM     25  O   UNL     1       5.211  -5.379  22.081  0.00  0.00    -0.303 OA
ATOM     26  H   UNL     1       5.661  -6.184  21.770  0.00  0.00    +0.222 HD
ENDBRANCH  21  25
ENDBRANCH  20  21
ENDBRANCH  19  20
ENDBRANCH   5  19
TORSDOF 8
ENDMDL
MODEL 3
REMARK VINA RESULT:      -6.7      4.260      7.211
REMARK  Name = 
REMARK  8 active torsions:
REMARK  status: ('A' for Active; 'I' for Inactive)
REMARK    1  A    between atoms: O_1  and  C_2
REMARK    2  A    between atoms: C_4  and  C_6
REMARK    3  A    between atoms: C_6  and  O_7
REMARK    4  A    between atoms: O_7  and  P_8
REMARK    5  A    between atoms: P_8  and  O_9
REMARK    6  A    between atoms: P_8  and  O_10
REMARK    7  A    between atoms: C_13  and  N_18
REMARK    8  A    between atoms: C_15  and  O_17
REMARK                            x       y       z     vdW  Elec       q    Type
REMARK                         _______ _______ _______ _____ _____    ______ ____
ROOT
ATOM      1  C   UNL     1       6.971  -1.980  22.625  0.00  0.00    +0.178 C 
ATOM      2  C   UNL     1       6.325  -3.118  23.407  0.00  0.00    +0.195 C 
ATOM      3  C   UNL     1       7.459  -4.144  23.576  0.00  0.00    +0.252 C 
ATOM      4  O   UNL     1       8.666  -3.557  23.058  0.00  0.00    -0.346 OA
ATOM      5  C   UNL     1       8.445  -2.152  22.964  0.00  0.00    +0.178 C 
ENDROOT
BRANCH   3   6
ATOM      6  N   UNL     1       7.657  -4.553  24.963  0.00  0.00    -0.298 N 
ATOM      7  C   UNL     1       6.851  -5.310  25.780  0.00  0.00    +0.108 A 
ATOM      8  C   UNL     1       5.652  -5.986  25.659  0.00  0.00    +0.142 A 
ATOM      9  N   UNL     1       5.164  -6.620  26.740  0.00  0.00    -0.242 NA
ATOM     10  C   UNL     1       5.865  -6.545  27.889  0.00  0.00    +0.223 A 
ATOM     11  N   UNL     1       7.029  -5.924  28.103  0.00  0.00    -0.215 NA
ATOM     12  C   UNL     1       7.503  -5.305  27.008  0.00  0.00    +0.181 A 
ATOM     13  N   UNL     1       8.665  -4.591  26.950  0.00  0.00    -0.216 NA
ATOM     14  C   UNL     1       8.728  -4.142  25.721  0.00  0.00    +0.204 A 
ENDBRANCH   3   6
BRANCH   1  15
ATOM     15  O   UNL     1       6.448  -0.721  23.042  0.00  0.00    -0.386 OA
ATOM     16  H   UNL     1       5.476  -0.769  23.001  0.00  0.00    +0.210 HD
ENDBRANCH   1  15
BRANCH   2  17
ATOM     17  O   UNL     1       5.239  -3.662  22.646  0.00  0.00    -0.385 OA
ATOM     18  H   UNL     1       5.369  -4.621  22.562  0.00  0.00    +0.210 HD
ENDBRANCH   2  17
BRANCH   5  19
ATOM     19  C   UNL     1       9.372  -1.536  21.928  0.00  0.00    +0.206 C 
BRANCH  19  20
ATOM     20  O   UNL     1       8.948  -0.199  21.737  0.00  0.00    -0.284 OA
BRANCH  20  21
ATOM     21  P   UNL     1       9.639   0.941  22.609  0.00  0.00    +0.472 P 
ATOM     22  O   UNL     1      10.736   0.528  23.521  0.00  0.00    -0.228 OA
BRANCH  21  23
ATOM     23  O   UNL     1       8.374   1.580  23.337  0.00  0.00    -0.303 OA
ATOM     24  H   UNL     1       7.772   0.879  23.650  0.00  0.00    +0.222 HD
ENDBRANCH  21  23
BRANCH  21  25
ATOM     25  O   UNL     1       9.976   2.055  21.519  0.00  0.00    -0.303 OA
ATOM     26  H   UNL     1      10.319   2.866  21.935  0.00  0.00    +0.222 HD
ENDBRANCH  21  25
ENDBRANCH  20  21
ENDBRANCH  19  20
ENDBRANCH   5  19
TORSDOF 8
ENDMDL
MODEL 4
REMARK VINA RESULT:      -6.6      4.641      6.951
REMARK  Name = 
REMARK  8 active torsions:
REMARK  status: ('A' for Active; 'I' for Inactive)
REMARK    1  A    between atoms: O_1  and  C_2
REMARK    2  A    between atoms: C_4  and  C_6
REMARK    3  A    between atoms: C_6  and  O_7
REMARK    4  A    between atoms: O_7  and  P_8
REMARK    5  A    between atoms: P_8  and  O_9
REMARK    6  A    between atoms: P_8  and  O_10
REMARK    7  A    between atoms: C_13  and  N_18
REMARK    8  A    between atoms: C_15  and  O_17
REMARK                            x       y       z     vdW  Elec       q    Type
REMARK                         _______ _______ _______ _____ _____    ______ ____
ROOT
ATOM      1  C   UNL     1       8.700  -0.433  26.130  0.00  0.00    +0.178 C 
ATOM      2  C   UNL     1       7.598  -1.418  25.760  0.00  0.00    +0.195 C 
ATOM      3  C   UNL     1       7.767  -1.613  24.243  0.00  0.00    +0.252 C 
ATOM      4  O   UNL     1       8.954  -0.908  23.838  0.00  0.00    -0.346 OA
ATOM      5  C   UNL     1       9.713  -0.648  25.014  0.00  0.00    +0.178 C 
ENDROOT
BRANCH   3   6
ATOM      6  N   UNL     1       7.862  -3.017  23.855  0.00  0.00    -0.298 N 
ATOM      7  C   UNL     1       7.188  -3.706  22.876  0.00  0.00    +0.108 A 
ATOM      8  C   UNL     1       6.259  -3.408  21.897  0.00  0.00    +0.142 A 
ATOM      9  N   UNL     1       5.814  -4.406  21.114  0.00  0.00    -0.242 NA
ATOM     10  C   UNL     1       6.285  -5.648  21.340  0.00  0.00    +0.223 A 
ATOM     11  N   UNL     1       7.182  -6.034  22.252  0.00  0.00    -0.215 NA
ATOM     12  C   UNL     1       7.621  -5.020  23.017  0.00  0.00    +0.181 A 
ATOM     13  N   UNL     1       8.531  -5.136  24.029  0.00  0.00    -0.216 NA
ATOM     14  C   UNL     1       8.649  -3.928  24.521  0.00  0.00    +0.204 A 
ENDBRANCH   3   6
BRANCH   1  15
ATOM     15  O   UNL     1       9.226  -0.726  27.422  0.00  0.00    -0.386 OA
ATOM     16  H   UNL     1       8.491  -1.029  27.985  0.00  0.00    +0.210 HD
ENDBRANCH   1  15
BRANCH   2  17
ATOM     17  O   UNL     1       6.321  -0.845  26.072  0.00  0.00    -0.385 OA
ATOM     18  H   UNL     1       6.161  -0.099  25.470  0.00  0.00    +0.210 HD
ENDBRANCH   2  17
BRANCH   5  19
ATOM     19  C   UNL     1      10.632   0.544  24.803  0.00  0.00    +0.206 C 
BRANCH  19  20
ATOM     20  O   UNL     1      10.589   0.862  23.424  0.00  0.00    -0.284 OA
BRANCH  20  21
ATOM     21  P   UNL     1      10.042   2.295  23.000  0.00  0.00    +0.472 P 
ATOM     22  O   UNL     1      10.769   3.482  23.520  0.00  0.00    -0.228 OA
BRANCH  21  23
ATOM     23  O   UNL     1       8.520   2.194  23.461  0.00  0.00    -0.303 OA
ATOM     24  H   UNL     1       8.441   1.622  24.248  0.00  0.00    +0.222 HD
ENDBRANCH  21  23
BRANCH  21  25
ATOM     25  O   UNL     1       9.904   2.160  21.417  0.00  0.00    -0.303 OA
ATOM     26  H   UNL     1       9.276   2.812  21.058  0.00  0.00    +0.222 HD
ENDBRANCH  21  25
ENDBRANCH  20  21
ENDBRANCH  19  20
ENDBRANCH   5  19
TORSDOF 8
ENDMDL
MODEL 5
REMARK VINA RESULT:      -6.5      2.414      3.269
REMARK  Name = 
REMARK  8 active torsions:
REMARK  status: ('A' for Active; 'I' for Inactive)
REMARK    1  A    between atoms: O_1  and  C_2
REMARK    2  A    between atoms: C_4  and  C_6
REMARK    3  A    between atoms: C_6  and  O_7
REMARK    4  A    between atoms: O_7  and  P_8
REMARK    5  A    between atoms: P_8  and  O_9
REMARK    6  A    between atoms: P_8  and  O_10
REMARK    7  A    between atoms: C_13  and  N_18
REMARK    8  A    between atoms: C_15  and  O_17
REMARK                            x       y       z     vdW  Elec       q    Type
REMARK                         _______ _______ _______ _____ _____    ______ ____
ROOT
ATOM      1  C   UNL     1       7.303  -3.328  25.069  0.00  0.00    +0.178 C 
ATOM      2  C   UNL     1       8.163  -2.074  25.173  0.00  0.00    +0.195 C 
ATOM      3  C   UNL     1       9.331  -2.343  24.209  0.00  0.00    +0.252 C 
ATOM      4  O   UNL     1       9.061  -3.578  23.523  0.00  0.00    -0.346 OA
ATOM      5  C   UNL     1       7.676  -3.862  23.693  0.00  0.00    +0.178 C 
ENDROOT
BRANCH   3   6
ATOM      6  N   UNL     1       9.534  -1.267  23.243  0.00  0.00    -0.298 N 
ATOM      7  C   UNL     1       9.884   0.045  23.449  0.00  0.00    +0.108 A 
ATOM      8  C   UNL     1      10.212   0.839  24.533  0.00  0.00    +0.142 A 
ATOM      9  N   UNL     1      10.489   2.136  24.314  0.00  0.00    -0.242 NA
ATOM     10  C   UNL     1      10.414   2.596  23.050  0.00  0.00    +0.223 A 
ATOM     11  N   UNL     1      10.113   1.911  21.942  0.00  0.00    -0.215 NA
ATOM     12  C   UNL     1       9.849   0.616  22.181  0.00  0.00    +0.181 A 
ATOM     13  N   UNL     1       9.506  -0.305  21.233  0.00  0.00    -0.216 NA
ATOM     14  C   UNL     1       9.311  -1.419  21.894  0.00  0.00    +0.204 A 
ENDBRANCH   3   6
BRANCH   1  15
ATOM     15  O   UNL     1       5.920  -3.003  25.183  0.00  0.00    -0.386 OA
ATOM     16  H   UNL     1       5.775  -2.605  26.061  0.00  0.00    +0.210 HD
ENDBRANCH   1  15
BRANCH   2  17
ATOM     17  O   UNL     1       8.624  -1.923  26.522  0.00  0.00    -0.385 OA
ATOM     18  H   UNL     1       9.378  -1.309  26.525  0.00  0.00    +0.210 HD
ENDBRANCH   2  17
BRANCH   5  19
ATOM     19  C   UNL     1       7.414  -5.351  23.538  0.00  0.00    +0.206 C 
BRANCH  19  20
ATOM     20  O   UNL     1       6.128  -5.603  24.074  0.00  0.00    -0.284 OA
BRANCH  20  21
ATOM     21  P   UNL     1       4.953  -5.973  23.066  0.00  0.00    +0.472 P 
ATOM     22  O   UNL     1       3.917  -4.937  22.819  0.00  0.00    -0.228 OA
BRANCH  21  23
ATOM     23  O   UNL     1       4.403  -7.321  23.715  0.00  0.00    -0.303 OA
ATOM     24  H   UNL     1       3.553  -7.158  24.166  0.00  0.00    +0.222 HD
ENDBRANCH  21  23
BRANCH  21  25
ATOM     25  O   UNL     1       5.745  -6.530  21.799  0.00  0.00    -0.303 OA
ATOM     26  H   UNL     1       5.181  -7.106  21.252  0.00  0.00    +0.222 HD
ENDBRANCH  21  25
ENDBRANCH  20  21
ENDBRANCH  19  20
ENDBRANCH   5  19
TORSDOF 8
ENDMDL
MODEL 6
REMARK VINA RESULT:      -6.4      4.940      7.655
REMARK  Name = 
REMARK  8 active torsions:
REMARK  status: ('A' for Active; 'I' for Inactive)
REMARK    1  A    between atoms: O_1  and  C_2
REMARK    2  A    between atoms: C_4  and  C_6
REMARK    3  A    between atoms: C_6  and  O_7
REMARK    4  A    between atoms: O_7  and  P_8
REMARK    5  A    between atoms: P_8  and  O_9
REMARK    6  A    between atoms: P_8  and  O_10
REMARK    7  A    between atoms: C_13  and  N_18
REMARK    8  A    between atoms: C_15  and  O_17
REMARK                            x       y       z     vdW  Elec       q    Type
REMARK                         _______ _______ _______ _____ _____    ______ ____
ROOT
ATOM      1  C   UNL     1       9.328   0.156  22.682  0.00  0.00    +0.178 C 
ATOM      2  C   UNL     1       9.362  -1.338  22.384  0.00  0.00    +0.195 C 
ATOM      3  C   UNL     1       9.386  -1.994  23.775  0.00  0.00    +0.252 C 
ATOM      4  O   UNL     1       9.231  -0.954  24.756  0.00  0.00    -0.346 OA
ATOM      5  C   UNL     1       8.726   0.193  24.080  0.00  0.00    +0.178 C 
ENDROOT
BRANCH   3   6
ATOM      6  N   UNL     1       8.346  -3.004  23.948  0.00  0.00    -0.298 N 
ATOM      7  C   UNL     1       8.032  -3.762  25.050  0.00  0.00    +0.108 A 
ATOM      8  C   UNL     1       8.474  -3.869  26.355  0.00  0.00    +0.142 A 
ATOM      9  N   UNL     1       7.896  -4.784  27.153  0.00  0.00    -0.242 NA
ATOM     10  C   UNL     1       6.928  -5.561  26.629  0.00  0.00    +0.223 A 
ATOM     11  N   UNL     1       6.431  -5.532  25.388  0.00  0.00    -0.215 NA
ATOM     12  C   UNL     1       7.016  -4.605  24.611  0.00  0.00    +0.181 A 
ATOM     13  N   UNL     1       6.707  -4.368  23.302  0.00  0.00    -0.216 NA
ATOM     14  C   UNL     1       7.524  -3.416  22.926  0.00  0.00    +0.204 A 
ENDBRANCH   3   6
BRANCH   1  15
ATOM     15  O   UNL     1       8.537   0.846  21.717  0.00  0.00    -0.386 OA
ATOM     16  H   UNL     1       7.637   0.475  21.745  0.00  0.00    +0.210 HD
ENDBRANCH   1  15
BRANCH   2  17
ATOM     17  O   UNL     1      10.548  -1.649  21.640  0.00  0.00    -0.385 OA
ATOM     18  H   UNL     1      10.604  -1.046  20.880  0.00  0.00    +0.210 HD
ENDBRANCH   2  17
BRANCH   5  19
ATOM     19  C   UNL     1       9.071   1.460  24.846  0.00  0.00    +0.206 C 
BRANCH  19  20
ATOM     20  O   UNL     1       9.835   2.275  23.977  0.00  0.00    -0.284 OA
BRANCH  20  21
ATOM     21  P   UNL     1       9.414   3.803  23.817  0.00  0.00    +0.472 P 
ATOM     22  O   UNL     1       8.741   4.448  24.973  0.00  0.00    -0.228 OA
BRANCH  21  23
ATOM     23  O   UNL     1       8.539   3.743  22.487  0.00  0.00    -0.303 OA
ATOM     24  H   UNL     1       8.529   4.615  22.048  0.00  0.00    +0.222 HD
ENDBRANCH  21  23
BRANCH  21  25
ATOM     25  O   UNL     1      10.757   4.478  23.284  0.00  0.00    -0.303 OA
ATOM     26  H   UNL     1      11.429   4.535  23.986  0.00  0.00    +0.222 HD
ENDBRANCH  21  25
ENDBRANCH  20  21
ENDBRANCH  19  20
ENDBRANCH   5  19
TORSDOF 8
ENDMDL
MODEL 7
REMARK VINA RESULT:      -6.4      2.006      3.303
REMARK  Name = 
REMARK  8 active torsions:
REMARK  status: ('A' for Active; 'I' for Inactive)
REMARK    1  A    between atoms: O_1  and  C_2
REMARK    2  A    between atoms: C_4  and  C_6
REMARK    3  A    between atoms: C_6  and  O_7
REMARK    4  A    between atoms: O_7  and  P_8
REMARK    5  A    between atoms: P_8  and  O_9
REMARK    6  A    between atoms: P_8  and  O_10
REMARK    7  A    between atoms: C_13  and  N_18
REMARK    8  A    between atoms: C_15  and  O_17
REMARK                            x       y       z     vdW  Elec       q    Type
REMARK                         _______ _______ _______ _____ _____    ______ ____
ROOT
ATOM      1  C   UNL     1       4.615  -6.090  24.344  0.00  0.00    +0.178 C 
ATOM      2  C   UNL     1       5.328  -5.069  23.465  0.00  0.00    +0.195 C 
ATOM      3  C   UNL     1       5.894  -4.048  24.467  0.00  0.00    +0.252 C 
ATOM      4  O   UNL     1       5.640  -4.543  25.793  0.00  0.00    -0.346 OA
ATOM      5  C   UNL     1       5.336  -5.930  25.675  0.00  0.00    +0.178 C 
ENDROOT
BRANCH   3   6
ATOM      6  N   UNL     1       7.323  -3.805  24.288  0.00  0.00    -0.298 N 
ATOM      7  C   UNL     1       7.965  -2.844  23.545  0.00  0.00    +0.108 A 
ATOM      8  C   UNL     1       7.595  -1.769  22.759  0.00  0.00    +0.142 A 
ATOM      9  N   UNL     1       8.563  -1.052  22.162  0.00  0.00    -0.242 NA
ATOM     10  C   UNL     1       9.842  -1.433  22.349  0.00  0.00    +0.223 A 
ATOM     11  N   UNL     1      10.298  -2.448  23.089  0.00  0.00    -0.215 NA
ATOM     12  C   UNL     1       9.316  -3.146  23.684  0.00  0.00    +0.181 A 
ATOM     13  N   UNL     1       9.500  -4.234  24.488  0.00  0.00    -0.216 NA
ATOM     14  C   UNL     1       8.294  -4.617  24.826  0.00  0.00    +0.204 A 
ENDBRANCH   3   6
BRANCH   1  15
ATOM     15  O   UNL     1       4.742  -7.402  23.798  0.00  0.00    -0.386 OA
ATOM     16  H   UNL     1       3.858  -7.811  23.790  0.00  0.00    +0.210 HD
ENDBRANCH   1  15
BRANCH   2  17
ATOM     17  O   UNL     1       4.381  -4.460  22.578  0.00  0.00    -0.385 OA
ATOM     18  H   UNL     1       4.219  -5.064  21.834  0.00  0.00    +0.210 HD
ENDBRANCH   2  17
BRANCH   5  19
ATOM     19  C   UNL     1       4.510  -6.397  26.862  0.00  0.00    +0.206 C 
BRANCH  19  20
ATOM     20  O   UNL     1       5.369  -7.157  27.692  0.00  0.00    -0.284 OA
BRANCH  20  21
ATOM     21  P   UNL     1       6.275  -6.381  28.746  0.00  0.00    +0.472 P 
ATOM     22  O   UNL     1       5.667  -5.217  29.440  0.00  0.00    -0.228 OA
BRANCH  21  23
ATOM     23  O   UNL     1       7.551  -6.033  27.858  0.00  0.00    -0.303 OA
ATOM     24  H   UNL     1       7.343  -6.134  26.910  0.00  0.00    +0.222 HD
ENDBRANCH  21  23
BRANCH  21  25
ATOM     25  O   UNL     1       6.836  -7.564  29.658  0.00  0.00    -0.303 OA
ATOM     26  H   UNL     1       6.122  -8.161  29.944  0.00  0.00    +0.222 HD
ENDBRANCH  21  25
ENDBRANCH  20  21
ENDBRANCH  19  20
ENDBRANCH   5  19
TORSDOF 8
ENDMDL
MODEL 8
REMARK VINA RESULT:      -6.3      4.695      7.338
REMARK  Name = 
REMARK  8 active torsions:
REMARK  status: ('A' for Active; 'I' for Inactive)
REMARK    1  A    between atoms: O_1  and  C_2
REMARK    2  A    between atoms: C_4  and  C_6
REMARK    3  A    between atoms: C_6  and  O_7
REMARK    4  A    between atoms: O_7  and  P_8
REMARK    5  A    between atoms: P_8  and  O_9
REMARK    6  A    between atoms: P_8  and  O_10
REMARK    7  A    between atoms: C_13  and  N_18
REMARK    8  A    between atoms: C_15  and  O_17
REMARK                            x       y       z     vdW  Elec       q    Type
REMARK                         _______ _______ _______ _____ _____    ______ ____
ROOT
ATOM      1  C   UNL     1       9.748  -1.431  23.825  0.00  0.00    +0.178 C 
ATOM      2  C   UNL     1       9.193  -2.847  23.727  0.00  0.00    +0.195 C 
ATOM      3  C   UNL     1       7.866  -2.781  24.502  0.00  0.00    +0.252 C 
ATOM      4  O   UNL     1       7.639  -1.410  24.870  0.00  0.00    -0.346 OA
ATOM      5  C   UNL     1       8.489  -0.607  24.058  0.00  0.00    +0.178 C 
ENDROOT
BRANCH   3   6
ATOM      6  N   UNL     1       6.732  -3.288  23.736  0.00  0.00    -0.298 N 
ATOM      7  C   UNL     1       5.944  -4.392  23.958  0.00  0.00    +0.108 A 
ATOM      8  C   UNL     1       5.849  -5.381  24.919  0.00  0.00    +0.142 A 
ATOM      9  N   UNL     1       4.916  -6.336  24.762  0.00  0.00    -0.242 NA
ATOM     10  C   UNL     1       4.135  -6.287  23.665  0.00  0.00    +0.223 A 
ATOM     11  N   UNL     1       4.147  -5.375  22.688  0.00  0.00    -0.215 NA
ATOM     12  C   UNL     1       5.080  -4.425  22.868  0.00  0.00    +0.181 A 
ATOM     13  N   UNL     1       5.313  -3.381  22.019  0.00  0.00    -0.216 NA
ATOM     14  C   UNL     1       6.313  -2.724  22.554  0.00  0.00    +0.204 A 
ENDBRANCH   3   6
BRANCH   1  15
ATOM     15  O   UNL     1      10.433  -1.074  22.626  0.00  0.00    -0.386 OA
ATOM     16  H   UNL     1      11.212  -1.651  22.541  0.00  0.00    +0.210 HD
ENDBRANCH   1  15
BRANCH   2  17
ATOM     17  O   UNL     1      10.111  -3.762  24.341  0.00  0.00    -0.385 OA
ATOM     18  H   UNL     1      10.307  -4.474  23.711  0.00  0.00    +0.210 HD
ENDBRANCH   2  17
BRANCH   5  19
ATOM     19  C   UNL     1       8.765   0.728  24.730  0.00  0.00    +0.206 C 
BRANCH  19  20
ATOM     20  O   UNL     1       8.683   1.723  23.726  0.00  0.00    -0.284 OA
BRANCH  20  21
ATOM     21  P   UNL     1      10.013   2.504  23.332  0.00  0.00    +0.472 P 
ATOM     22  O   UNL     1      10.038   3.969  23.573  0.00  0.00    -0.228 OA
BRANCH  21  23
ATOM     23  O   UNL     1      10.179   2.078  21.805  0.00  0.00    -0.303 OA
ATOM     24  H   UNL     1      10.324   2.865  21.247  0.00  0.00    +0.222 HD
ENDBRANCH  21  23
BRANCH  21  25
ATOM     25  O   UNL     1      11.149   1.629  24.031  0.00  0.00    -0.303 OA
ATOM     26  H   UNL     1      11.864   1.410  23.407  0.00  0.00    +0.222 HD
ENDBRANCH  21  25
ENDBRANCH  20  21
ENDBRANCH  19  20
ENDBRANCH   5  19
TORSDOF 8
ENDMDL
MODEL 9
REMARK VINA RESULT:      -6.2      5.349      7.758
REMARK  Name = 
REMARK  8 active torsions:
REMARK  status: ('A' for Active; 'I' for Inactive)
REMARK    1  A    between atoms: O_1  and  C_2
REMARK    2  A    between atoms: C_4  and  C_6
REMARK    3  A    between atoms: C_6  and  O_7
REMARK    4  A    between atoms: O_7  and  P_8
REMARK    5  A    between atoms: P_8  and  O_9
REMARK    6  A    between atoms: P_8  and  O_10
REMARK    7  A    between atoms: C_13  and  N_18
REMARK    8  A    between atoms: C_15  and  O_17
REMARK                            x       y       z     vdW  Elec       q    Type
REMARK                         _______ _______ _______ _____ _____    ______ ____
ROOT
ATOM      1  C   UNL     1       9.716   0.552  22.308  0.00  0.00    +0.178 C 
ATOM      2  C   UNL     1       9.121  -0.831  22.071  0.00  0.00    +0.195 C 
ATOM      3  C   UNL     1       8.889  -1.383  23.489  0.00  0.00    +0.252 C 
ATOM      4  O   UNL     1       9.194  -0.336  24.425  0.00  0.00    -0.346 OA
ATOM      5  C   UNL     1       9.202   0.891  23.700  0.00  0.00    +0.178 C 
ENDROOT
BRANCH   3   6
ATOM      6  N   UNL     1       7.526  -1.861  23.698  0.00  0.00    -0.298 N 
ATOM      7  C   UNL     1       6.914  -3.004  23.240  0.00  0.00    +0.108 A 
ATOM      8  C   UNL     1       7.282  -4.111  22.499  0.00  0.00    +0.142 A 
ATOM      9  N   UNL     1       6.349  -5.043  22.239  0.00  0.00    -0.242 NA
ATOM     10  C   UNL     1       5.100  -4.837  22.700  0.00  0.00    +0.223 A 
ATOM     11  N   UNL     1       4.650  -3.808  23.425  0.00  0.00    -0.215 NA
ATOM     12  C   UNL     1       5.600  -2.893  23.682  0.00  0.00    +0.181 A 
ATOM     13  N   UNL     1       5.411  -1.742  24.392  0.00  0.00    -0.216 NA
ATOM     14  C   UNL     1       6.573  -1.138  24.377  0.00  0.00    +0.204 A 
ENDBRANCH   3   6
BRANCH   1  15
ATOM     15  O   UNL     1       9.270   1.470  21.312  0.00  0.00    -0.386 OA
ATOM     16  H   UNL     1       9.999   1.608  20.681  0.00  0.00    +0.210 HD
ENDBRANCH   1  15
BRANCH   2  17
ATOM     17  O   UNL     1      10.060  -1.636  21.346  0.00  0.00    -0.385 OA
ATOM     18  H   UNL     1      10.181  -2.475  21.820  0.00  0.00    +0.210 HD
ENDBRANCH   2  17
BRANCH   5  19
ATOM     19  C   UNL     1      10.053   1.928  24.416  0.00  0.00    +0.206 C 
BRANCH  19  20
ATOM     20  O   UNL     1      10.242   3.002  23.514  0.00  0.00    -0.284 OA
BRANCH  20  21
ATOM     21  P   UNL     1       9.367   4.317  23.719  0.00  0.00    +0.472 P 
ATOM     22  O   UNL     1       8.753   4.524  25.056  0.00  0.00    -0.228 OA
BRANCH  21  23
ATOM     23  O   UNL     1       8.325   4.184  22.522  0.00  0.00    -0.303 OA
ATOM     24  H   UNL     1       8.207   3.247  22.276  0.00  0.00    +0.222 HD
ENDBRANCH  21  23
BRANCH  21  25
ATOM     25  O   UNL     1      10.332   5.464  23.174  0.00  0.00    -0.303 OA
ATOM     26  H   UNL     1       9.855   6.305  23.057  0.00  0.00    +0.222 HD
ENDBRANCH  21  25
ENDBRANCH  20  21
ENDBRANCH  19  20
ENDBRANCH   5  19
TORSDOF 8
ENDMDL
