MODEL 1
REMARK VINA RESULT:      -7.2      0.000      0.000
REMARK  Name = 
REMARK  7 active torsions:
REMARK  status: ('A' for Active; 'I' for Inactive)
REMARK    1  A    between atoms: C_1  and  C_2
REMARK    2  A    between atoms: C_3  and  O_4
REMARK    3  A    between atoms: O_4  and  C_5
REMARK    4  A    between atoms: C_5  and  C_6
REMARK    5  A    between atoms: C_13  and  C_14
REMARK    6  A    between atoms: C_14  and  S_15
REMARK    7  A    between atoms: S_15  and  C_17
REMARK                            x       y       z     vdW  Elec       q    Type
REMARK                         _______ _______ _______ _____ _____    ______ ____
ROOT
ATOM      1  C   UNL     1       5.734  -5.992  22.354  0.00  0.00    +0.049 C 
ATOM      2  C   UNL     1       5.699  -5.899  23.852  0.00  0.00    +0.013 A 
ATOM      3  C   UNL     1       6.611  -5.069  24.540  0.00  0.00    +0.060 A 
ATOM      4  N   UNL     1       6.723  -5.085  25.897  0.00  0.00    -0.258 NA
ATOM      5  C   UNL     1       5.907  -5.894  26.600  0.00  0.00    +0.114 A 
ATOM      6  C   UNL     1       4.922  -6.669  26.014  0.00  0.00    +0.065 A 
ATOM      7  C   UNL     1       4.787  -6.636  24.629  0.00  0.00    +0.127 A 
ENDROOT
BRANCH   3   8
ATOM      8  C   UNL     1       7.515  -4.065  23.850  0.00  0.00    +0.167 C 
BRANCH   8   9
ATOM      9  S   UNL     1       8.964  -3.661  24.843  0.00  0.00    +0.095 S 
ATOM     10  O   UNL     1      10.091  -4.634  24.647  0.00  0.00    -0.249 OA
BRANCH   9  11
ATOM     11  C   UNL     1       9.478  -2.181  24.093  0.00  0.00    +0.198 A 
ATOM     12  N   UNL     1       9.968  -1.119  24.810  0.00  0.00    -0.331 N 
ATOM     13  H   UNL     1      10.143  -1.131  25.805  0.00  0.00    +0.168 HD
ATOM     14  C   UNL     1       9.987  -0.022  23.984  0.00  0.00    +0.067 A 
ATOM     15  C   UNL     1       9.642  -0.535  22.737  0.00  0.00    +0.090 A 
ATOM     16  C   UNL     1       9.594   0.330  21.634  0.00  0.00    +0.030 A 
ATOM     17  C   UNL     1       9.835   1.696  21.835  0.00  0.00    +0.002 A 
ATOM     18  C   UNL     1      10.138   2.188  23.105  0.00  0.00    +0.002 A 
ATOM     19  C   UNL     1      10.240   1.336  24.213  0.00  0.00    +0.028 A 
ATOM     20  N   UNL     1       9.347  -1.878  22.820  0.00  0.00    -0.220 NA
ENDBRANCH   9  11
ENDBRANCH   8   9
ENDBRANCH   3   8
BRANCH   7  21
ATOM     21  O   UNL     1       3.768  -7.435  24.164  0.00  0.00    -0.483 OA
BRANCH  21  22
ATOM     22  C   UNL     1       2.430  -6.976  24.411  0.00  0.00    +0.342 C 
BRANCH  22  23
ATOM     23  C   UNL     1       1.807  -6.246  23.215  0.00  0.00    +0.424 C 
ATOM     24  F   UNL     1       2.483  -5.103  22.946  0.00  0.00    -0.167 F 
ATOM     25  F   UNL     1       0.528  -5.890  23.491  0.00  0.00    -0.167 F 
ATOM     26  F   UNL     1       1.786  -6.985  22.089  0.00  0.00    -0.167 F 
ENDBRANCH  22  23
ENDBRANCH  21  22
ENDBRANCH   7  21
TORSDOF 6
ENDMDL
MODEL 2
REMARK VINA RESULT:      -7.0      4.539      8.561
REMARK  Name = 
REMARK  7 active torsions:
REMARK  status: ('A' for Active; 'I' for Inactive)
REMARK    1  A    between atoms: C_1  and  C_2
REMARK    2  A    between atoms: C_3  and  O_4
REMARK    3  A    between atoms: O_4  and  C_5
REMARK    4  A    between atoms: C_5  and  C_6
REMARK    5  A    between atoms: C_13  and  C_14
REMARK    6  A    between atoms: C_14  and  S_15
REMARK    7  A    between atoms: S_15  and  C_17
REMARK                            x       y       z     vdW  Elec       q    Type
REMARK                         _______ _______ _______ _____ _____    ______ ____
ROOT
ATOM      1  C   UNL     1       7.934  -0.466  27.116  0.00  0.00    +0.049 C 
ATOM      2  C   UNL     1       8.460  -1.205  25.919  0.00  0.00    +0.013 A 
ATOM      3  C   UNL     1       8.195  -2.582  25.753  0.00  0.00    +0.060 A 
ATOM      4  N   UNL     1       8.790  -3.321  24.777  0.00  0.00    -0.258 NA
ATOM      5  C   UNL     1       9.627  -2.702  23.922  0.00  0.00    +0.114 A 
ATOM      6  C   UNL     1       9.868  -1.341  23.952  0.00  0.00    +0.065 A 
ATOM      7  C   UNL     1       9.242  -0.577  24.934  0.00  0.00    +0.127 A 
ENDROOT
BRANCH   3   8
ATOM      8  C   UNL     1       7.209  -3.354  26.610  0.00  0.00    +0.167 C 
BRANCH   8   9
ATOM      9  S   UNL     1       7.606  -5.111  26.684  0.00  0.00    +0.095 S 
ATOM     10  O   UNL     1       7.440  -5.686  28.062  0.00  0.00    -0.249 OA
BRANCH   9  11
ATOM     11  C   UNL     1       6.317  -5.782  25.731  0.00  0.00    +0.198 A 
ATOM     12  N   UNL     1       6.039  -5.355  24.457  0.00  0.00    -0.331 N 
ATOM     13  H   UNL     1       6.594  -4.685  23.943  0.00  0.00    +0.168 HD
ATOM     14  C   UNL     1       4.806  -5.845  24.105  0.00  0.00    +0.067 A 
ATOM     15  C   UNL     1       4.467  -6.690  25.157  0.00  0.00    +0.090 A 
ATOM     16  C   UNL     1       3.254  -7.391  25.106  0.00  0.00    +0.030 A 
ATOM     17  C   UNL     1       2.392  -7.170  24.023  0.00  0.00    +0.002 A 
ATOM     18  C   UNL     1       2.739  -6.286  23.002  0.00  0.00    +0.002 A 
ATOM     19  C   UNL     1       3.968  -5.612  23.008  0.00  0.00    +0.028 A 
ATOM     20  N   UNL     1       5.424  -6.652  26.148  0.00  0.00    -0.220 NA
ENDBRANCH   9  11
ENDBRANCH   8   9
ENDBRANCH   3   8
BRANCH   7  21
ATOM     21  O   UNL     1       9.548   0.763  24.856  0.00  0.00    -0.483 OA
BRANCH  21  22
ATOM     22  C   UNL     1      10.672   1.117  24.036  0.00  0.00    +0.342 C 
BRANCH  22  23
ATOM     23  C   UNL     1      10.393   2.298  23.101  0.00  0.00    +0.424 C 
ATOM     24  F   UNL     1      11.302   3.286  23.291  0.00  0.00    -0.167 F 
ATOM     25  F   UNL     1       9.174   2.833  23.361  0.00  0.00    -0.167 F 
ATOM     26  F   UNL     1      10.417   1.966  21.795  0.00  0.00    -0.167 F 
ENDBRANCH  22  23
ENDBRANCH  21  22
ENDBRANCH   7  21
TORSDOF 6
ENDMDL
MODEL 3
REMARK VINA RESULT:      -7.0      6.440      9.789
REMARK  Name = 
REMARK  7 active torsions:
REMARK  status: ('A' for Active; 'I' for Inactive)
REMARK    1  A    between atoms: C_1  and  C_2
REMARK    2  A    between atoms: C_3  and  O_4
REMARK    3  A    between atoms: O_4  and  C_5
REMARK    4  A    between atoms: C_5  and  C_6
REMARK    5  A    between atoms: C_13  and  C_14
REMARK    6  A    between atoms: C_14  and  S_15
REMARK    7  A    between atoms: S_15  and  C_17
REMARK                            x       y       z     vdW  Elec       q    Type
REMARK                         _______ _______ _______ _____ _____    ______ ____
ROOT
ATOM      1  C   UNL     1       7.828   3.311  25.097  0.00  0.00    +0.049 C 
ATOM      2  C   UNL     1       8.362   2.571  23.905  0.00  0.00    +0.013 A 
ATOM      3  C   UNL     1       7.647   1.485  23.355  0.00  0.00    +0.060 A 
ATOM      4  N   UNL     1       8.175   0.687  22.387  0.00  0.00    -0.258 NA
ATOM      5  C   UNL     1       9.404   0.974  21.916  0.00  0.00    +0.114 A 
ATOM      6  C   UNL     1      10.134   2.073  22.329  0.00  0.00    +0.065 A 
ATOM      7  C   UNL     1       9.588   2.906  23.302  0.00  0.00    +0.127 A 
ENDROOT
BRANCH   3   8
ATOM      8  C   UNL     1       6.229   1.128  23.756  0.00  0.00    +0.167 C 
BRANCH   8   9
ATOM      9  S   UNL     1       6.183  -0.156  25.020  0.00  0.00    +0.095 S 
ATOM     10  O   UNL     1       4.796  -0.418  25.533  0.00  0.00    -0.249 OA
BRANCH   9  11
ATOM     11  C   UNL     1       6.617  -1.556  24.087  0.00  0.00    +0.198 A 
ATOM     12  N   UNL     1       6.108  -1.799  22.836  0.00  0.00    -0.331 N 
ATOM     13  H   UNL     1       5.511  -1.161  22.326  0.00  0.00    +0.168 HD
ATOM     14  C   UNL     1       6.392  -3.101  22.507  0.00  0.00    +0.067 A 
ATOM     15  C   UNL     1       7.213  -3.537  23.543  0.00  0.00    +0.090 A 
ATOM     16  C   UNL     1       7.721  -4.843  23.507  0.00  0.00    +0.030 A 
ATOM     17  C   UNL     1       7.333  -5.690  22.459  0.00  0.00    +0.002 A 
ATOM     18  C   UNL     1       6.476  -5.238  21.455  0.00  0.00    +0.002 A 
ATOM     19  C   UNL     1       5.996  -3.921  21.444  0.00  0.00    +0.028 A 
ATOM     20  N   UNL     1       7.356  -2.560  24.504  0.00  0.00    -0.220 NA
ENDBRANCH   9  11
ENDBRANCH   8   9
ENDBRANCH   3   8
BRANCH   7  21
ATOM     21  O   UNL     1      10.399   3.971  23.622  0.00  0.00    -0.483 OA
BRANCH  21  22
ATOM     22  C   UNL     1      11.794   3.827  23.319  0.00  0.00    +0.342 C 
BRANCH  22  23
ATOM     23  C   UNL     1      12.555   5.158  23.314  0.00  0.00    +0.424 C 
ATOM     24  F   UNL     1      12.077   5.980  22.348  0.00  0.00    -0.167 F 
ATOM     25  F   UNL     1      13.868   4.953  23.041  0.00  0.00    -0.167 F 
ATOM     26  F   UNL     1      12.486   5.820  24.486  0.00  0.00    -0.167 F 
ENDBRANCH  22  23
ENDBRANCH  21  22
ENDBRANCH   7  21
TORSDOF 6
ENDMDL
MODEL 4
REMARK VINA RESULT:      -7.0      2.909      3.815
REMARK  Name = 
REMARK  7 active torsions:
REMARK  status: ('A' for Active; 'I' for Inactive)
REMARK    1  A    between atoms: C_1  and  C_2
REMARK    2  A    between atoms: C_3  and  O_4
REMARK    3  A    between atoms: O_4  and  C_5
REMARK    4  A    between atoms: C_5  and  C_6
REMARK    5  A    between atoms: C_13  and  C_14
REMARK    6  A    between atoms: C_14  and  S_15
REMARK    7  A    between atoms: S_15  and  C_17
REMARK                            x       y       z     vdW  Elec       q    Type
REMARK                         _______ _______ _______ _____ _____    ______ ____
ROOT
ATOM      1  C   UNL     1       6.793  -1.852  23.109  0.00  0.00    +0.049 C 
ATOM      2  C   UNL     1       7.503  -2.956  23.836  0.00  0.00    +0.013 A 
ATOM      3  C   UNL     1       8.759  -2.725  24.440  0.00  0.00    +0.060 A 
ATOM      4  N   UNL     1       9.508  -3.735  24.961  0.00  0.00    -0.258 NA
ATOM      5  C   UNL     1       9.012  -4.986  24.930  0.00  0.00    +0.114 A 
ATOM      6  C   UNL     1       7.752  -5.288  24.445  0.00  0.00    +0.065 A 
ATOM      7  C   UNL     1       6.971  -4.255  23.935  0.00  0.00    +0.127 A 
ENDROOT
BRANCH   3   8
ATOM      8  C   UNL     1       9.370  -1.346  24.598  0.00  0.00    +0.167 C 
BRANCH   8   9
ATOM      9  S   UNL     1      10.365  -0.875  23.171  0.00  0.00    +0.095 S 
ATOM     10  O   UNL     1      10.051  -1.693  21.950  0.00  0.00    -0.249 OA
BRANCH   9  11
ATOM     11  C   UNL     1       9.749   0.717  22.848  0.00  0.00    +0.198 A 
ATOM     12  N   UNL     1      10.217   1.836  23.490  0.00  0.00    -0.331 N 
ATOM     13  H   UNL     1      10.996   1.844  24.134  0.00  0.00    +0.168 HD
ATOM     14  C   UNL     1       9.337   2.862  23.250  0.00  0.00    +0.067 A 
ATOM     15  C   UNL     1       8.444   2.329  22.325  0.00  0.00    +0.090 A 
ATOM     16  C   UNL     1       7.409   3.136  21.833  0.00  0.00    +0.030 A 
ATOM     17  C   UNL     1       7.270   4.438  22.335  0.00  0.00    +0.002 A 
ATOM     18  C   UNL     1       8.156   4.932  23.293  0.00  0.00    +0.002 A 
ATOM     19  C   UNL     1       9.227   4.160  23.763  0.00  0.00    +0.028 A 
ATOM     20  N   UNL     1       8.725   1.004  22.074  0.00  0.00    -0.220 NA
ENDBRANCH   9  11
ENDBRANCH   8   9
ENDBRANCH   3   8
BRANCH   7  21
ATOM     21  O   UNL     1       5.737  -4.673  23.495  0.00  0.00    -0.483 OA
BRANCH  21  22
ATOM     22  C   UNL     1       5.719  -5.822  22.634  0.00  0.00    +0.342 C 
BRANCH  22  23
ATOM     23  C   UNL     1       6.244  -5.532  21.224  0.00  0.00    +0.424 C 
ATOM     24  F   UNL     1       7.585  -5.723  21.162  0.00  0.00    -0.167 F 
ATOM     25  F   UNL     1       6.016  -4.238  20.889  0.00  0.00    -0.167 F 
ATOM     26  F   UNL     1       5.677  -6.300  20.273  0.00  0.00    -0.167 F 
ENDBRANCH  22  23
ENDBRANCH  21  22
ENDBRANCH   7  21
TORSDOF 6
ENDMDL
MODEL 5
REMARK VINA RESULT:      -6.8      5.837      9.764
REMARK  Name = 
REMARK  7 active torsions:
REMARK  status: ('A' for Active; 'I' for Inactive)
REMARK    1  A    between atoms: C_1  and  C_2
REMARK    2  A    between atoms: C_3  and  O_4
REMARK    3  A    between atoms: O_4  and  C_5
REMARK    4  A    between atoms: C_5  and  C_6
REMARK    5  A    between atoms: C_13  and  C_14
REMARK    6  A    between atoms: C_14  and  S_15
REMARK    7  A    between atoms: S_15  and  C_17
REMARK                            x       y       z     vdW  Elec       q    Type
REMARK                         _______ _______ _______ _____ _____    ______ ____
ROOT
ATOM      1  C   UNL     1      10.608   0.710  24.891  0.00  0.00    +0.049 C 
ATOM      2  C   UNL     1       9.522   1.255  24.010  0.00  0.00    +0.013 A 
ATOM      3  C   UNL     1       8.484   0.415  23.549  0.00  0.00    +0.060 A 
ATOM      4  N   UNL     1       7.580   0.827  22.618  0.00  0.00    -0.258 NA
ATOM      5  C   UNL     1       7.661   2.089  22.157  0.00  0.00    +0.114 A 
ATOM      6  C   UNL     1       8.584   3.007  22.624  0.00  0.00    +0.065 A 
ATOM      7  C   UNL     1       9.496   2.598  23.594  0.00  0.00    +0.127 A 
ENDROOT
BRANCH   3   8
ATOM      8  C   UNL     1       8.256  -0.993  24.063  0.00  0.00    +0.167 C 
BRANCH   8   9
ATOM      9  S   UNL     1       8.822  -2.243  22.895  0.00  0.00    +0.095 S 
ATOM     10  O   UNL     1      10.265  -2.610  23.091  0.00  0.00    -0.249 OA
BRANCH   9  11
ATOM     11  C   UNL     1       7.906  -3.624  23.416  0.00  0.00    +0.198 A 
ATOM     12  N   UNL     1       7.153  -4.381  22.553  0.00  0.00    -0.331 N 
ATOM     13  H   UNL     1       7.129  -4.255  21.551  0.00  0.00    +0.168 HD
ATOM     14  C   UNL     1       6.326  -5.181  23.302  0.00  0.00    +0.067 A 
ATOM     15  C   UNL     1       6.746  -4.966  24.611  0.00  0.00    +0.090 A 
ATOM     16  C   UNL     1       6.118  -5.664  25.652  0.00  0.00    +0.030 A 
ATOM     17  C   UNL     1       5.044  -6.511  25.346  0.00  0.00    +0.002 A 
ATOM     18  C   UNL     1       4.618  -6.677  24.028  0.00  0.00    +0.002 A 
ATOM     19  C   UNL     1       5.262  -6.027  22.967  0.00  0.00    +0.028 A 
ATOM     20  N   UNL     1       7.738  -4.011  24.661  0.00  0.00    -0.220 NA
ENDBRANCH   9  11
ENDBRANCH   8   9
ENDBRANCH   3   8
BRANCH   7  21
ATOM     21  O   UNL     1      10.354   3.598  23.989  0.00  0.00    -0.483 OA
BRANCH  21  22
ATOM     22  C   UNL     1      11.546   3.765  23.207  0.00  0.00    +0.342 C 
BRANCH  22  23
ATOM     23  C   UNL     1      12.017   5.221  23.118  0.00  0.00    +0.424 C 
ATOM     24  F   UNL     1      12.773   5.414  22.010  0.00  0.00    -0.167 F 
ATOM     25  F   UNL     1      12.796   5.534  24.184  0.00  0.00    -0.167 F 
ATOM     26  F   UNL     1      11.005   6.110  23.084  0.00  0.00    -0.167 F 
ENDBRANCH  22  23
ENDBRANCH  21  22
ENDBRANCH   7  21
TORSDOF 6
ENDMDL
MODEL 6
REMARK VINA RESULT:      -6.8      4.318      8.430
REMARK  Name = 
REMARK  7 active torsions:
REMARK  status: ('A' for Active; 'I' for Inactive)
REMARK    1  A    between atoms: C_1  and  C_2
REMARK    2  A    between atoms: C_3  and  O_4
REMARK    3  A    between atoms: O_4  and  C_5
REMARK    4  A    between atoms: C_5  and  C_6
REMARK    5  A    between atoms: C_13  and  C_14
REMARK    6  A    between atoms: C_14  and  S_15
REMARK    7  A    between atoms: S_15  and  C_17
REMARK                            x       y       z     vdW  Elec       q    Type
REMARK                         _______ _______ _______ _____ _____    ______ ____
ROOT
ATOM      1  C   UNL     1       9.408  -1.465  21.740  0.00  0.00    +0.049 C 
ATOM      2  C   UNL     1       9.078  -1.612  23.197  0.00  0.00    +0.013 A 
ATOM      3  C   UNL     1       8.119  -2.557  23.623  0.00  0.00    +0.060 A 
ATOM      4  N   UNL     1       7.672  -2.605  24.908  0.00  0.00    -0.258 NA
ATOM      5  C   UNL     1       8.195  -1.746  25.804  0.00  0.00    +0.114 A 
ATOM      6  C   UNL     1       9.206  -0.854  25.495  0.00  0.00    +0.065 A 
ATOM      7  C   UNL     1       9.684  -0.819  24.188  0.00  0.00    +0.127 A 
ENDROOT
BRANCH   3   8
ATOM      8  C   UNL     1       7.528  -3.618  22.715  0.00  0.00    +0.167 C 
BRANCH   8   9
ATOM      9  S   UNL     1       5.877  -3.178  22.141  0.00  0.00    +0.095 S 
ATOM     10  O   UNL     1       5.611  -3.633  20.735  0.00  0.00    -0.249 OA
BRANCH   9  11
ATOM     11  C   UNL     1       4.893  -4.184  23.160  0.00  0.00    +0.198 A 
ATOM     12  N   UNL     1       4.928  -4.109  24.530  0.00  0.00    -0.331 N 
ATOM     13  H   UNL     1       5.457  -3.425  25.053  0.00  0.00    +0.168 HD
ATOM     14  C   UNL     1       4.290  -5.216  25.032  0.00  0.00    +0.067 A 
ATOM     15  C   UNL     1       3.758  -5.837  23.906  0.00  0.00    +0.090 A 
ATOM     16  C   UNL     1       3.004  -7.008  24.065  0.00  0.00    +0.030 A 
ATOM     17  C   UNL     1       2.862  -7.551  25.349  0.00  0.00    +0.002 A 
ATOM     18  C   UNL     1       3.441  -6.929  26.456  0.00  0.00    +0.002 A 
ATOM     19  C   UNL     1       4.157  -5.732  26.327  0.00  0.00    +0.028 A 
ATOM     20  N   UNL     1       4.127  -5.173  22.756  0.00  0.00    -0.220 NA
ENDBRANCH   9  11
ENDBRANCH   8   9
ENDBRANCH   3   8
BRANCH   7  21
ATOM     21  O   UNL     1      10.695   0.096  24.005  0.00  0.00    -0.483 OA
BRANCH  21  22
ATOM     22  C   UNL     1      10.374   1.469  24.277  0.00  0.00    +0.342 C 
BRANCH  22  23
ATOM     23  C   UNL     1       9.848   2.225  23.052  0.00  0.00    +0.424 C 
ATOM     24  F   UNL     1       8.520   2.011  22.890  0.00  0.00    -0.167 F 
ATOM     25  F   UNL     1      10.457   1.781  21.923  0.00  0.00    -0.167 F 
ATOM     26  F   UNL     1      10.044   3.556  23.119  0.00  0.00    -0.167 F 
ENDBRANCH  22  23
ENDBRANCH  21  22
ENDBRANCH   7  21
TORSDOF 6
ENDMDL
MODEL 7
REMARK VINA RESULT:      -6.7      3.402      5.053
REMARK  Name = 
REMARK  7 active torsions:
REMARK  status: ('A' for Active; 'I' for Inactive)
REMARK    1  A    between atoms: C_1  and  C_2
REMARK    2  A    between atoms: C_3  and  O_4
REMARK    3  A    between atoms: O_4  and  C_5
REMARK    4  A    between atoms: C_5  and  C_6
REMARK    5  A    between atoms: C_13  and  C_14
REMARK    6  A    between atoms: C_14  and  S_15
REMARK    7  A    between atoms: S_15  and  C_17
REMARK                            x       y       z     vdW  Elec       q    Type
REMARK                         _______ _______ _______ _____ _____    ______ ____
ROOT
ATOM      1  C   UNL     1       9.815  -3.011  24.112  0.00  0.00    +0.049 C 
ATOM      2  C   UNL     1       8.526  -2.243  24.059  0.00  0.00    +0.013 A 
ATOM      3  C   UNL     1       8.510  -0.852  24.301  0.00  0.00    +0.060 A 
ATOM      4  N   UNL     1       7.348  -0.153  24.428  0.00  0.00    -0.258 NA
ATOM      5  C   UNL     1       6.182  -0.810  24.278  0.00  0.00    +0.114 A 
ATOM      6  C   UNL     1       6.107  -2.151  23.945  0.00  0.00    +0.065 A 
ATOM      7  C   UNL     1       7.293  -2.864  23.789  0.00  0.00    +0.127 A 
ENDROOT
BRANCH   3   8
ATOM      8  C   UNL     1       9.764  -0.006  24.405  0.00  0.00    +0.167 C 
BRANCH   8   9
ATOM      9  S   UNL     1      10.194   0.767  22.835  0.00  0.00    +0.095 S 
ATOM     10  O   UNL     1       9.204   0.462  21.747  0.00  0.00    -0.249 OA
BRANCH   9  11
ATOM     11  C   UNL     1       9.975   2.446  23.220  0.00  0.00    +0.198 A 
ATOM     12  N   UNL     1      10.941   3.392  22.987  0.00  0.00    -0.331 N 
ATOM     13  H   UNL     1      11.815   3.214  22.510  0.00  0.00    +0.168 HD
ATOM     14  C   UNL     1      10.595   4.531  23.670  0.00  0.00    +0.067 A 
ATOM     15  C   UNL     1       9.325   4.251  24.167  0.00  0.00    +0.090 A 
ATOM     16  C   UNL     1       8.651   5.233  24.907  0.00  0.00    +0.030 A 
ATOM     17  C   UNL     1       9.303   6.444  25.174  0.00  0.00    +0.002 A 
ATOM     18  C   UNL     1      10.592   6.682  24.698  0.00  0.00    +0.002 A 
ATOM     19  C   UNL     1      11.267   5.735  23.915  0.00  0.00    +0.028 A 
ATOM     20  N   UNL     1       8.950   2.961  23.863  0.00  0.00    -0.220 NA
ENDBRANCH   9  11
ENDBRANCH   8   9
ENDBRANCH   3   8
BRANCH   7  21
ATOM     21  O   UNL     1       7.093  -4.181  23.446  0.00  0.00    -0.483 OA
BRANCH  21  22
ATOM     22  C   UNL     1       7.228  -4.509  22.055  0.00  0.00    +0.342 C 
BRANCH  22  23
ATOM     23  C   UNL     1       6.312  -5.654  21.609  0.00  0.00    +0.424 C 
ATOM     24  F   UNL     1       6.067  -5.582  20.278  0.00  0.00    -0.167 F 
ATOM     25  F   UNL     1       5.110  -5.571  22.233  0.00  0.00    -0.167 F 
ATOM     26  F   UNL     1       6.817  -6.876  21.868  0.00  0.00    -0.167 F 
ENDBRANCH  22  23
ENDBRANCH  21  22
ENDBRANCH   7  21
TORSDOF 6
ENDMDL
MODEL 8
REMARK VINA RESULT:      -6.7      1.479      2.157
REMARK  Name = 
REMARK  7 active torsions:
REMARK  status: ('A' for Active; 'I' for Inactive)
REMARK    1  A    between atoms: C_1  and  C_2
REMARK    2  A    between atoms: C_3  and  O_4
REMARK    3  A    between atoms: O_4  and  C_5
REMARK    4  A    between atoms: C_5  and  C_6
REMARK    5  A    between atoms: C_13  and  C_14
REMARK    6  A    between atoms: C_14  and  S_15
REMARK    7  A    between atoms: S_15  and  C_17
REMARK                            x       y       z     vdW  Elec       q    Type
REMARK                         _______ _______ _______ _____ _____    ______ ____
ROOT
ATOM      1  C   UNL     1       5.706  -5.803  26.652  0.00  0.00    +0.049 C 
ATOM      2  C   UNL     1       5.623  -5.454  25.195  0.00  0.00    +0.013 A 
ATOM      3  C   UNL     1       6.229  -4.277  24.704  0.00  0.00    +0.060 A 
ATOM      4  N   UNL     1       6.034  -3.841  23.429  0.00  0.00    -0.258 NA
ATOM      5  C   UNL     1       5.270  -4.583  22.605  0.00  0.00    +0.114 A 
ATOM      6  C   UNL     1       4.717  -5.796  22.973  0.00  0.00    +0.065 A 
ATOM      7  C   UNL     1       4.934  -6.258  24.269  0.00  0.00    +0.127 A 
ENDROOT
BRANCH   3   8
ATOM      8  C   UNL     1       7.171  -3.416  25.523  0.00  0.00    +0.167 C 
BRANCH   8   9
ATOM      9  S   UNL     1       8.901  -3.810  25.205  0.00  0.00    +0.095 S 
ATOM     10  O   UNL     1       9.069  -4.961  24.255  0.00  0.00    -0.249 OA
BRANCH   9  11
ATOM     11  C   UNL     1       9.408  -2.396  24.334  0.00  0.00    +0.198 A 
ATOM     12  N   UNL     1       9.824  -1.248  24.961  0.00  0.00    -0.331 N 
ATOM     13  H   UNL     1       9.945  -1.153  25.961  0.00  0.00    +0.168 HD
ATOM     14  C   UNL     1       9.855  -0.241  24.029  0.00  0.00    +0.067 A 
ATOM     15  C   UNL     1       9.596  -0.890  22.826  0.00  0.00    +0.090 A 
ATOM     16  C   UNL     1       9.581  -0.145  21.638  0.00  0.00    +0.030 A 
ATOM     17  C   UNL     1       9.767   1.242  21.709  0.00  0.00    +0.002 A 
ATOM     18  C   UNL     1       9.984   1.872  22.935  0.00  0.00    +0.002 A 
ATOM     19  C   UNL     1      10.052   1.141  24.129  0.00  0.00    +0.028 A 
ATOM     20  N   UNL     1       9.339  -2.228  23.031  0.00  0.00    -0.220 NA
ENDBRANCH   9  11
ENDBRANCH   8   9
ENDBRANCH   3   8
BRANCH   7  21
ATOM     21  O   UNL     1       4.347  -7.478  24.515  0.00  0.00    -0.483 OA
BRANCH  21  22
ATOM     22  C   UNL     1       2.922  -7.548  24.357  0.00  0.00    +0.342 C 
BRANCH  22  23
ATOM     23  C   UNL     1       2.150  -7.052  25.584  0.00  0.00    +0.424 C 
ATOM     24  F   UNL     1       0.918  -7.616  25.636  0.00  0.00    -0.167 F 
ATOM     25  F   UNL     1       1.964  -5.710  25.518  0.00  0.00    -0.167 F 
ATOM     26  F   UNL     1       2.770  -7.316  26.751  0.00  0.00    -0.167 F 
ENDBRANCH  22  23
ENDBRANCH  21  22
ENDBRANCH   7  21
TORSDOF 6
ENDMDL
MODEL 9
REMARK VINA RESULT:      -6.7      3.645      5.652
REMARK  Name = 
REMARK  7 active torsions:
REMARK  status: ('A' for Active; 'I' for Inactive)
REMARK    1  A    between atoms: C_1  and  C_2
REMARK    2  A    between atoms: C_3  and  O_4
REMARK    3  A    between atoms: O_4  and  C_5
REMARK    4  A    between atoms: C_5  and  C_6
REMARK    5  A    between atoms: C_13  and  C_14
REMARK    6  A    between atoms: C_14  and  S_15
REMARK    7  A    between atoms: S_15  and  C_17
REMARK                            x       y       z     vdW  Elec       q    Type
REMARK                         _______ _______ _______ _____ _____    ______ ____
ROOT
ATOM      1  C   UNL     1       6.135  -1.569  23.554  0.00  0.00    +0.049 C 
ATOM      2  C   UNL     1       7.632  -1.466  23.565  0.00  0.00    +0.013 A 
ATOM      3  C   UNL     1       8.275  -0.312  23.065  0.00  0.00    +0.060 A 
ATOM      4  N   UNL     1       9.626  -0.249  22.904  0.00  0.00    -0.258 NA
ATOM      5  C   UNL     1      10.368  -1.311  23.272  0.00  0.00    +0.114 A 
ATOM      6  C   UNL     1       9.830  -2.443  23.858  0.00  0.00    +0.065 A 
ATOM      7  C   UNL     1       8.452  -2.502  24.048  0.00  0.00    +0.127 A 
ENDROOT
BRANCH   3   8
ATOM      8  C   UNL     1       7.541   0.964  22.700  0.00  0.00    +0.167 C 
BRANCH   8   9
ATOM      9  S   UNL     1       7.276   2.028  24.130  0.00  0.00    +0.095 S 
ATOM     10  O   UNL     1       7.612   1.351  25.427  0.00  0.00    -0.249 OA
BRANCH   9  11
ATOM     11  C   UNL     1       8.510   3.226  23.885  0.00  0.00    +0.198 A 
ATOM     12  N   UNL     1       9.686   2.955  23.231  0.00  0.00    -0.331 N 
ATOM     13  H   UNL     1       9.900   2.078  22.776  0.00  0.00    +0.168 HD
ATOM     14  C   UNL     1      10.555   3.989  23.473  0.00  0.00    +0.067 A 
ATOM     15  C   UNL     1       9.781   4.926  24.151  0.00  0.00    +0.090 A 
ATOM     16  C   UNL     1      10.362   6.143  24.533  0.00  0.00    +0.030 A 
ATOM     17  C   UNL     1      11.723   6.353  24.273  0.00  0.00    +0.002 A 
ATOM     18  C   UNL     1      12.486   5.379  23.627  0.00  0.00    +0.002 A 
ATOM     19  C   UNL     1      11.914   4.175  23.193  0.00  0.00    +0.028 A 
ATOM     20  N   UNL     1       8.511   4.443  24.382  0.00  0.00    -0.220 NA
ENDBRANCH   9  11
ENDBRANCH   8   9
ENDBRANCH   3   8
BRANCH   7  21
ATOM     21  O   UNL     1       8.036  -3.667  24.650  0.00  0.00    -0.483 OA
BRANCH  21  22
ATOM     22  C   UNL     1       8.351  -4.889  23.966  0.00  0.00    +0.342 C 
BRANCH  22  23
ATOM     23  C   UNL     1       7.362  -5.231  22.847  0.00  0.00    +0.424 C 
ATOM     24  F   UNL     1       6.102  -5.335  23.335  0.00  0.00    -0.167 F 
ATOM     25  F   UNL     1       7.668  -6.431  22.293  0.00  0.00    -0.167 F 
ATOM     26  F   UNL     1       7.342  -4.322  21.853  0.00  0.00    -0.167 F 
ENDBRANCH  22  23
ENDBRANCH  21  22
ENDBRANCH   7  21
TORSDOF 6
ENDMDL
