MODEL 1
REMARK VINA RESULT:      -4.8      0.000      0.000
REMARK  Name = 
REMARK  3 active torsions:
REMARK  status: ('A' for Active; 'I' for Inactive)
REMARK    1  A    between atoms: O_1  and  C_2
REMARK    2  A    between atoms: C_2  and  C_4
REMARK    3  A    between atoms: C_5  and  O_6
REMARK                            x       y       z     vdW  Elec       q    Type
REMARK                         _______ _______ _______ _____ _____    ______ ____
ROOT
ATOM      1  C   UNL     1       8.736  -4.153  24.629  0.00  0.00    +0.102 A 
ATOM      2  C   UNL     1       7.987  -4.992  23.792  0.00  0.00    +0.033 A 
ATOM      3  C   UNL     1       7.398  -4.468  22.641  0.00  0.00    +0.015 A 
ATOM      4  I   UNL     1       6.279  -5.710  21.404  0.00  0.00    -0.044 I 
ATOM      5  C   UNL     1       7.558  -3.123  22.308  0.00  0.00    +0.032 A 
ATOM      6  C   UNL     1       8.330  -2.293  23.128  0.00  0.00    +0.057 A 
ATOM      7  I   UNL     1       8.550  -0.290  22.556  0.00  0.00    -0.040 I 
ATOM      8  C   UNL     1       8.934  -2.805  24.282  0.00  0.00    +0.144 A 
ENDROOT
BRANCH   1   9
ATOM      9  C   UNL     1       9.361  -4.679  25.862  0.00  0.00    +0.340 C 
ATOM     10  O   UNL     1       8.986  -4.320  26.967  0.00  0.00    -0.245 OA
BRANCH   9  11
ATOM     11  O   UNL     1      10.301  -5.622  25.663  0.00  0.00    -0.477 OA
ATOM     12  H   UNL     1      11.056  -5.360  25.105  0.00  0.00    +0.295 HD
ENDBRANCH   9  11
ENDBRANCH   1   9
BRANCH   8  13
ATOM     13  O   UNL     1       9.706  -1.974  25.053  0.00  0.00    -0.505 OA
ATOM     14  H   UNL     1       9.452  -2.069  25.999  0.00  0.00    +0.292 HD
ENDBRANCH   8  13
TORSDOF 3
ENDMDL
MODEL 2
REMARK VINA RESULT:      -4.6      3.170      4.228
REMARK  Name = 
REMARK  3 active torsions:
REMARK  status: ('A' for Active; 'I' for Inactive)
REMARK    1  A    between atoms: O_1  and  C_2
REMARK    2  A    between atoms: C_2  and  C_4
REMARK    3  A    between atoms: C_5  and  O_6
REMARK                            x       y       z     vdW  Elec       q    Type
REMARK                         _______ _______ _______ _____ _____    ______ ____
ROOT
ATOM      1  C   UNL     1       8.094  -5.079  25.478  0.00  0.00    +0.102 A 
ATOM      2  C   UNL     1       7.695  -5.342  26.796  0.00  0.00    +0.033 A 
ATOM      3  C   UNL     1       6.356  -5.627  27.065  0.00  0.00    +0.015 A 
ATOM      4  I   UNL     1       5.760  -6.008  29.020  0.00  0.00    -0.044 I 
ATOM      5  C   UNL     1       5.416  -5.666  26.035  0.00  0.00    +0.032 A 
ATOM      6  C   UNL     1       5.820  -5.433  24.717  0.00  0.00    +0.057 A 
ATOM      7  I   UNL     1       4.362  -5.531  23.216  0.00  0.00    -0.040 I 
ATOM      8  C   UNL     1       7.162  -5.153  24.429  0.00  0.00    +0.144 A 
ENDROOT
BRANCH   1   9
ATOM      9  C   UNL     1       9.506  -4.762  25.167  0.00  0.00    +0.340 C 
ATOM     10  O   UNL     1       9.801  -3.824  24.443  0.00  0.00    -0.245 OA
BRANCH   9  11
ATOM     11  O   UNL     1      10.413  -5.531  25.799  0.00  0.00    -0.477 OA
ATOM     12  H   UNL     1      10.483  -5.401  26.762  0.00  0.00    +0.295 HD
ENDBRANCH   9  11
ENDBRANCH   1   9
BRANCH   8  13
ATOM     13  O   UNL     1       7.535  -4.954  23.125  0.00  0.00    -0.505 OA
ATOM     14  H   UNL     1       8.394  -5.402  22.954  0.00  0.00    +0.292 HD
ENDBRANCH   8  13
TORSDOF 3
ENDMDL
MODEL 3
REMARK VINA RESULT:      -4.6      3.178      4.208
REMARK  Name = 
REMARK  3 active torsions:
REMARK  status: ('A' for Active; 'I' for Inactive)
REMARK    1  A    between atoms: O_1  and  C_2
REMARK    2  A    between atoms: C_2  and  C_4
REMARK    3  A    between atoms: C_5  and  O_6
REMARK                            x       y       z     vdW  Elec       q    Type
REMARK                         _______ _______ _______ _____ _____    ______ ____
ROOT
ATOM      1  C   UNL     1       7.634  -5.209  25.208  0.00  0.00    +0.102 A 
ATOM      2  C   UNL     1       6.585  -5.216  24.278  0.00  0.00    +0.033 A 
ATOM      3  C   UNL     1       5.290  -5.513  24.702  0.00  0.00    +0.015 A 
ATOM      4  I   UNL     1       3.736  -5.533  23.322  0.00  0.00    -0.044 I 
ATOM      5  C   UNL     1       5.027  -5.789  26.044  0.00  0.00    +0.032 A 
ATOM      6  C   UNL     1       6.068  -5.753  26.977  0.00  0.00    +0.057 A 
ATOM      7  I   UNL     1       5.599  -6.153  28.979  0.00  0.00    -0.040 I 
ATOM      8  C   UNL     1       7.373  -5.449  26.568  0.00  0.00    +0.144 A 
ENDROOT
BRANCH   1   9
ATOM      9  C   UNL     1       9.018  -4.910  24.782  0.00  0.00    +0.340 C 
ATOM     10  O   UNL     1       9.292  -3.877  24.191  0.00  0.00    -0.245 OA
BRANCH   9  11
ATOM     11  O   UNL     1       9.938  -5.817  25.162  0.00  0.00    -0.477 OA
ATOM     12  H   UNL     1       9.651  -6.749  25.139  0.00  0.00    +0.295 HD
ENDBRANCH   9  11
ENDBRANCH   1   9
BRANCH   8  13
ATOM     13  O   UNL     1       8.369  -5.396  27.509  0.00  0.00    -0.505 OA
ATOM     14  H   UNL     1       7.994  -5.585  28.399  0.00  0.00    +0.292 HD
ENDBRANCH   8  13
TORSDOF 3
ENDMDL
MODEL 4
REMARK VINA RESULT:      -4.5      1.398      3.280
REMARK  Name = 
REMARK  3 active torsions:
REMARK  status: ('A' for Active; 'I' for Inactive)
REMARK    1  A    between atoms: O_1  and  C_2
REMARK    2  A    between atoms: C_2  and  C_4
REMARK    3  A    between atoms: C_5  and  O_6
REMARK                            x       y       z     vdW  Elec       q    Type
REMARK                         _______ _______ _______ _____ _____    ______ ____
ROOT
ATOM      1  C   UNL     1       8.194  -4.058  25.251  0.00  0.00    +0.102 A 
ATOM      2  C   UNL     1       8.917  -2.963  24.759  0.00  0.00    +0.033 A 
ATOM      3  C   UNL     1       8.835  -2.635  23.406  0.00  0.00    +0.015 A 
ATOM      4  I   UNL     1       9.916  -1.017  22.674  0.00  0.00    -0.044 I 
ATOM      5  C   UNL     1       8.032  -3.378  22.541  0.00  0.00    +0.032 A 
ATOM      6  C   UNL     1       7.287  -4.453  23.037  0.00  0.00    +0.057 A 
ATOM      7  I   UNL     1       6.081  -5.510  21.690  0.00  0.00    -0.040 I 
ATOM      8  C   UNL     1       7.352  -4.790  24.395  0.00  0.00    +0.144 A 
ENDROOT
BRANCH   1   9
ATOM      9  C   UNL     1       8.272  -4.435  26.679  0.00  0.00    +0.340 C 
ATOM     10  O   UNL     1       7.279  -4.441  27.390  0.00  0.00    -0.245 OA
BRANCH   9  11
ATOM     11  O   UNL     1       9.489  -4.835  27.094  0.00  0.00    -0.477 OA
ATOM     12  H   UNL     1      10.158  -4.133  27.192  0.00  0.00    +0.295 HD
ENDBRANCH   9  11
ENDBRANCH   1   9
BRANCH   8  13
ATOM     13  O   UNL     1       6.591  -5.832  24.858  0.00  0.00    -0.505 OA
ATOM     14  H   UNL     1       7.178  -6.544  25.200  0.00  0.00    +0.292 HD
ENDBRANCH   8  13
TORSDOF 3
ENDMDL
MODEL 5
REMARK VINA RESULT:      -4.4      3.334      4.154
REMARK  Name = 
REMARK  3 active torsions:
REMARK  status: ('A' for Active; 'I' for Inactive)
REMARK    1  A    between atoms: O_1  and  C_2
REMARK    2  A    between atoms: C_2  and  C_4
REMARK    3  A    between atoms: C_5  and  O_6
REMARK                            x       y       z     vdW  Elec       q    Type
REMARK                         _______ _______ _______ _____ _____    ______ ____
ROOT
ATOM      1  C   UNL     1       6.028  -5.771  26.179  0.00  0.00    +0.102 A 
ATOM      2  C   UNL     1       4.819  -6.476  26.249  0.00  0.00    +0.033 A 
ATOM      3  C   UNL     1       4.127  -6.774  25.075  0.00  0.00    +0.015 A 
ATOM      4  I   UNL     1       2.329  -7.812  25.178  0.00  0.00    -0.044 I 
ATOM      5  C   UNL     1       4.633  -6.389  23.833  0.00  0.00    +0.032 A 
ATOM      6  C   UNL     1       5.855  -5.711  23.762  0.00  0.00    +0.057 A 
ATOM      7  I   UNL     1       6.569  -5.184  21.865  0.00  0.00    -0.040 I 
ATOM      8  C   UNL     1       6.565  -5.411  24.930  0.00  0.00    +0.144 A 
ENDROOT
BRANCH   1   9
ATOM      9  C   UNL     1       6.776  -5.431  27.409  0.00  0.00    +0.340 C 
ATOM     10  O   UNL     1       6.242  -4.837  28.333  0.00  0.00    -0.245 OA
BRANCH   9  11
ATOM     11  O   UNL     1       8.041  -5.892  27.450  0.00  0.00    -0.477 OA
ATOM     12  H   UNL     1       8.723  -5.240  27.694  0.00  0.00    +0.295 HD
ENDBRANCH   9  11
ENDBRANCH   1   9
BRANCH   8  13
ATOM     13  O   UNL     1       7.772  -4.768  24.829  0.00  0.00    -0.505 OA
ATOM     14  H   UNL     1       8.088  -4.803  23.898  0.00  0.00    +0.292 HD
ENDBRANCH   8  13
TORSDOF 3
ENDMDL
MODEL 6
REMARK VINA RESULT:      -4.4      3.280      4.616
REMARK  Name = 
REMARK  3 active torsions:
REMARK  status: ('A' for Active; 'I' for Inactive)
REMARK    1  A    between atoms: O_1  and  C_2
REMARK    2  A    between atoms: C_2  and  C_4
REMARK    3  A    between atoms: C_5  and  O_6
REMARK                            x       y       z     vdW  Elec       q    Type
REMARK                         _______ _______ _______ _____ _____    ______ ____
ROOT
ATOM      1  C   UNL     1       6.910  -3.439  22.606  0.00  0.00    +0.102 A 
ATOM      2  C   UNL     1       7.586  -2.286  22.184  0.00  0.00    +0.033 A 
ATOM      3  C   UNL     1       8.768  -1.908  22.822  0.00  0.00    +0.015 A 
ATOM      4  I   UNL     1       9.766  -0.193  22.204  0.00  0.00    -0.044 I 
ATOM      5  C   UNL     1       9.288  -2.673  23.866  0.00  0.00    +0.032 A 
ATOM      6  C   UNL     1       8.629  -3.840  24.267  0.00  0.00    +0.057 A 
ATOM      7  I   UNL     1       9.478  -4.956  25.823  0.00  0.00    -0.040 I 
ATOM      8  C   UNL     1       7.446  -4.237  23.631  0.00  0.00    +0.144 A 
ENDROOT
BRANCH   1   9
ATOM      9  C   UNL     1       5.649  -3.855  21.954  0.00  0.00    +0.340 C 
ATOM     10  O   UNL     1       4.642  -4.085  22.606  0.00  0.00    -0.245 OA
BRANCH   9  11
ATOM     11  O   UNL     1       5.688  -3.881  20.608  0.00  0.00    -0.477 OA
ATOM     12  H   UNL     1       5.494  -4.742  20.194  0.00  0.00    +0.295 HD
ENDBRANCH   9  11
ENDBRANCH   1   9
BRANCH   8  13
ATOM     13  O   UNL     1       6.835  -5.399  24.028  0.00  0.00    -0.505 OA
ATOM     14  H   UNL     1       7.300  -6.169  23.630  0.00  0.00    +0.292 HD
ENDBRANCH   8  13
TORSDOF 3
ENDMDL
MODEL 7
REMARK VINA RESULT:      -4.3      3.510      4.810
REMARK  Name = 
REMARK  3 active torsions:
REMARK  status: ('A' for Active; 'I' for Inactive)
REMARK    1  A    between atoms: O_1  and  C_2
REMARK    2  A    between atoms: C_2  and  C_4
REMARK    3  A    between atoms: C_5  and  O_6
REMARK                            x       y       z     vdW  Elec       q    Type
REMARK                         _______ _______ _______ _____ _____    ______ ____
ROOT
ATOM      1  C   UNL     1       6.769  -4.568  22.760  0.00  0.00    +0.102 A 
ATOM      2  C   UNL     1       7.739  -3.568  22.607  0.00  0.00    +0.033 A 
ATOM      3  C   UNL     1       8.361  -3.034  23.736  0.00  0.00    +0.015 A 
ATOM      4  I   UNL     1       9.793  -1.543  23.511  0.00  0.00    -0.044 I 
ATOM      5  C   UNL     1       8.037  -3.494  25.012  0.00  0.00    +0.032 A 
ATOM      6  C   UNL     1       7.090  -4.512  25.162  0.00  0.00    +0.057 A 
ATOM      7  I   UNL     1       6.668  -5.174  27.104  0.00  0.00    -0.040 I 
ATOM      8  C   UNL     1       6.462  -5.065  24.039  0.00  0.00    +0.144 A 
ENDROOT
BRANCH   1   9
ATOM      9  C   UNL     1       6.085  -5.143  21.581  0.00  0.00    +0.340 C 
ATOM     10  O   UNL     1       5.701  -4.436  20.662  0.00  0.00    -0.245 OA
BRANCH   9  11
ATOM     11  O   UNL     1       5.996  -6.486  21.575  0.00  0.00    -0.477 OA
ATOM     12  H   UNL     1       5.556  -6.886  22.347  0.00  0.00    +0.295 HD
ENDBRANCH   9  11
ENDBRANCH   1   9
BRANCH   8  13
ATOM     13  O   UNL     1       5.557  -6.079  24.215  0.00  0.00    -0.505 OA
ATOM     14  H   UNL     1       5.813  -6.851  23.661  0.00  0.00    +0.292 HD
ENDBRANCH   8  13
TORSDOF 3
ENDMDL
MODEL 8
REMARK VINA RESULT:      -4.3      1.678      1.804
REMARK  Name = 
REMARK  3 active torsions:
REMARK  status: ('A' for Active; 'I' for Inactive)
REMARK    1  A    between atoms: O_1  and  C_2
REMARK    2  A    between atoms: C_2  and  C_4
REMARK    3  A    between atoms: C_5  and  O_6
REMARK                            x       y       z     vdW  Elec       q    Type
REMARK                         _______ _______ _______ _____ _____    ______ ____
ROOT
ATOM      1  C   UNL     1       7.918  -4.345  24.755  0.00  0.00    +0.102 A 
ATOM      2  C   UNL     1       6.681  -4.958  24.510  0.00  0.00    +0.033 A 
ATOM      3  C   UNL     1       5.642  -4.213  23.953  0.00  0.00    +0.015 A 
ATOM      4  I   UNL     1       3.804  -5.118  23.598  0.00  0.00    -0.044 I 
ATOM      5  C   UNL     1       5.825  -2.869  23.626  0.00  0.00    +0.032 A 
ATOM      6  C   UNL     1       7.068  -2.266  23.844  0.00  0.00    +0.057 A 
ATOM      7  I   UNL     1       7.283  -0.252  23.307  0.00  0.00    -0.040 I 
ATOM      8  C   UNL     1       8.124  -3.002  24.394  0.00  0.00    +0.144 A 
ENDROOT
BRANCH   1   9
ATOM      9  C   UNL     1       9.033  -5.109  25.356  0.00  0.00    +0.340 C 
ATOM     10  O   UNL     1      10.180  -4.975  24.961  0.00  0.00    -0.245 OA
BRANCH   9  11
ATOM     11  O   UNL     1       8.690  -5.888  26.400  0.00  0.00    -0.477 OA
ATOM     12  H   UNL     1       7.940  -6.493  26.251  0.00  0.00    +0.295 HD
ENDBRANCH   9  11
ENDBRANCH   1   9
BRANCH   8  13
ATOM     13  O   UNL     1       9.339  -2.392  24.573  0.00  0.00    -0.505 OA
ATOM     14  H   UNL     1      10.037  -2.899  24.101  0.00  0.00    +0.292 HD
ENDBRANCH   8  13
TORSDOF 3
ENDMDL
MODEL 9
REMARK VINA RESULT:      -4.2      2.542      2.931
REMARK  Name = 
REMARK  3 active torsions:
REMARK  status: ('A' for Active; 'I' for Inactive)
REMARK    1  A    between atoms: O_1  and  C_2
REMARK    2  A    between atoms: C_2  and  C_4
REMARK    3  A    between atoms: C_5  and  O_6
REMARK                            x       y       z     vdW  Elec       q    Type
REMARK                         _______ _______ _______ _____ _____    ______ ____
ROOT
ATOM      1  C   UNL     1       8.744  -3.357  25.160  0.00  0.00    +0.102 A 
ATOM      2  C   UNL     1       7.592  -2.919  25.829  0.00  0.00    +0.033 A 
ATOM      3  C   UNL     1       7.072  -1.656  25.548  0.00  0.00    +0.015 A 
ATOM      4  I   UNL     1       5.369  -1.002  26.547  0.00  0.00    -0.044 I 
ATOM      5  C   UNL     1       7.678  -0.830  24.602  0.00  0.00    +0.032 A 
ATOM      6  C   UNL     1       8.810  -1.279  23.913  0.00  0.00    +0.057 A 
ATOM      7  I   UNL     1       9.656   0.001  22.487  0.00  0.00    -0.040 I 
ATOM      8  C   UNL     1       9.340  -2.548  24.177  0.00  0.00    +0.144 A 
ENDROOT
BRANCH   1   9
ATOM      9  C   UNL     1       9.323  -4.687  25.447  0.00  0.00    +0.340 C 
ATOM     10  O   UNL     1       9.481  -5.515  24.563  0.00  0.00    -0.245 OA
BRANCH   9  11
ATOM     11  O   UNL     1       9.722  -4.870  26.720  0.00  0.00    -0.477 OA
ATOM     12  H   UNL     1      10.685  -4.847  26.871  0.00  0.00    +0.295 HD
ENDBRANCH   9  11
ENDBRANCH   1   9
BRANCH   8  13
ATOM     13  O   UNL     1      10.435  -2.971  23.469  0.00  0.00    -0.505 OA
ATOM     14  H   UNL     1      10.393  -3.946  23.346  0.00  0.00    +0.292 HD
ENDBRANCH   8  13
TORSDOF 3
ENDMDL
