MODEL 1
REMARK VINA RESULT:      -5.0      0.000      0.000
REMARK  Name = 
REMARK  0 active torsions:
REMARK  status: ('A' for Active; 'I' for Inactive)
REMARK                            x       y       z     vdW  Elec       q    Type
REMARK                         _______ _______ _______ _____ _____    ______ ____
ROOT
ATOM      1  N   UNL     1      10.408  -5.484  25.667  0.00  0.00    -0.329 N 
ATOM      2  H   UNL     1      10.672  -5.226  26.610  0.00  0.00    +0.145 HD
ATOM      3  H   UNL     1      10.991  -5.029  24.973  0.00  0.00    +0.145 HD
ATOM      4  C   UNL     1       9.088  -5.354  25.370  0.00  0.00    +0.193 A 
ATOM      5  N   UNL     1       8.271  -5.716  26.403  0.00  0.00    -0.311 N 
ATOM      6  H   UNL     1       8.633  -6.177  27.224  0.00  0.00    +0.170 HD
ATOM      7  C   UNL     1       6.966  -5.686  26.138  0.00  0.00    +0.161 A 
ATOM      8  N   UNL     1       5.969  -6.076  26.965  0.00  0.00    -0.218 NA
ATOM      9  C   UNL     1       4.874  -5.874  26.259  0.00  0.00    +0.199 A 
ATOM     10  N   UNL     1       5.153  -5.370  25.011  0.00  0.00    -0.341 N 
ATOM     11  H   UNL     1       4.485  -5.143  24.287  0.00  0.00    +0.167 HD
ATOM     12  C   UNL     1       6.514  -5.251  24.925  0.00  0.00    +0.116 A 
ATOM     13  C   UNL     1       7.396  -4.818  23.884  0.00  0.00    +0.138 A 
ATOM     14  S   UNL     1       6.756  -4.263  22.442  0.00  0.00    -0.028 S 
ATOM     15  N   UNL     1       8.741  -4.922  24.192  0.00  0.00    -0.207 NA
ENDROOT
TORSDOF 0
ENDMDL
MODEL 2
REMARK VINA RESULT:      -4.8      2.457      3.187
REMARK  Name = 
REMARK  0 active torsions:
REMARK  status: ('A' for Active; 'I' for Inactive)
REMARK                            x       y       z     vdW  Elec       q    Type
REMARK                         _______ _______ _______ _____ _____    ______ ____
ROOT
ATOM      1  N   UNL     1       9.761  -5.725  25.589  0.00  0.00    -0.329 N 
ATOM      2  H   UNL     1       9.167  -6.133  26.300  0.00  0.00    +0.145 HD
ATOM      3  H   UNL     1      10.636  -5.386  25.976  0.00  0.00    +0.145 HD
ATOM      4  C   UNL     1       9.173  -4.790  24.797  0.00  0.00    +0.193 A 
ATOM      5  N   UNL     1       7.882  -5.100  24.475  0.00  0.00    -0.311 N 
ATOM      6  H   UNL     1       7.490  -6.005  24.684  0.00  0.00    +0.170 HD
ATOM      7  C   UNL     1       7.285  -4.259  23.633  0.00  0.00    +0.161 A 
ATOM      8  N   UNL     1       6.046  -4.394  23.105  0.00  0.00    -0.218 NA
ATOM      9  C   UNL     1       5.914  -3.334  22.332  0.00  0.00    +0.199 A 
ATOM     10  N   UNL     1       7.033  -2.537  22.357  0.00  0.00    -0.341 N 
ATOM     11  H   UNL     1       7.175  -1.678  21.843  0.00  0.00    +0.167 HD
ATOM     12  C   UNL     1       7.931  -3.137  23.198  0.00  0.00    +0.116 A 
ATOM     13  C   UNL     1       9.263  -2.808  23.604  0.00  0.00    +0.138 A 
ATOM     14  S   UNL     1       9.965  -1.393  23.055  0.00  0.00    -0.028 S 
ATOM     15  N   UNL     1       9.856  -3.743  24.435  0.00  0.00    -0.207 NA
ENDROOT
TORSDOF 0
ENDMDL
MODEL 3
REMARK VINA RESULT:      -4.7      2.069      3.691
REMARK  Name = 
REMARK  0 active torsions:
REMARK  status: ('A' for Active; 'I' for Inactive)
REMARK                            x       y       z     vdW  Elec       q    Type
REMARK                         _______ _______ _______ _____ _____    ______ ____
ROOT
ATOM      1  N   UNL     1       8.255  -5.805  26.706  0.00  0.00    -0.329 N 
ATOM      2  H   UNL     1       9.116  -6.337  26.715  0.00  0.00    +0.145 HD
ATOM      3  H   UNL     1       7.444  -6.396  26.860  0.00  0.00    +0.145 HD
ATOM      4  C   UNL     1       8.080  -4.990  25.633  0.00  0.00    +0.193 A 
ATOM      5  N   UNL     1       9.234  -4.376  25.235  0.00  0.00    -0.311 N 
ATOM      6  H   UNL     1      10.072  -4.420  25.794  0.00  0.00    +0.170 HD
ATOM      7  C   UNL     1       9.103  -3.502  24.240  0.00  0.00    +0.161 A 
ATOM      8  N   UNL     1      10.078  -2.715  23.729  0.00  0.00    -0.218 NA
ATOM      9  C   UNL     1       9.466  -2.024  22.786  0.00  0.00    +0.199 A 
ATOM     10  N   UNL     1       8.135  -2.353  22.691  0.00  0.00    -0.341 N 
ATOM     11  H   UNL     1       7.458  -1.956  22.054  0.00  0.00    +0.167 HD
ATOM     12  C   UNL     1       7.892  -3.311  23.638  0.00  0.00    +0.116 A 
ATOM     13  C   UNL     1       6.713  -4.016  24.039  0.00  0.00    +0.138 A 
ATOM     14  S   UNL     1       5.278  -3.750  23.222  0.00  0.00    -0.028 S 
ATOM     15  N   UNL     1       6.893  -4.870  25.113  0.00  0.00    -0.207 NA
ENDROOT
TORSDOF 0
ENDMDL
MODEL 4
REMARK VINA RESULT:      -4.6      5.352      6.598
REMARK  Name = 
REMARK  0 active torsions:
REMARK  status: ('A' for Active; 'I' for Inactive)
REMARK                            x       y       z     vdW  Elec       q    Type
REMARK                         _______ _______ _______ _____ _____    ______ ____
ROOT
ATOM      1  N   UNL     1       9.827   2.174  21.506  0.00  0.00    -0.329 N 
ATOM      2  H   UNL     1      10.753   2.169  21.098  0.00  0.00    +0.145 HD
ATOM      3  H   UNL     1       9.562   3.098  21.833  0.00  0.00    +0.145 HD
ATOM      4  C   UNL     1       9.598   1.228  22.454  0.00  0.00    +0.193 A 
ATOM      5  N   UNL     1      10.178   0.026  22.160  0.00  0.00    -0.311 N 
ATOM      6  H   UNL     1      10.588  -0.152  21.257  0.00  0.00    +0.170 HD
ATOM      7  C   UNL     1       9.916  -0.960  23.015  0.00  0.00    +0.161 A 
ATOM      8  N   UNL     1      10.305  -2.251  22.897  0.00  0.00    -0.218 NA
ATOM      9  C   UNL     1       9.798  -2.834  23.966  0.00  0.00    +0.199 A 
ATOM     10  N   UNL     1       9.101  -1.949  24.751  0.00  0.00    -0.341 N 
ATOM     11  H   UNL     1       8.616  -2.157  25.614  0.00  0.00    +0.167 HD
ATOM     12  C   UNL     1       9.169  -0.728  24.135  0.00  0.00    +0.116 A 
ATOM     13  C   UNL     1       8.626   0.559  24.447  0.00  0.00    +0.138 A 
ATOM     14  S   UNL     1       7.756   0.764  25.860  0.00  0.00    -0.028 S 
ATOM     15  N   UNL     1       8.882   1.534  23.498  0.00  0.00    -0.207 NA
ENDROOT
TORSDOF 0
ENDMDL
MODEL 5
REMARK VINA RESULT:      -4.6      2.662      3.879
REMARK  Name = 
REMARK  0 active torsions:
REMARK  status: ('A' for Active; 'I' for Inactive)
REMARK                            x       y       z     vdW  Elec       q    Type
REMARK                         _______ _______ _______ _____ _____    ______ ____
ROOT
ATOM      1  N   UNL     1      10.159  -0.873  21.880  0.00  0.00    -0.329 N 
ATOM      2  H   UNL     1      10.781  -0.367  22.497  0.00  0.00    +0.145 HD
ATOM      3  H   UNL     1       9.613  -0.247  21.297  0.00  0.00    +0.145 HD
ATOM      4  C   UNL     1       9.373  -1.808  22.476  0.00  0.00    +0.193 A 
ATOM      5  N   UNL     1      10.018  -2.496  23.464  0.00  0.00    -0.311 N 
ATOM      6  H   UNL     1      11.013  -2.408  23.603  0.00  0.00    +0.170 HD
ATOM      7  C   UNL     1       9.320  -3.481  24.025  0.00  0.00    +0.161 A 
ATOM      8  N   UNL     1       9.767  -4.351  24.961  0.00  0.00    -0.218 NA
ATOM      9  C   UNL     1       8.730  -5.134  25.186  0.00  0.00    +0.199 A 
ATOM     10  N   UNL     1       7.646  -4.784  24.418  0.00  0.00    -0.341 N 
ATOM     11  H   UNL     1       6.742  -5.238  24.405  0.00  0.00    +0.167 HD
ATOM     12  C   UNL     1       8.025  -3.712  23.657  0.00  0.00    +0.116 A 
ATOM     13  C   UNL     1       7.357  -2.932  22.660  0.00  0.00    +0.138 A 
ATOM     14  S   UNL     1       5.757  -3.257  22.298  0.00  0.00    -0.028 S 
ATOM     15  N   UNL     1       8.145  -1.958  22.071  0.00  0.00    -0.207 NA
ENDROOT
TORSDOF 0
ENDMDL
MODEL 6
REMARK VINA RESULT:      -4.6      5.479      6.697
REMARK  Name = 
REMARK  0 active torsions:
REMARK  status: ('A' for Active; 'I' for Inactive)
REMARK                            x       y       z     vdW  Elec       q    Type
REMARK                         _______ _______ _______ _____ _____    ______ ____
ROOT
ATOM      1  N   UNL     1       9.084  -0.549  27.089  0.00  0.00    -0.329 N 
ATOM      2  H   UNL     1       9.884  -0.226  27.618  0.00  0.00    +0.145 HD
ATOM      3  H   UNL     1       8.810  -1.490  27.354  0.00  0.00    +0.145 HD
ATOM      4  C   UNL     1       9.182  -0.422  25.739  0.00  0.00    +0.193 A 
ATOM      5  N   UNL     1       9.799   0.735  25.355  0.00  0.00    -0.311 N 
ATOM      6  H   UNL     1      10.002   1.467  26.018  0.00  0.00    +0.170 HD
ATOM      7  C   UNL     1       9.847   0.950  24.043  0.00  0.00    +0.161 A 
ATOM      8  N   UNL     1      10.329   2.054  23.426  0.00  0.00    -0.218 NA
ATOM      9  C   UNL     1      10.150   1.803  22.143  0.00  0.00    +0.199 A 
ATOM     10  N   UNL     1       9.568   0.576  21.936  0.00  0.00    -0.341 N 
ATOM     11  H   UNL     1       9.322   0.166  21.044  0.00  0.00    +0.167 HD
ATOM     12  C   UNL     1       9.364   0.018  23.168  0.00  0.00    +0.116 A 
ATOM     13  C   UNL     1       8.779  -1.214  23.601  0.00  0.00    +0.138 A 
ATOM     14  S   UNL     1       8.247  -2.317  22.462  0.00  0.00    -0.028 S 
ATOM     15  N   UNL     1       8.703  -1.361  24.976  0.00  0.00    -0.207 NA
ENDROOT
TORSDOF 0
ENDMDL
MODEL 7
REMARK VINA RESULT:      -4.4      1.842      2.859
REMARK  Name = 
REMARK  0 active torsions:
REMARK  status: ('A' for Active; 'I' for Inactive)
REMARK                            x       y       z     vdW  Elec       q    Type
REMARK                         _______ _______ _______ _____ _____    ______ ____
ROOT
ATOM      1  N   UNL     1      10.172  -5.268  25.913  0.00  0.00    -0.329 N 
ATOM      2  H   UNL     1      10.849  -5.572  25.226  0.00  0.00    +0.145 HD
ATOM      3  H   UNL     1      10.284  -5.757  26.796  0.00  0.00    +0.145 HD
ATOM      4  C   UNL     1       8.876  -5.275  25.504  0.00  0.00    +0.193 A 
ATOM      5  N   UNL     1       8.723  -4.867  24.209  0.00  0.00    -0.311 N 
ATOM      6  H   UNL     1       9.488  -4.460  23.692  0.00  0.00    +0.170 HD
ATOM      7  C   UNL     1       7.466  -4.775  23.782  0.00  0.00    +0.161 A 
ATOM      8  N   UNL     1       7.058  -4.319  22.575  0.00  0.00    -0.218 NA
ATOM      9  C   UNL     1       5.743  -4.407  22.630  0.00  0.00    +0.199 A 
ATOM     10  N   UNL     1       5.313  -4.902  23.837  0.00  0.00    -0.341 N 
ATOM     11  H   UNL     1       4.354  -5.052  24.122  0.00  0.00    +0.167 HD
ATOM     12  C   UNL     1       6.429  -5.139  24.593  0.00  0.00    +0.116 A 
ATOM     13  C   UNL     1       6.626  -5.622  25.926  0.00  0.00    +0.138 A 
ATOM     14  S   UNL     1       5.302  -6.084  26.837  0.00  0.00    -0.028 S 
ATOM     15  N   UNL     1       7.947  -5.645  26.338  0.00  0.00    -0.207 NA
ENDROOT
TORSDOF 0
ENDMDL
MODEL 8
REMARK VINA RESULT:      -4.4      2.001      3.883
REMARK  Name = 
REMARK  0 active torsions:
REMARK  status: ('A' for Active; 'I' for Inactive)
REMARK                            x       y       z     vdW  Elec       q    Type
REMARK                         _______ _______ _______ _____ _____    ______ ____
ROOT
ATOM      1  N   UNL     1       5.711  -3.564  22.225  0.00  0.00    -0.329 N 
ATOM      2  H   UNL     1       6.069  -2.659  21.948  0.00  0.00    +0.145 HD
ATOM      3  H   UNL     1       4.698  -3.564  22.298  0.00  0.00    +0.145 HD
ATOM      4  C   UNL     1       6.288  -4.112  23.327  0.00  0.00    +0.193 A 
ATOM      5  N   UNL     1       7.635  -3.894  23.388  0.00  0.00    -0.311 N 
ATOM      6  H   UNL     1       8.141  -3.505  22.607  0.00  0.00    +0.170 HD
ATOM      7  C   UNL     1       8.264  -4.480  24.404  0.00  0.00    +0.161 A 
ATOM      8  N   UNL     1       9.598  -4.479  24.631  0.00  0.00    -0.218 NA
ATOM      9  C   UNL     1       9.733  -5.192  25.733  0.00  0.00    +0.199 A 
ATOM     10  N   UNL     1       8.523  -5.642  26.204  0.00  0.00    -0.341 N 
ATOM     11  H   UNL     1       8.368  -6.214  27.023  0.00  0.00    +0.167 HD
ATOM     12  C   UNL     1       7.564  -5.186  25.340  0.00  0.00    +0.116 A 
ATOM     13  C   UNL     1       6.143  -5.345  25.282  0.00  0.00    +0.138 A 
ATOM     14  S   UNL     1       5.359  -6.193  26.491  0.00  0.00    -0.028 S 
ATOM     15  N   UNL     1       5.546  -4.763  24.176  0.00  0.00    -0.207 NA
ENDROOT
TORSDOF 0
ENDMDL
MODEL 9
REMARK VINA RESULT:      -4.4      3.319      4.485
REMARK  Name = 
REMARK  0 active torsions:
REMARK  status: ('A' for Active; 'I' for Inactive)
REMARK                            x       y       z     vdW  Elec       q    Type
REMARK                         _______ _______ _______ _____ _____    ______ ____
ROOT
ATOM      1  N   UNL     1       6.066  -0.802  23.942  0.00  0.00    -0.329 N 
ATOM      2  H   UNL     1       5.928  -0.148  23.182  0.00  0.00    +0.145 HD
ATOM      3  H   UNL     1       6.638  -0.408  24.681  0.00  0.00    +0.145 HD
ATOM      4  C   UNL     1       6.502  -2.038  23.581  0.00  0.00    +0.193 A 
ATOM      5  N   UNL     1       5.933  -2.488  22.424  0.00  0.00    -0.311 N 
ATOM      6  H   UNL     1       5.160  -2.003  21.995  0.00  0.00    +0.170 HD
ATOM      7  C   UNL     1       6.262  -3.728  22.069  0.00  0.00    +0.161 A 
ATOM      8  N   UNL     1       5.769  -4.420  21.016  0.00  0.00    -0.218 NA
ATOM      9  C   UNL     1       6.380  -5.587  21.089  0.00  0.00    +0.199 A 
ATOM     10  N   UNL     1       7.241  -5.649  22.158  0.00  0.00    -0.341 N 
ATOM     11  H   UNL     1       7.813  -6.438  22.428  0.00  0.00    +0.167 HD
ATOM     12  C   UNL     1       7.165  -4.444  22.802  0.00  0.00    +0.116 A 
ATOM     13  C   UNL     1       7.791  -3.920  23.978  0.00  0.00    +0.138 A 
ATOM     14  S   UNL     1       8.915  -4.850  24.795  0.00  0.00    -0.028 S 
ATOM     15  N   UNL     1       7.372  -2.650  24.333  0.00  0.00    -0.207 NA
ENDROOT
TORSDOF 0
ENDMDL
