MODEL 1
REMARK VINA RESULT:      -4.0      0.000      0.000
REMARK  Name = 
REMARK  5 active torsions:
REMARK  status: ('A' for Active; 'I' for Inactive)
REMARK    1  A    between atoms: O_1  and  N_2
REMARK    2  A    between atoms: C_3  and  C_5
REMARK    3  A    between atoms: C_5  and  P_6
REMARK    4  A    between atoms: P_6  and  O_7
REMARK    5  A    between atoms: P_6  and  O_8
REMARK                            x       y       z     vdW  Elec       q    Type
REMARK                         _______ _______ _______ _____ _____    ______ ____
ROOT
ATOM      1  C   UNL     1       8.913   0.328  23.249  0.00  0.00    +0.224 C 
ENDROOT
BRANCH   1   4
ATOM      2  N   UNL     1       9.836   1.885  21.606  0.00  0.00    -0.197 N 
ATOM      3  H   UNL     1      10.430   2.671  21.359  0.00  0.00    +0.182 HD
ATOM      4  C   UNL     1       9.889   1.397  22.885  0.00  0.00    +0.247 C 
ATOM      5  O   UNL     1      10.683   1.867  23.694  0.00  0.00    -0.273 OA
BRANCH   2   6
ATOM      6  O   UNL     1       8.673   1.638  20.858  0.00  0.00    -0.295 OA
ATOM      7  H   UNL     1       8.985   1.091  20.113  0.00  0.00    +0.241 HD
ENDBRANCH   2   6
ENDBRANCH   1   4
BRANCH   1   8
ATOM      8  P   UNL     1       9.850  -1.241  23.152  0.00  0.00    +0.337 P 
ATOM      9  O   UNL     1      10.643  -2.568  23.070  0.00  0.00    -0.258 OA
BRANCH   8  10
ATOM     10  O   UNL     1       9.897  -0.981  21.525  0.00  0.00    -0.324 OA
ATOM     11  H   UNL     1      10.053  -0.044  21.298  0.00  0.00    +0.220 HD
ENDBRANCH   8  10
BRANCH   8  12
ATOM     12  O   UNL     1       8.408  -2.028  23.165  0.00  0.00    -0.324 OA
ATOM     13  H   UNL     1       7.859  -1.598  22.477  0.00  0.00    +0.220 HD
ENDBRANCH   8  12
ENDBRANCH   1   8
TORSDOF 5
ENDMDL
MODEL 2
REMARK VINA RESULT:      -3.9      1.449      2.019
REMARK  Name = 
REMARK  5 active torsions:
REMARK  status: ('A' for Active; 'I' for Inactive)
REMARK    1  A    between atoms: O_1  and  N_2
REMARK    2  A    between atoms: C_3  and  C_5
REMARK    3  A    between atoms: C_5  and  P_6
REMARK    4  A    between atoms: P_6  and  O_7
REMARK    5  A    between atoms: P_6  and  O_8
REMARK                            x       y       z     vdW  Elec       q    Type
REMARK                         _______ _______ _______ _____ _____    ______ ____
ROOT
ATOM      1  C   UNL     1       8.976   1.638  23.844  0.00  0.00    +0.224 C 
ENDROOT
BRANCH   1   4
ATOM      2  N   UNL     1      10.131   2.187  21.760  0.00  0.00    -0.197 N 
ATOM      3  H   UNL     1      10.890   2.632  21.253  0.00  0.00    +0.182 HD
ATOM      4  C   UNL     1      10.167   2.186  23.130  0.00  0.00    +0.247 C 
ATOM      5  O   UNL     1      11.129   2.663  23.724  0.00  0.00    -0.273 OA
BRANCH   2   6
ATOM      6  O   UNL     1       8.881   2.035  21.138  0.00  0.00    -0.295 OA
ATOM      7  H   UNL     1       8.298   1.725  21.856  0.00  0.00    +0.241 HD
ENDBRANCH   2   6
ENDBRANCH   1   4
BRANCH   1   8
ATOM      8  P   UNL     1       9.419  -0.083  24.281  0.00  0.00    +0.337 P 
ATOM      9  O   UNL     1       9.793  -1.539  24.651  0.00  0.00    -0.258 OA
BRANCH   8  10
ATOM     10  O   UNL     1      10.475   0.581  25.358  0.00  0.00    -0.324 OA
ATOM     11  H   UNL     1      10.840   1.434  25.050  0.00  0.00    +0.220 HD
ENDBRANCH   8  10
BRANCH   8  12
ATOM     12  O   UNL     1      10.444  -0.076  22.998  0.00  0.00    -0.324 OA
ATOM     13  H   UNL     1      11.141   0.579  23.212  0.00  0.00    +0.220 HD
ENDBRANCH   8  12
ENDBRANCH   1   8
TORSDOF 5
ENDMDL
MODEL 3
REMARK VINA RESULT:      -3.9      1.837      2.510
REMARK  Name = 
REMARK  5 active torsions:
REMARK  status: ('A' for Active; 'I' for Inactive)
REMARK    1  A    between atoms: O_1  and  N_2
REMARK    2  A    between atoms: C_3  and  C_5
REMARK    3  A    between atoms: C_5  and  P_6
REMARK    4  A    between atoms: P_6  and  O_7
REMARK    5  A    between atoms: P_6  and  O_8
REMARK                            x       y       z     vdW  Elec       q    Type
REMARK                         _______ _______ _______ _____ _____    ______ ____
ROOT
ATOM      1  C   UNL     1       8.950   1.762  23.881  0.00  0.00    +0.224 C 
ENDROOT
BRANCH   1   4
ATOM      2  N   UNL     1       9.046   2.128  21.465  0.00  0.00    -0.197 N 
ATOM      3  H   UNL     1       8.691   1.974  20.526  0.00  0.00    +0.182 HD
ATOM      4  C   UNL     1       8.336   1.631  22.526  0.00  0.00    +0.247 C 
ATOM      5  O   UNL     1       7.263   1.063  22.342  0.00  0.00    -0.273 OA
BRANCH   2   6
ATOM      6  O   UNL     1      10.416   2.377  21.653  0.00  0.00    -0.295 OA
ATOM      7  H   UNL     1      10.619   1.938  22.500  0.00  0.00    +0.241 HD
ENDBRANCH   2   6
ENDBRANCH   1   4
BRANCH   1   8
ATOM      8  P   UNL     1       9.229   0.048  24.457  0.00  0.00    +0.337 P 
ATOM      9  O   UNL     1       9.464  -1.403  24.944  0.00  0.00    -0.258 OA
BRANCH   8  10
ATOM     10  O   UNL     1      10.550   0.645  25.240  0.00  0.00    -0.324 OA
ATOM     11  H   UNL     1      11.118   1.189  24.660  0.00  0.00    +0.220 HD
ENDBRANCH   8  10
BRANCH   8  12
ATOM     12  O   UNL     1       9.984  -0.240  23.028  0.00  0.00    -0.324 OA
ATOM     13  H   UNL     1      10.846   0.223  23.078  0.00  0.00    +0.220 HD
ENDBRANCH   8  12
ENDBRANCH   1   8
TORSDOF 5
ENDMDL
MODEL 4
REMARK VINA RESULT:      -3.8      1.793      2.649
REMARK  Name = 
REMARK  5 active torsions:
REMARK  status: ('A' for Active; 'I' for Inactive)
REMARK    1  A    between atoms: O_1  and  N_2
REMARK    2  A    between atoms: C_3  and  C_5
REMARK    3  A    between atoms: C_5  and  P_6
REMARK    4  A    between atoms: P_6  and  O_7
REMARK    5  A    between atoms: P_6  and  O_8
REMARK                            x       y       z     vdW  Elec       q    Type
REMARK                         _______ _______ _______ _____ _____    ______ ____
ROOT
ATOM      1  C   UNL     1      10.472   0.138  23.155  0.00  0.00    +0.224 C 
ENDROOT
BRANCH   1   4
ATOM      2  N   UNL     1       9.301   1.199  21.290  0.00  0.00    -0.197 N 
ATOM      3  H   UNL     1       8.790   1.147  20.413  0.00  0.00    +0.182 HD
ATOM      4  C   UNL     1       9.611   0.034  21.940  0.00  0.00    +0.247 C 
ATOM      5  O   UNL     1       9.225  -1.044  21.497  0.00  0.00    -0.273 OA
BRANCH   2   6
ATOM      6  O   UNL     1      10.086   2.331  21.564  0.00  0.00    -0.295 OA
ATOM      7  H   UNL     1      10.796   1.989  22.139  0.00  0.00    +0.241 HD
ENDBRANCH   2   6
ENDBRANCH   1   4
BRANCH   1   8
ATOM      8  P   UNL     1       9.537  -0.698  24.487  0.00  0.00    +0.337 P 
ATOM      9  O   UNL     1       8.746  -1.406  25.615  0.00  0.00    -0.258 OA
BRANCH   8  10
ATOM     10  O   UNL     1       8.260   0.233  24.021  0.00  0.00    -0.324 OA
ATOM     11  H   UNL     1       8.509   0.916  23.370  0.00  0.00    +0.220 HD
ENDBRANCH   8  10
BRANCH   8  12
ATOM     12  O   UNL     1      10.180   0.392  25.534  0.00  0.00    -0.324 OA
ATOM     13  H   UNL     1       9.479   0.581  26.192  0.00  0.00    +0.220 HD
ENDBRANCH   8  12
ENDBRANCH   1   8
TORSDOF 5
ENDMDL
MODEL 5
REMARK VINA RESULT:      -3.8      1.984      3.182
REMARK  Name = 
REMARK  5 active torsions:
REMARK  status: ('A' for Active; 'I' for Inactive)
REMARK    1  A    between atoms: O_1  and  N_2
REMARK    2  A    between atoms: C_3  and  C_5
REMARK    3  A    between atoms: C_5  and  P_6
REMARK    4  A    between atoms: P_6  and  O_7
REMARK    5  A    between atoms: P_6  and  O_8
REMARK                            x       y       z     vdW  Elec       q    Type
REMARK                         _______ _______ _______ _____ _____    ______ ____
ROOT
ATOM      1  C   UNL     1      10.300   0.910  22.887  0.00  0.00    +0.224 C 
ENDROOT
BRANCH   1   4
ATOM      2  N   UNL     1       9.655  -0.700  21.163  0.00  0.00    -0.197 N 
ATOM      3  H   UNL     1       9.022  -1.021  20.436  0.00  0.00    +0.182 HD
ATOM      4  C   UNL     1       9.431   0.525  21.735  0.00  0.00    +0.247 C 
ATOM      5  O   UNL     1       8.518   1.239  21.331  0.00  0.00    -0.273 OA
BRANCH   2   6
ATOM      6  O   UNL     1      10.396  -1.640  21.898  0.00  0.00    -0.295 OA
ATOM      7  H   UNL     1      10.081  -2.500  21.562  0.00  0.00    +0.241 HD
ENDBRANCH   2   6
ENDBRANCH   1   4
BRANCH   1   8
ATOM      8  P   UNL     1       9.164   1.115  24.306  0.00  0.00    +0.337 P 
ATOM      9  O   UNL     1       8.203   1.288  25.508  0.00  0.00    -0.258 OA
BRANCH   8  10
ATOM     10  O   UNL     1      10.421   0.602  25.241  0.00  0.00    -0.324 OA
ATOM     11  H   UNL     1      11.249   0.498  24.735  0.00  0.00    +0.220 HD
ENDBRANCH   8  10
BRANCH   8  12
ATOM     12  O   UNL     1       8.574  -0.380  23.966  0.00  0.00    -0.324 OA
ATOM     13  H   UNL     1       8.514  -0.432  22.989  0.00  0.00    +0.220 HD
ENDBRANCH   8  12
ENDBRANCH   1   8
TORSDOF 5
ENDMDL
MODEL 6
REMARK VINA RESULT:      -3.8      2.092      3.485
REMARK  Name = 
REMARK  5 active torsions:
REMARK  status: ('A' for Active; 'I' for Inactive)
REMARK    1  A    between atoms: O_1  and  N_2
REMARK    2  A    between atoms: C_3  and  C_5
REMARK    3  A    between atoms: C_5  and  P_6
REMARK    4  A    between atoms: P_6  and  O_7
REMARK    5  A    between atoms: P_6  and  O_8
REMARK                            x       y       z     vdW  Elec       q    Type
REMARK                         _______ _______ _______ _____ _____    ______ ____
ROOT
ATOM      1  C   UNL     1       8.570   0.572  22.077  0.00  0.00    +0.224 C 
ENDROOT
BRANCH   1   4
ATOM      2  N   UNL     1       9.239  -1.752  22.433  0.00  0.00    -0.197 N 
ATOM      3  H   UNL     1       9.332  -2.572  23.026  0.00  0.00    +0.182 HD
ATOM      4  C   UNL     1       8.576  -0.659  22.923  0.00  0.00    +0.247 C 
ATOM      5  O   UNL     1       8.055  -0.696  24.034  0.00  0.00    -0.273 OA
BRANCH   2   6
ATOM      6  O   UNL     1      10.157  -1.549  21.390  0.00  0.00    -0.295 OA
ATOM      7  H   UNL     1       9.898  -0.686  21.015  0.00  0.00    +0.241 HD
ENDBRANCH   2   6
ENDBRANCH   1   4
BRANCH   1   8
ATOM      8  P   UNL     1       9.549   1.807  23.007  0.00  0.00    +0.337 P 
ATOM      9  O   UNL     1      10.378   2.851  23.795  0.00  0.00    -0.258 OA
BRANCH   8  10
ATOM     10  O   UNL     1      10.226   2.197  21.557  0.00  0.00    -0.324 OA
ATOM     11  H   UNL     1      11.170   2.435  21.634  0.00  0.00    +0.220 HD
ENDBRANCH   8  10
BRANCH   8  12
ATOM     12  O   UNL     1      10.600   0.600  23.376  0.00  0.00    -0.324 OA
ATOM     13  H   UNL     1      10.062  -0.117  23.771  0.00  0.00    +0.220 HD
ENDBRANCH   8  12
ENDBRANCH   1   8
TORSDOF 5
ENDMDL
MODEL 7
REMARK VINA RESULT:      -3.7      5.454      6.571
REMARK  Name = 
REMARK  5 active torsions:
REMARK  status: ('A' for Active; 'I' for Inactive)
REMARK    1  A    between atoms: O_1  and  N_2
REMARK    2  A    between atoms: C_3  and  C_5
REMARK    3  A    between atoms: C_5  and  P_6
REMARK    4  A    between atoms: P_6  and  O_7
REMARK    5  A    between atoms: P_6  and  O_8
REMARK                            x       y       z     vdW  Elec       q    Type
REMARK                         _______ _______ _______ _____ _____    ______ ____
ROOT
ATOM      1  C   UNL     1       8.017  -4.236  24.896  0.00  0.00    +0.224 C 
ENDROOT
BRANCH   1   4
ATOM      2  N   UNL     1       9.602  -5.940  25.646  0.00  0.00    -0.197 N 
ATOM      3  H   UNL     1       9.884  -6.671  26.293  0.00  0.00    +0.182 HD
ATOM      4  C   UNL     1       8.352  -5.394  25.778  0.00  0.00    +0.247 C 
ATOM      5  O   UNL     1       7.574  -5.824  26.624  0.00  0.00    -0.273 OA
BRANCH   2   6
ATOM      6  O   UNL     1      10.585  -5.178  24.995  0.00  0.00    -0.295 OA
ATOM      7  H   UNL     1      11.375  -5.750  25.015  0.00  0.00    +0.241 HD
ENDBRANCH   2   6
ENDBRANCH   1   4
BRANCH   1   8
ATOM      8  P   UNL     1       6.932  -4.917  23.589  0.00  0.00    +0.337 P 
ATOM      9  O   UNL     1       6.015  -5.494  22.483  0.00  0.00    -0.258 OA
BRANCH   8  10
ATOM     10  O   UNL     1       8.238  -5.813  23.130  0.00  0.00    -0.324 OA
ATOM     11  H   UNL     1       8.730  -6.179  23.890  0.00  0.00    +0.220 HD
ENDBRANCH   8  10
BRANCH   8  12
ATOM     12  O   UNL     1       7.297  -3.594  22.687  0.00  0.00    -0.324 OA
ATOM     13  H   UNL     1       6.451  -3.122  22.544  0.00  0.00    +0.220 HD
ENDBRANCH   8  12
ENDBRANCH   1   8
TORSDOF 5
ENDMDL
MODEL 8
REMARK VINA RESULT:      -3.7      4.742      6.127
REMARK  Name = 
REMARK  5 active torsions:
REMARK  status: ('A' for Active; 'I' for Inactive)
REMARK    1  A    between atoms: O_1  and  N_2
REMARK    2  A    between atoms: C_3  and  C_5
REMARK    3  A    between atoms: C_5  and  P_6
REMARK    4  A    between atoms: P_6  and  O_7
REMARK    5  A    between atoms: P_6  and  O_8
REMARK                            x       y       z     vdW  Elec       q    Type
REMARK                         _______ _______ _______ _____ _____    ______ ____
ROOT
ATOM      1  C   UNL     1       8.302  -4.599  24.107  0.00  0.00    +0.224 C 
ENDROOT
BRANCH   1   4
ATOM      2  N   UNL     1       8.777  -5.812  26.176  0.00  0.00    -0.197 N 
ATOM      3  H   UNL     1       8.531  -6.093  27.121  0.00  0.00    +0.182 HD
ATOM      4  C   UNL     1       7.861  -5.108  25.440  0.00  0.00    +0.247 C 
ATOM      5  O   UNL     1       6.745  -4.877  25.897  0.00  0.00    -0.273 OA
BRANCH   2   6
ATOM      6  O   UNL     1      10.131  -5.693  25.824  0.00  0.00    -0.295 OA
ATOM      7  H   UNL     1      10.130  -5.029  25.109  0.00  0.00    +0.241 HD
ENDBRANCH   2   6
ENDBRANCH   1   4
BRANCH   1   8
ATOM      8  P   UNL     1       8.577  -2.805  24.338  0.00  0.00    +0.337 P 
ATOM      9  O   UNL     1       8.809  -1.286  24.533  0.00  0.00    -0.258 OA
BRANCH   8  10
ATOM     10  O   UNL     1      10.140  -3.104  23.912  0.00  0.00    -0.324 OA
ATOM     11  H   UNL     1      10.724  -2.333  24.054  0.00  0.00    +0.220 HD
ENDBRANCH   8  10
BRANCH   8  12
ATOM     12  O   UNL     1       8.769  -3.106  25.941  0.00  0.00    -0.324 OA
ATOM     13  H   UNL     1       8.999  -2.247  26.353  0.00  0.00    +0.220 HD
ENDBRANCH   8  12
ENDBRANCH   1   8
TORSDOF 5
ENDMDL
MODEL 9
REMARK VINA RESULT:      -3.7      6.426      7.195
REMARK  Name = 
REMARK  5 active torsions:
REMARK  status: ('A' for Active; 'I' for Inactive)
REMARK    1  A    between atoms: O_1  and  N_2
REMARK    2  A    between atoms: C_3  and  C_5
REMARK    3  A    between atoms: C_5  and  P_6
REMARK    4  A    between atoms: P_6  and  O_7
REMARK    5  A    between atoms: P_6  and  O_8
REMARK                            x       y       z     vdW  Elec       q    Type
REMARK                         _______ _______ _______ _____ _____    ______ ____
ROOT
ATOM      1  C   UNL     1       7.528  -4.778  25.492  0.00  0.00    +0.224 C 
ENDROOT
BRANCH   1   4
ATOM      2  N   UNL     1       9.880  -5.361  25.823  0.00  0.00    -0.197 N 
ATOM      3  H   UNL     1      10.798  -5.171  26.213  0.00  0.00    +0.182 HD
ATOM      4  C   UNL     1       8.834  -4.552  26.181  0.00  0.00    +0.247 C 
ATOM      5  O   UNL     1       8.998  -3.654  27.002  0.00  0.00    -0.273 OA
BRANCH   2   6
ATOM      6  O   UNL     1       9.777  -6.069  24.615  0.00  0.00    -0.295 OA
ATOM      7  H   UNL     1       9.312  -5.450  24.020  0.00  0.00    +0.241 HD
ENDBRANCH   2   6
ENDBRANCH   1   4
BRANCH   1   8
ATOM      8  P   UNL     1       6.429  -5.508  26.759  0.00  0.00    +0.337 P 
ATOM      9  O   UNL     1       5.499  -6.127  27.831  0.00  0.00    -0.258 OA
BRANCH   8  10
ATOM     10  O   UNL     1       6.349  -3.993  27.402  0.00  0.00    -0.324 OA
ATOM     11  H   UNL     1       5.470  -3.788  27.774  0.00  0.00    +0.220 HD
ENDBRANCH   8  10
BRANCH   8  12
ATOM     12  O   UNL     1       7.780  -5.975  27.569  0.00  0.00    -0.324 OA
ATOM     13  H   UNL     1       7.569  -5.888  28.521  0.00  0.00    +0.220 HD
ENDBRANCH   8  12
ENDBRANCH   1   8
TORSDOF 5
ENDMDL
