MODEL 1
REMARK VINA RESULT:      -6.8      0.000      0.000
REMARK  Name = 
REMARK  6 active torsions:
REMARK  status: ('A' for Active; 'I' for Inactive)
REMARK    1  A    between atoms: C_1  and  O_2
REMARK    2  A    between atoms: O_2  and  C_3
REMARK    3  A    between atoms: C_5  and  O_6
REMARK    4  A    between atoms: O_6  and  C_7
REMARK    5  A    between atoms: C_8  and  N_9
REMARK    6  A    between atoms: C_16  and  C_19
REMARK                            x       y       z     vdW  Elec       q    Type
REMARK                         _______ _______ _______ _____ _____    ______ ____
ROOT
ATOM      1  N   UNL     1       7.649  -3.584  24.088  0.00  0.00    -0.266 N 
ATOM      2  H   UNL     1       7.393  -2.891  23.389  0.00  0.00    +0.156 HD
ATOM      3  C   UNL     1       9.000  -3.711  24.263  0.00  0.00    +0.309 C 
ATOM      4  N   UNL     1       9.760  -2.620  23.934  0.00  0.00    -0.253 N 
ATOM      5  H   UNL     1      10.751  -2.788  24.033  0.00  0.00    +0.158 HD
ATOM      6  C   UNL     1       9.320  -1.354  23.552  0.00  0.00    +0.144 A 
ATOM      7  C   UNL     1      10.240  -0.338  23.295  0.00  0.00    +0.156 A 
ATOM      8  N   UNL     1       9.881   0.920  22.928  0.00  0.00    -0.240 NA
ATOM      9  C   UNL     1       8.545   1.143  22.841  0.00  0.00    +0.158 A 
ATOM     10  C   UNL     1       7.623   0.148  23.095  0.00  0.00    +0.151 A 
ATOM     11  N   UNL     1       7.992  -1.111  23.434  0.00  0.00    -0.236 NA
ATOM     12  O   UNL     1       9.570  -4.730  24.651  0.00  0.00    -0.252 OA
ENDROOT
BRANCH   1  17
ATOM     13  C   UNL     1       4.881  -6.694  24.633  0.00  0.00    +0.142 A 
ATOM     14  C   UNL     1       5.420  -6.029  25.745  0.00  0.00    +0.084 A 
ATOM     15 CL   UNL     1       4.951  -6.450  27.354  0.00  0.00    -0.080 Cl
ATOM     16  C   UNL     1       6.354  -5.007  25.575  0.00  0.00    +0.050 A 
ATOM     17  C   UNL     1       6.726  -4.619  24.288  0.00  0.00    +0.078 A 
ATOM     18  C   UNL     1       6.154  -5.236  23.165  0.00  0.00    +0.145 A 
ATOM     19  C   UNL     1       5.225  -6.261  23.345  0.00  0.00    +0.094 A 
BRANCH  13  21
ATOM     20  C   UNL     1       2.706  -7.525  24.271  0.00  0.00    +0.277 C 
ATOM     21  O   UNL     1       3.995  -7.716  24.850  0.00  0.00    -0.494 OA
ENDBRANCH  13  21
BRANCH  18  22
ATOM     22  O   UNL     1       6.563  -4.799  21.926  0.00  0.00    -0.493 OA
ATOM     23  C   UNL     1       6.225  -5.670  20.847  0.00  0.00    +0.277 C 
ENDBRANCH  18  22
ENDBRANCH   1  17
BRANCH   9  24
ATOM     24  C   UNL     1       8.111   2.453  22.460  0.00  0.00    +0.121 C 
ATOM     25  N   UNL     1       7.712   3.511  22.197  0.00  0.00    -0.189 NA
ENDBRANCH   9  24
TORSDOF 4
ENDMDL
MODEL 2
REMARK VINA RESULT:      -6.4      4.652      8.627
REMARK  Name = 
REMARK  6 active torsions:
REMARK  status: ('A' for Active; 'I' for Inactive)
REMARK    1  A    between atoms: C_1  and  O_2
REMARK    2  A    between atoms: O_2  and  C_3
REMARK    3  A    between atoms: C_5  and  O_6
REMARK    4  A    between atoms: O_6  and  C_7
REMARK    5  A    between atoms: C_8  and  N_9
REMARK    6  A    between atoms: C_16  and  C_19
REMARK                            x       y       z     vdW  Elec       q    Type
REMARK                         _______ _______ _______ _____ _____    ______ ____
ROOT
ATOM      1  N   UNL     1       8.957   0.408  23.531  0.00  0.00    -0.266 N 
ATOM      2  H   UNL     1       9.256  -0.187  24.300  0.00  0.00    +0.156 HD
ATOM      3  C   UNL     1       8.935  -0.231  22.321  0.00  0.00    +0.309 C 
ATOM      4  N   UNL     1       8.783  -1.593  22.356  0.00  0.00    -0.253 N 
ATOM      5  H   UNL     1       8.827  -2.016  21.441  0.00  0.00    +0.158 HD
ATOM      6  C   UNL     1       8.532  -2.397  23.466  0.00  0.00    +0.144 A 
ATOM      7  C   UNL     1       8.358  -3.772  23.313  0.00  0.00    +0.156 A 
ATOM      8  N   UNL     1       8.102  -4.613  24.350  0.00  0.00    -0.240 NA
ATOM      9  C   UNL     1       8.004  -4.024  25.568  0.00  0.00    +0.158 A 
ATOM     10  C   UNL     1       8.170  -2.665  25.735  0.00  0.00    +0.151 A 
ATOM     11  N   UNL     1       8.452  -1.838  24.699  0.00  0.00    -0.236 NA
ATOM     12  O   UNL     1       9.077   0.316  21.229  0.00  0.00    -0.252 OA
ENDROOT
BRANCH   1  17
ATOM     13  C   UNL     1       9.604   4.526  24.036  0.00  0.00    +0.142 A 
ATOM     14  C   UNL     1      10.658   3.692  23.634  0.00  0.00    +0.084 A 
ATOM     15 CL   UNL     1      12.233   4.330  23.317  0.00  0.00    -0.080 Cl
ATOM     16  C   UNL     1      10.458   2.320  23.481  0.00  0.00    +0.050 A 
ATOM     17  C   UNL     1       9.190   1.780  23.694  0.00  0.00    +0.078 A 
ATOM     18  C   UNL     1       8.112   2.608  24.042  0.00  0.00    +0.145 A 
ATOM     19  C   UNL     1       8.323   3.979  24.197  0.00  0.00    +0.094 A 
BRANCH  13  21
ATOM     20  C   UNL     1       8.950   6.734  23.538  0.00  0.00    +0.277 C 
ATOM     21  O   UNL     1       9.857   5.861  24.208  0.00  0.00    -0.494 OA
ENDBRANCH  13  21
BRANCH  18  22
ATOM     22  O   UNL     1       6.889   2.008  24.231  0.00  0.00    -0.493 OA
ATOM     23  C   UNL     1       5.904   2.344  23.253  0.00  0.00    +0.277 C 
ENDBRANCH  18  22
ENDBRANCH   1  17
BRANCH   9  24
ATOM     24  C   UNL     1       7.732  -4.864  26.695  0.00  0.00    +0.121 C 
ATOM     25  N   UNL     1       7.506  -5.595  27.568  0.00  0.00    -0.189 NA
ENDBRANCH   9  24
TORSDOF 4
ENDMDL
MODEL 3
REMARK VINA RESULT:      -6.3      2.167      2.944
REMARK  Name = 
REMARK  6 active torsions:
REMARK  status: ('A' for Active; 'I' for Inactive)
REMARK    1  A    between atoms: C_1  and  O_2
REMARK    2  A    between atoms: O_2  and  C_3
REMARK    3  A    between atoms: C_5  and  O_6
REMARK    4  A    between atoms: O_6  and  C_7
REMARK    5  A    between atoms: C_8  and  N_9
REMARK    6  A    between atoms: C_16  and  C_19
REMARK                            x       y       z     vdW  Elec       q    Type
REMARK                         _______ _______ _______ _____ _____    ______ ____
ROOT
ATOM      1  N   UNL     1       8.232  -2.137  23.802  0.00  0.00    -0.266 N 
ATOM      2  H   UNL     1       7.886  -1.300  23.338  0.00  0.00    +0.156 HD
ATOM      3  C   UNL     1       9.595  -2.182  23.904  0.00  0.00    +0.309 C 
ATOM      4  N   UNL     1      10.245  -0.975  23.890  0.00  0.00    -0.253 N 
ATOM      5  H   UNL     1      11.250  -1.070  23.915  0.00  0.00    +0.158 HD
ATOM      6  C   UNL     1       9.683   0.300  23.900  0.00  0.00    +0.144 A 
ATOM      7  C   UNL     1      10.501   1.429  23.931  0.00  0.00    +0.156 A 
ATOM      8  N   UNL     1      10.020   2.700  23.952  0.00  0.00    -0.240 NA
ATOM      9  C   UNL     1       8.667   2.812  23.960  0.00  0.00    +0.158 A 
ATOM     10  C   UNL     1       7.846   1.704  23.934  0.00  0.00    +0.151 A 
ATOM     11  N   UNL     1       8.334   0.441  23.886  0.00  0.00    -0.236 NA
ATOM     12  O   UNL     1      10.266  -3.210  23.969  0.00  0.00    -0.252 OA
ENDROOT
BRANCH   1  17
ATOM     13  C   UNL     1       5.757  -5.522  23.584  0.00  0.00    +0.142 A 
ATOM     14  C   UNL     1       6.377  -5.028  22.426  0.00  0.00    +0.084 A 
ATOM     15 CL   UNL     1       6.160  -5.801  20.896  0.00  0.00    -0.080 Cl
ATOM     16  C   UNL     1       7.186  -3.893  22.485  0.00  0.00    +0.050 A 
ATOM     17  C   UNL     1       7.409  -3.268  23.711  0.00  0.00    +0.078 A 
ATOM     18  C   UNL     1       6.843  -3.783  24.887  0.00  0.00    +0.145 A 
ATOM     19  C   UNL     1       6.031  -4.915  24.818  0.00  0.00    +0.094 A 
BRANCH  13  21
ATOM     20  C   UNL     1       4.309  -7.022  24.684  0.00  0.00    +0.277 C 
ATOM     21  O   UNL     1       4.943  -6.618  23.472  0.00  0.00    -0.494 OA
ENDBRANCH  13  21
BRANCH  18  22
ATOM     22  O   UNL     1       7.110  -3.118  26.062  0.00  0.00    -0.493 OA
ATOM     23  C   UNL     1       6.302  -3.519  27.169  0.00  0.00    +0.277 C 
ENDBRANCH  18  22
ENDBRANCH   1  17
BRANCH   9  24
ATOM     24  C   UNL     1       8.107   4.129  23.985  0.00  0.00    +0.121 C 
ATOM     25  N   UNL     1       7.692   5.212  23.955  0.00  0.00    -0.189 NA
ENDBRANCH   9  24
TORSDOF 4
ENDMDL
MODEL 4
REMARK VINA RESULT:      -6.1      2.283      3.044
REMARK  Name = 
REMARK  6 active torsions:
REMARK  status: ('A' for Active; 'I' for Inactive)
REMARK    1  A    between atoms: C_1  and  O_2
REMARK    2  A    between atoms: O_2  and  C_3
REMARK    3  A    between atoms: C_5  and  O_6
REMARK    4  A    between atoms: O_6  and  C_7
REMARK    5  A    between atoms: C_8  and  N_9
REMARK    6  A    between atoms: C_16  and  C_19
REMARK                            x       y       z     vdW  Elec       q    Type
REMARK                         _______ _______ _______ _____ _____    ______ ____
ROOT
ATOM      1  N   UNL     1       7.583  -2.893  24.266  0.00  0.00    -0.266 N 
ATOM      2  H   UNL     1       7.459  -1.889  24.364  0.00  0.00    +0.156 HD
ATOM      3  C   UNL     1       7.805  -3.295  22.977  0.00  0.00    +0.309 C 
ATOM      4  N   UNL     1       8.344  -2.359  22.133  0.00  0.00    -0.253 N 
ATOM      5  H   UNL     1       8.436  -2.692  21.185  0.00  0.00    +0.158 HD
ATOM      6  C   UNL     1       8.803  -1.082  22.453  0.00  0.00    +0.144 A 
ATOM      7  C   UNL     1       9.369  -0.272  21.470  0.00  0.00    +0.156 A 
ATOM      8  N   UNL     1       9.845   0.977  21.714  0.00  0.00    -0.240 NA
ATOM      9  C   UNL     1       9.753   1.396  23.002  0.00  0.00    +0.158 A 
ATOM     10  C   UNL     1       9.197   0.604  23.986  0.00  0.00    +0.151 A 
ATOM     11  N   UNL     1       8.701  -0.631  23.728  0.00  0.00    -0.236 NA
ATOM     12  O   UNL     1       7.524  -4.403  22.522  0.00  0.00    -0.252 OA
ENDROOT
BRANCH   1  17
ATOM     13  C   UNL     1       5.766  -5.268  27.214  0.00  0.00    +0.142 A 
ATOM     14  C   UNL     1       4.982  -4.643  26.232  0.00  0.00    +0.084 A 
ATOM     15 CL   UNL     1       3.267  -4.847  26.193  0.00  0.00    -0.080 Cl
ATOM     16  C   UNL     1       5.574  -3.838  25.259  0.00  0.00    +0.050 A 
ATOM     17  C   UNL     1       6.961  -3.683  25.242  0.00  0.00    +0.078 A 
ATOM     18  C   UNL     1       7.763  -4.346  26.183  0.00  0.00    +0.145 A 
ATOM     19  C   UNL     1       7.162  -5.146  27.155  0.00  0.00    +0.094 A 
BRANCH  13  21
ATOM     20  C   UNL     1       5.931  -6.320  29.317  0.00  0.00    +0.277 C 
ATOM     21  O   UNL     1       5.137  -6.020  28.171  0.00  0.00    -0.494 OA
ENDBRANCH  13  21
BRANCH  18  22
ATOM     22  O   UNL     1       9.123  -4.152  26.103  0.00  0.00    -0.493 OA
ATOM     23  C   UNL     1       9.842  -5.225  25.493  0.00  0.00    +0.277 C 
ENDBRANCH  18  22
ENDBRANCH   1  17
BRANCH   9  24
ATOM     24  C   UNL     1      10.241   2.704  23.315  0.00  0.00    +0.121 C 
ATOM     25  N   UNL     1      10.625   3.752  23.632  0.00  0.00    -0.189 NA
ENDBRANCH   9  24
TORSDOF 4
ENDMDL
MODEL 5
REMARK VINA RESULT:      -6.0      4.087      7.888
REMARK  Name = 
REMARK  6 active torsions:
REMARK  status: ('A' for Active; 'I' for Inactive)
REMARK    1  A    between atoms: C_1  and  O_2
REMARK    2  A    between atoms: O_2  and  C_3
REMARK    3  A    between atoms: C_5  and  O_6
REMARK    4  A    between atoms: O_6  and  C_7
REMARK    5  A    between atoms: C_8  and  N_9
REMARK    6  A    between atoms: C_16  and  C_19
REMARK                            x       y       z     vdW  Elec       q    Type
REMARK                         _______ _______ _______ _____ _____    ______ ____
ROOT
ATOM      1  N   UNL     1       8.248  -0.354  24.895  0.00  0.00    -0.266 N 
ATOM      2  H   UNL     1       7.487  -0.728  24.334  0.00  0.00    +0.156 HD
ATOM      3  C   UNL     1       8.595  -1.153  25.950  0.00  0.00    +0.309 C 
ATOM      4  N   UNL     1       8.306  -2.487  25.822  0.00  0.00    -0.253 N 
ATOM      5  H   UNL     1       8.534  -3.019  26.649  0.00  0.00    +0.158 HD
ATOM      6  C   UNL     1       7.806  -3.150  24.703  0.00  0.00    +0.144 A 
ATOM      7  C   UNL     1       7.612  -4.531  24.733  0.00  0.00    +0.156 A 
ATOM      8  N   UNL     1       7.138  -5.242  23.676  0.00  0.00    -0.240 NA
ATOM      9  C   UNL     1       6.875  -4.520  22.558  0.00  0.00    +0.158 A 
ATOM     10  C   UNL     1       7.065  -3.154  22.513  0.00  0.00    +0.151 A 
ATOM     11  N   UNL     1       7.513  -2.449  23.580  0.00  0.00    -0.236 NA
ATOM     12  O   UNL     1       9.104  -0.760  26.998  0.00  0.00    -0.252 OA
ENDROOT
BRANCH   1  17
ATOM     13  C   UNL     1       8.699   3.820  24.819  0.00  0.00    +0.142 A 
ATOM     14  C   UNL     1       7.792   3.227  25.710  0.00  0.00    +0.084 A 
ATOM     15 CL   UNL     1       6.858   4.182  26.807  0.00  0.00    -0.080 Cl
ATOM     16  C   UNL     1       7.622   1.842  25.731  0.00  0.00    +0.050 A 
ATOM     17  C   UNL     1       8.387   1.041  24.883  0.00  0.00    +0.078 A 
ATOM     18  C   UNL     1       9.338   1.615  24.026  0.00  0.00    +0.145 A 
ATOM     19  C   UNL     1       9.497   3.000  24.009  0.00  0.00    +0.094 A 
BRANCH  13  21
ATOM     20  C   UNL     1      10.047   5.687  24.320  0.00  0.00    +0.277 C 
ATOM     21  O   UNL     1       8.805   5.186  24.809  0.00  0.00    -0.494 OA
ENDBRANCH  13  21
BRANCH  18  22
ATOM     22  O   UNL     1      10.060   0.763  23.222  0.00  0.00    -0.493 OA
ATOM     23  C   UNL     1       9.760   0.862  21.830  0.00  0.00    +0.277 C 
ENDBRANCH  18  22
ENDBRANCH   1  17
BRANCH   9  24
ATOM     24  C   UNL     1       6.375  -5.219  21.414  0.00  0.00    +0.121 C 
ATOM     25  N   UNL     1       5.979  -5.843  20.518  0.00  0.00    -0.189 NA
ENDBRANCH   9  24
TORSDOF 4
ENDMDL
MODEL 6
REMARK VINA RESULT:      -6.0      3.408      7.686
REMARK  Name = 
REMARK  6 active torsions:
REMARK  status: ('A' for Active; 'I' for Inactive)
REMARK    1  A    between atoms: C_1  and  O_2
REMARK    2  A    between atoms: O_2  and  C_3
REMARK    3  A    between atoms: C_5  and  O_6
REMARK    4  A    between atoms: O_6  and  C_7
REMARK    5  A    between atoms: C_8  and  N_9
REMARK    6  A    between atoms: C_16  and  C_19
REMARK                            x       y       z     vdW  Elec       q    Type
REMARK                         _______ _______ _______ _____ _____    ______ ____
ROOT
ATOM      1  N   UNL     1       6.747  -4.095  23.749  0.00  0.00    -0.266 N 
ATOM      2  H   UNL     1       6.665  -4.503  24.677  0.00  0.00    +0.156 HD
ATOM      3  C   UNL     1       6.395  -4.951  22.742  0.00  0.00    +0.309 C 
ATOM      4  N   UNL     1       5.526  -5.956  23.076  0.00  0.00    -0.253 N 
ATOM      5  H   UNL     1       5.342  -6.587  22.310  0.00  0.00    +0.158 HD
ATOM      6  C   UNL     1       4.864  -6.149  24.288  0.00  0.00    +0.144 A 
ATOM      7  C   UNL     1       3.972  -7.209  24.441  0.00  0.00    +0.156 A 
ATOM      8  N   UNL     1       3.287  -7.449  25.590  0.00  0.00    -0.240 NA
ATOM      9  C   UNL     1       3.511  -6.568  26.598  0.00  0.00    +0.158 A 
ATOM     10  C   UNL     1       4.389  -5.513  26.459  0.00  0.00    +0.151 A 
ATOM     11  N   UNL     1       5.088  -5.297  25.318  0.00  0.00    -0.236 NA
ATOM     12  O   UNL     1       6.825  -4.904  21.591  0.00  0.00    -0.252 OA
ENDROOT
BRANCH   1  17
ATOM     13  C   UNL     1       9.605  -1.042  23.365  0.00  0.00    +0.142 A 
ATOM     14  C   UNL     1       8.257  -0.786  23.069  0.00  0.00    +0.084 A 
ATOM     15 CL   UNL     1       7.734   0.782  22.563  0.00  0.00    -0.080 Cl
ATOM     16  C   UNL     1       7.303  -1.798  23.176  0.00  0.00    +0.050 A 
ATOM     17  C   UNL     1       7.688  -3.064  23.616  0.00  0.00    +0.078 A 
ATOM     18  C   UNL     1       9.021  -3.321  23.970  0.00  0.00    +0.145 A 
ATOM     19  C   UNL     1       9.969  -2.304  23.855  0.00  0.00    +0.094 A 
BRANCH  13  21
ATOM     20  C   UNL     1      10.897   0.622  24.420  0.00  0.00    +0.277 C 
ATOM     21  O   UNL     1      10.512  -0.027  23.210  0.00  0.00    -0.494 OA
ENDBRANCH  13  21
BRANCH  18  22
ATOM     22  O   UNL     1       9.327  -4.592  24.401  0.00  0.00    -0.493 OA
ATOM     23  C   UNL     1       9.406  -4.735  25.820  0.00  0.00    +0.277 C 
ENDBRANCH  18  22
ENDBRANCH   1  17
BRANCH   9  24
ATOM     24  C   UNL     1       2.813  -6.773  27.830  0.00  0.00    +0.121 C 
ATOM     25  N   UNL     1       2.196  -6.959  28.795  0.00  0.00    -0.189 NA
ENDBRANCH   9  24
TORSDOF 4
ENDMDL
MODEL 7
REMARK VINA RESULT:      -6.0      4.448      8.226
REMARK  Name = 
REMARK  6 active torsions:
REMARK  status: ('A' for Active; 'I' for Inactive)
REMARK    1  A    between atoms: C_1  and  O_2
REMARK    2  A    between atoms: O_2  and  C_3
REMARK    3  A    between atoms: C_5  and  O_6
REMARK    4  A    between atoms: O_6  and  C_7
REMARK    5  A    between atoms: C_8  and  N_9
REMARK    6  A    between atoms: C_16  and  C_19
REMARK                            x       y       z     vdW  Elec       q    Type
REMARK                         _______ _______ _______ _____ _____    ______ ____
ROOT
ATOM      1  N   UNL     1       8.877   0.200  23.880  0.00  0.00    -0.266 N 
ATOM      2  H   UNL     1       8.026  -0.280  23.597  0.00  0.00    +0.156 HD
ATOM      3  C   UNL     1       9.584  -0.464  24.845  0.00  0.00    +0.309 C 
ATOM      4  N   UNL     1       9.398  -1.820  24.909  0.00  0.00    -0.253 N 
ATOM      5  H   UNL     1       9.903  -2.250  25.670  0.00  0.00    +0.158 HD
ATOM      6  C   UNL     1       8.665  -2.625  24.039  0.00  0.00    +0.144 A 
ATOM      7  C   UNL     1       8.619  -4.006  24.230  0.00  0.00    +0.156 A 
ATOM      8  N   UNL     1       7.932  -4.850  23.415  0.00  0.00    -0.240 NA
ATOM      9  C   UNL     1       7.293  -4.263  22.372  0.00  0.00    +0.158 A 
ATOM     10  C   UNL     1       7.332  -2.899  22.169  0.00  0.00    +0.151 A 
ATOM     11  N   UNL     1       7.998  -2.062  23.002  0.00  0.00    -0.236 NA
ATOM     12  O   UNL     1      10.332   0.066  25.665  0.00  0.00    -0.252 OA
ENDROOT
BRANCH   1  17
ATOM     13  C   UNL     1       8.812   4.372  23.406  0.00  0.00    +0.142 A 
ATOM     14  C   UNL     1      10.035   3.699  23.547  0.00  0.00    +0.084 A 
ATOM     15 CL   UNL     1      11.537   4.553  23.509  0.00  0.00    -0.080 Cl
ATOM     16  C   UNL     1      10.066   2.315  23.723  0.00  0.00    +0.050 A 
ATOM     17  C   UNL     1       8.873   1.593  23.722  0.00  0.00    +0.078 A 
ATOM     18  C   UNL     1       7.646   2.244  23.526  0.00  0.00    +0.145 A 
ATOM     19  C   UNL     1       7.624   3.628  23.356  0.00  0.00    +0.094 A 
BRANCH  13  21
ATOM     20  C   UNL     1       7.775   6.272  22.476  0.00  0.00    +0.277 C 
ATOM     21  O   UNL     1       8.829   5.735  23.272  0.00  0.00    -0.494 OA
ENDBRANCH  13  21
BRANCH  18  22
ATOM     22  O   UNL     1       6.510   1.468  23.532  0.00  0.00    -0.493 OA
ATOM     23  C   UNL     1       5.650   1.680  24.652  0.00  0.00    +0.277 C 
ENDBRANCH  18  22
ENDBRANCH   1  17
BRANCH   9  24
ATOM     24  C   UNL     1       6.556  -5.107  21.481  0.00  0.00    +0.121 C 
ATOM     25  N   UNL     1       5.910  -5.746  20.760  0.00  0.00    -0.189 NA
ENDBRANCH   9  24
TORSDOF 4
ENDMDL
MODEL 8
REMARK VINA RESULT:      -6.0      3.487      7.645
REMARK  Name = 
REMARK  6 active torsions:
REMARK  status: ('A' for Active; 'I' for Inactive)
REMARK    1  A    between atoms: C_1  and  O_2
REMARK    2  A    between atoms: O_2  and  C_3
REMARK    3  A    between atoms: C_5  and  O_6
REMARK    4  A    between atoms: O_6  and  C_7
REMARK    5  A    between atoms: C_8  and  N_9
REMARK    6  A    between atoms: C_16  and  C_19
REMARK                            x       y       z     vdW  Elec       q    Type
REMARK                         _______ _______ _______ _____ _____    ______ ____
ROOT
ATOM      1  N   UNL     1       6.557  -2.723  23.877  0.00  0.00    -0.266 N 
ATOM      2  H   UNL     1       7.098  -3.213  24.585  0.00  0.00    +0.156 HD
ATOM      3  C   UNL     1       5.726  -3.541  23.161  0.00  0.00    +0.309 C 
ATOM      4  N   UNL     1       5.331  -4.698  23.779  0.00  0.00    -0.253 N 
ATOM      5  H   UNL     1       4.764  -5.286  23.186  0.00  0.00    +0.158 HD
ATOM      6  C   UNL     1       5.578  -5.094  25.092  0.00  0.00    +0.144 A 
ATOM      7  C   UNL     1       5.057  -6.294  25.574  0.00  0.00    +0.156 A 
ATOM      8  N   UNL     1       5.250  -6.735  26.845  0.00  0.00    -0.240 NA
ATOM      9  C   UNL     1       5.979  -5.915  27.643  0.00  0.00    +0.158 A 
ATOM     10  C   UNL     1       6.498  -4.723  27.181  0.00  0.00    +0.151 A 
ATOM     11  N   UNL     1       6.323  -4.304  25.904  0.00  0.00    -0.236 NA
ATOM     12  O   UNL     1       5.347  -3.330  22.010  0.00  0.00    -0.252 OA
ENDROOT
BRANCH   1  17
ATOM     13  C   UNL     1       8.318   0.776  22.366  0.00  0.00    +0.142 A 
ATOM     14  C   UNL     1       7.010   0.809  22.874  0.00  0.00    +0.084 A 
ATOM     15 CL   UNL     1       6.102   2.279  22.913  0.00  0.00    -0.080 Cl
ATOM     16  C   UNL     1       6.410  -0.351  23.361  0.00  0.00    +0.050 A 
ATOM     17  C   UNL     1       7.130  -1.546  23.377  0.00  0.00    +0.078 A 
ATOM     18  C   UNL     1       8.457  -1.584  22.925  0.00  0.00    +0.145 A 
ATOM     19  C   UNL     1       9.048  -0.419  22.434  0.00  0.00    +0.094 A 
BRANCH  13  21
ATOM     20  C   UNL     1      10.175   2.225  22.311  0.00  0.00    +0.277 C 
ATOM     21  O   UNL     1       8.853   1.933  21.864  0.00  0.00    -0.494 OA
ENDBRANCH  13  21
BRANCH  18  22
ATOM     22  O   UNL     1       9.108  -2.795  22.975  0.00  0.00    -0.493 OA
ATOM     23  C   UNL     1       9.816  -3.040  24.190  0.00  0.00    +0.277 C 
ENDBRANCH  18  22
ENDBRANCH   1  17
BRANCH   9  24
ATOM     24  C   UNL     1       6.211  -6.330  28.993  0.00  0.00    +0.121 C 
ATOM     25  N   UNL     1       6.364  -6.616  30.108  0.00  0.00    -0.189 NA
ENDBRANCH   9  24
TORSDOF 4
ENDMDL
MODEL 9
REMARK VINA RESULT:      -6.0      3.448      5.347
REMARK  Name = 
REMARK  6 active torsions:
REMARK  status: ('A' for Active; 'I' for Inactive)
REMARK    1  A    between atoms: C_1  and  O_2
REMARK    2  A    between atoms: O_2  and  C_3
REMARK    3  A    between atoms: C_5  and  O_6
REMARK    4  A    between atoms: O_6  and  C_7
REMARK    5  A    between atoms: C_8  and  N_9
REMARK    6  A    between atoms: C_16  and  C_19
REMARK                            x       y       z     vdW  Elec       q    Type
REMARK                         _______ _______ _______ _____ _____    ______ ____
ROOT
ATOM      1  N   UNL     1       8.238   0.707  23.921  0.00  0.00    -0.266 N 
ATOM      2  H   UNL     1       9.174   0.981  24.209  0.00  0.00    +0.156 HD
ATOM      3  C   UNL     1       7.289   1.662  24.164  0.00  0.00    +0.309 C 
ATOM      4  N   UNL     1       7.733   2.956  24.231  0.00  0.00    -0.253 N 
ATOM      5  H   UNL     1       7.002   3.612  24.463  0.00  0.00    +0.158 HD
ATOM      6  C   UNL     1       9.016   3.435  23.969  0.00  0.00    +0.144 A 
ATOM      7  C   UNL     1       9.285   4.801  24.042  0.00  0.00    +0.156 A 
ATOM      8  N   UNL     1      10.509   5.336  23.790  0.00  0.00    -0.240 NA
ATOM      9  C   UNL     1      11.473   4.449  23.438  0.00  0.00    +0.158 A 
ATOM     10  C   UNL     1      11.220   3.094  23.358  0.00  0.00    +0.151 A 
ATOM     11  N   UNL     1      10.004   2.567  23.637  0.00  0.00    -0.236 NA
ATOM     12  O   UNL     1       6.095   1.440  24.358  0.00  0.00    -0.252 OA
ENDROOT
BRANCH   1  17
ATOM     13  C   UNL     1       7.503  -3.428  23.921  0.00  0.00    +0.142 A 
ATOM     14  C   UNL     1       6.998  -2.623  22.888  0.00  0.00    +0.084 A 
ATOM     15 CL   UNL     1       6.086  -3.304  21.587  0.00  0.00    -0.080 Cl
ATOM     16  C   UNL     1       7.221  -1.246  22.889  0.00  0.00    +0.050 A 
ATOM     17  C   UNL     1       7.983  -0.671  23.906  0.00  0.00    +0.078 A 
ATOM     18  C   UNL     1       8.543  -1.470  24.915  0.00  0.00    +0.145 A 
ATOM     19  C   UNL     1       8.310  -2.845  24.908  0.00  0.00    +0.094 A 
BRANCH  13  21
ATOM     20  C   UNL     1       6.598  -5.273  25.073  0.00  0.00    +0.277 C 
ATOM     21  O   UNL     1       7.228  -4.769  23.897  0.00  0.00    -0.494 OA
ENDBRANCH  13  21
BRANCH  18  22
ATOM     22  O   UNL     1       9.288  -0.836  25.882  0.00  0.00    -0.493 OA
ATOM     23  C   UNL     1       8.638  -0.713  27.148  0.00  0.00    +0.277 C 
ENDBRANCH  18  22
ENDBRANCH   1  17
BRANCH   9  24
ATOM     24  C   UNL     1      12.781   4.959  23.159  0.00  0.00    +0.121 C 
ATOM     25  N   UNL     1      13.854   5.318  22.901  0.00  0.00    -0.189 NA
ENDBRANCH   9  24
TORSDOF 4
ENDMDL
