MODEL 1
REMARK VINA RESULT:      -7.6      0.000      0.000
REMARK  Name = 
REMARK  7 active torsions:
REMARK  status: ('A' for Active; 'I' for Inactive)
REMARK    1  A    between atoms: O_1  and  C_2
REMARK    2  A    between atoms: C_2  and  C_4
REMARK    3  A    between atoms: C_7  and  N_10
REMARK    4  A    between atoms: C_12  and  C_22
REMARK    5  A    between atoms: C_14  and  C_15
REMARK    6  A    between atoms: C_20  and  O_21
REMARK    7  A    between atoms: C_27  and  O_28
REMARK                            x       y       z     vdW  Elec       q    Type
REMARK                         _______ _______ _______ _____ _____    ______ ____
ROOT
ATOM      1  N   UNL     1       7.505  -2.640  25.191  0.00  0.00    -0.212 N 
ATOM      2  C   UNL     1       7.320  -2.868  23.824  0.00  0.00    +0.168 A 
ATOM      3  N   UNL     1       7.912  -1.896  23.166  0.00  0.00    -0.206 NA
ATOM      4  C   UNL     1       8.359  -1.013  24.119  0.00  0.00    +0.186 A 
ATOM      5  N   UNL     1       8.070  -1.405  25.370  0.00  0.00    -0.144 NA
ENDROOT
BRANCH   1   9
ATOM      6  C   UNL     1       6.168  -5.434  28.045  0.00  0.00    +0.059 A 
ATOM      7  C   UNL     1       7.412  -5.614  27.431  0.00  0.00    +0.017 A 
ATOM      8  C   UNL     1       7.935  -4.614  26.608  0.00  0.00    +0.028 A 
ATOM      9  C   UNL     1       7.185  -3.468  26.315  0.00  0.00    +0.068 A 
ATOM     10  C   UNL     1       6.020  -3.214  27.060  0.00  0.00    +0.028 A 
ATOM     11  C   UNL     1       5.502  -4.210  27.911  0.00  0.00    +0.017 A 
BRANCH   6  12
ATOM     12  C   UNL     1       5.564  -6.622  28.702  0.00  0.00    +0.337 C 
ATOM     13  O   UNL     1       5.567  -6.780  29.912  0.00  0.00    -0.245 OA
BRANCH  12  14
ATOM     14  O   UNL     1       4.994  -7.502  27.852  0.00  0.00    -0.477 OA
ATOM     15  H   UNL     1       5.000  -8.420  28.162  0.00  0.00    +0.295 HD
ENDBRANCH  12  14
ENDBRANCH   6  12
ENDBRANCH   1   9
BRANCH   2  16
ATOM     16  C   UNL     1       6.650  -3.973  23.119  0.00  0.00    +0.061 A 
ATOM     17  C   UNL     1       5.294  -4.306  23.231  0.00  0.00    +0.128 A 
ATOM     18  C   UNL     1       4.794  -5.484  22.669  0.00  0.00    +0.046 A 
ATOM     19  C   UNL     1       5.614  -6.274  21.864  0.00  0.00    +0.004 A 
ATOM     20  C   UNL     1       6.920  -5.872  21.605  0.00  0.00    +0.001 A 
ATOM     21  C   UNL     1       7.434  -4.742  22.239  0.00  0.00    +0.015 A 
BRANCH  17  22
ATOM     22  O   UNL     1       4.435  -3.467  23.887  0.00  0.00    -0.506 OA
ATOM     23  H   UNL     1       4.050  -2.837  23.253  0.00  0.00    +0.292 HD
ENDBRANCH  17  22
ENDBRANCH   2  16
BRANCH   4  24
ATOM     24  C   UNL     1       9.069   0.201  23.672  0.00  0.00    +0.062 A 
ATOM     25  C   UNL     1      10.048   0.888  24.400  0.00  0.00    +0.128 A 
ATOM     26  C   UNL     1      10.672   2.031  23.867  0.00  0.00    +0.046 A 
ATOM     27  C   UNL     1      10.335   2.502  22.598  0.00  0.00    +0.004 A 
ATOM     28  C   UNL     1       9.370   1.837  21.855  0.00  0.00    +0.001 A 
ATOM     29  C   UNL     1       8.748   0.705  22.389  0.00  0.00    +0.015 A 
BRANCH  25  30
ATOM     30  O   UNL     1      10.432   0.468  25.643  0.00  0.00    -0.506 OA
ATOM     31  H   UNL     1      10.119  -0.438  25.786  0.00  0.00    +0.292 HD
ENDBRANCH  25  30
ENDBRANCH   4  24
TORSDOF 7
ENDMDL
MODEL 2
REMARK VINA RESULT:      -7.2      1.550      1.800
REMARK  Name = 
REMARK  7 active torsions:
REMARK  status: ('A' for Active; 'I' for Inactive)
REMARK    1  A    between atoms: O_1  and  C_2
REMARK    2  A    between atoms: C_2  and  C_4
REMARK    3  A    between atoms: C_7  and  N_10
REMARK    4  A    between atoms: C_12  and  C_22
REMARK    5  A    between atoms: C_14  and  C_15
REMARK    6  A    between atoms: C_20  and  O_21
REMARK    7  A    between atoms: C_27  and  O_28
REMARK                            x       y       z     vdW  Elec       q    Type
REMARK                         _______ _______ _______ _____ _____    ______ ____
ROOT
ATOM      1  N   UNL     1       6.930  -2.429  25.175  0.00  0.00    -0.212 N 
ATOM      2  C   UNL     1       7.153  -2.671  23.816  0.00  0.00    +0.168 A 
ATOM      3  N   UNL     1       7.598  -1.560  23.272  0.00  0.00    -0.206 NA
ATOM      4  C   UNL     1       7.542  -0.608  24.261  0.00  0.00    +0.186 A 
ATOM      5  N   UNL     1       7.076  -1.090  25.424  0.00  0.00    -0.144 NA
ENDROOT
BRANCH   1   9
ATOM      6  C   UNL     1       5.754  -5.540  27.759  0.00  0.00    +0.059 A 
ATOM      7  C   UNL     1       7.110  -5.359  27.467  0.00  0.00    +0.017 A 
ATOM      8  C   UNL     1       7.525  -4.238  26.745  0.00  0.00    +0.028 A 
ATOM      9  C   UNL     1       6.586  -3.335  26.229  0.00  0.00    +0.068 A 
ATOM     10  C   UNL     1       5.252  -3.425  26.664  0.00  0.00    +0.028 A 
ATOM     11  C   UNL     1       4.834  -4.542  27.414  0.00  0.00    +0.017 A 
BRANCH   6  12
ATOM     12  C   UNL     1       5.354  -6.861  28.309  0.00  0.00    +0.337 C 
ATOM     13  O   UNL     1       6.102  -7.549  28.984  0.00  0.00    -0.245 OA
BRANCH  12  14
ATOM     14  O   UNL     1       4.088  -7.228  28.017  0.00  0.00    -0.477 OA
ATOM     15  H   UNL     1       3.589  -6.572  27.507  0.00  0.00    +0.295 HD
ENDBRANCH  12  14
ENDBRANCH   6  12
ENDBRANCH   1   9
BRANCH   2  16
ATOM     16  C   UNL     1       7.001  -3.904  23.026  0.00  0.00    +0.061 A 
ATOM     17  C   UNL     1       6.086  -4.094  21.983  0.00  0.00    +0.128 A 
ATOM     18  C   UNL     1       5.889  -5.359  21.420  0.00  0.00    +0.046 A 
ATOM     19  C   UNL     1       6.709  -6.422  21.795  0.00  0.00    +0.004 A 
ATOM     20  C   UNL     1       7.735  -6.214  22.711  0.00  0.00    +0.001 A 
ATOM     21  C   UNL     1       7.868  -4.970  23.328  0.00  0.00    +0.015 A 
BRANCH  17  22
ATOM     22  O   UNL     1       5.377  -3.033  21.490  0.00  0.00    -0.506 OA
ATOM     23  H   UNL     1       5.988  -2.404  21.067  0.00  0.00    +0.292 HD
ENDBRANCH  17  22
ENDBRANCH   2  16
BRANCH   4  24
ATOM     24  C   UNL     1       7.980   0.764  23.938  0.00  0.00    +0.062 A 
ATOM     25  C   UNL     1       7.317   1.653  23.082  0.00  0.00    +0.128 A 
ATOM     26  C   UNL     1       7.820   2.948  22.859  0.00  0.00    +0.046 A 
ATOM     27  C   UNL     1       8.986   3.379  23.490  0.00  0.00    +0.004 A 
ATOM     28  C   UNL     1       9.660   2.519  24.346  0.00  0.00    +0.001 A 
ATOM     29  C   UNL     1       9.161   1.231  24.562  0.00  0.00    +0.015 A 
BRANCH  25  30
ATOM     30  O   UNL     1       6.161   1.294  22.446  0.00  0.00    -0.506 OA
ATOM     31  H   UNL     1       5.466   1.143  23.104  0.00  0.00    +0.292 HD
ENDBRANCH  25  30
ENDBRANCH   4  24
TORSDOF 7
ENDMDL
MODEL 3
REMARK VINA RESULT:      -6.9      2.940      5.445
REMARK  Name = 
REMARK  7 active torsions:
REMARK  status: ('A' for Active; 'I' for Inactive)
REMARK    1  A    between atoms: O_1  and  C_2
REMARK    2  A    between atoms: C_2  and  C_4
REMARK    3  A    between atoms: C_7  and  N_10
REMARK    4  A    between atoms: C_12  and  C_22
REMARK    5  A    between atoms: C_14  and  C_15
REMARK    6  A    between atoms: C_20  and  O_21
REMARK    7  A    between atoms: C_27  and  O_28
REMARK                            x       y       z     vdW  Elec       q    Type
REMARK                         _______ _______ _______ _____ _____    ______ ____
ROOT
ATOM      1  N   UNL     1       5.191  -4.987  24.709  0.00  0.00    -0.212 N 
ATOM      2  C   UNL     1       5.803  -4.665  25.925  0.00  0.00    +0.168 A 
ATOM      3  N   UNL     1       6.789  -3.831  25.676  0.00  0.00    -0.206 NA
ATOM      4  C   UNL     1       6.858  -3.728  24.307  0.00  0.00    +0.186 A 
ATOM      5  N   UNL     1       5.935  -4.474  23.680  0.00  0.00    -0.144 NA
ENDROOT
BRANCH   1   9
ATOM      6  C   UNL     1       2.036  -7.449  23.397  0.00  0.00    +0.059 A 
ATOM      7  C   UNL     1       2.867  -7.884  24.436  0.00  0.00    +0.017 A 
ATOM      8  C   UNL     1       3.810  -7.013  24.986  0.00  0.00    +0.028 A 
ATOM      9  C   UNL     1       3.998  -5.733  24.448  0.00  0.00    +0.068 A 
ATOM     10  C   UNL     1       3.056  -5.243  23.526  0.00  0.00    +0.028 A 
ATOM     11  C   UNL     1       2.086  -6.112  22.987  0.00  0.00    +0.017 A 
BRANCH   6  12
ATOM     12  C   UNL     1       1.234  -8.486  22.698  0.00  0.00    +0.337 C 
ATOM     13  O   UNL     1       0.443  -9.212  23.279  0.00  0.00    -0.245 OA
BRANCH  12  14
ATOM     14  O   UNL     1       1.437  -8.546  21.365  0.00  0.00    -0.477 OA
ATOM     15  H   UNL     1       1.583  -9.441  21.022  0.00  0.00    +0.295 HD
ENDBRANCH  12  14
ENDBRANCH   6  12
ENDBRANCH   1   9
BRANCH   2  16
ATOM     16  C   UNL     1       5.478  -5.076  27.300  0.00  0.00    +0.061 A 
ATOM     17  C   UNL     1       6.311  -5.819  28.146  0.00  0.00    +0.128 A 
ATOM     18  C   UNL     1       5.838  -6.320  29.363  0.00  0.00    +0.046 A 
ATOM     19  C   UNL     1       4.568  -5.963  29.815  0.00  0.00    +0.004 A 
ATOM     20  C   UNL     1       3.787  -5.091  29.065  0.00  0.00    +0.001 A 
ATOM     21  C   UNL     1       4.234  -4.665  27.814  0.00  0.00    +0.015 A 
BRANCH  17  22
ATOM     22  O   UNL     1       7.611  -6.053  27.794  0.00  0.00    -0.506 OA
ATOM     23  H   UNL     1       7.789  -7.009  27.825  0.00  0.00    +0.292 HD
ENDBRANCH  17  22
ENDBRANCH   2  16
BRANCH   4  24
ATOM     24  C   UNL     1       7.891  -2.851  23.722  0.00  0.00    +0.062 A 
ATOM     25  C   UNL     1       9.275  -3.014  23.861  0.00  0.00    +0.128 A 
ATOM     26  C   UNL     1      10.171  -2.121  23.244  0.00  0.00    +0.046 A 
ATOM     27  C   UNL     1       9.701  -1.059  22.472  0.00  0.00    +0.004 A 
ATOM     28  C   UNL     1       8.335  -0.877  22.315  0.00  0.00    +0.001 A 
ATOM     29  C   UNL     1       7.446  -1.763  22.934  0.00  0.00    +0.015 A 
BRANCH  25  30
ATOM     30  O   UNL     1       9.796  -4.044  24.593  0.00  0.00    -0.506 OA
ATOM     31  H   UNL     1      10.030  -4.773  23.999  0.00  0.00    +0.292 HD
ENDBRANCH  25  30
ENDBRANCH   4  24
TORSDOF 7
ENDMDL
MODEL 4
REMARK VINA RESULT:      -6.9      1.798      7.099
REMARK  Name = 
REMARK  7 active torsions:
REMARK  status: ('A' for Active; 'I' for Inactive)
REMARK    1  A    between atoms: O_1  and  C_2
REMARK    2  A    between atoms: C_2  and  C_4
REMARK    3  A    between atoms: C_7  and  N_10
REMARK    4  A    between atoms: C_12  and  C_22
REMARK    5  A    between atoms: C_14  and  C_15
REMARK    6  A    between atoms: C_20  and  O_21
REMARK    7  A    between atoms: C_27  and  O_28
REMARK                            x       y       z     vdW  Elec       q    Type
REMARK                         _______ _______ _______ _____ _____    ______ ____
ROOT
ATOM      1  N   UNL     1       7.349  -3.571  25.895  0.00  0.00    -0.212 N 
ATOM      2  C   UNL     1       6.492  -4.327  25.087  0.00  0.00    +0.168 A 
ATOM      3  N   UNL     1       5.595  -4.892  25.864  0.00  0.00    -0.206 NA
ATOM      4  C   UNL     1       5.963  -4.583  27.152  0.00  0.00    +0.186 A 
ATOM      5  N   UNL     1       7.071  -3.828  27.211  0.00  0.00    -0.144 NA
ENDROOT
BRANCH   1   9
ATOM      6  C   UNL     1       9.949  -0.622  24.384  0.00  0.00    +0.059 A 
ATOM      7  C   UNL     1       9.268  -0.394  25.585  0.00  0.00    +0.017 A 
ATOM      8  C   UNL     1       8.533  -1.424  26.177  0.00  0.00    +0.028 A 
ATOM      9  C   UNL     1       8.393  -2.661  25.532  0.00  0.00    +0.068 A 
ATOM     10  C   UNL     1       9.208  -2.940  24.422  0.00  0.00    +0.028 A 
ATOM     11  C   UNL     1       9.972  -1.910  23.837  0.00  0.00    +0.017 A 
BRANCH   6  12
ATOM     12  C   UNL     1      10.503   0.569  23.689  0.00  0.00    +0.337 C 
ATOM     13  O   UNL     1      11.172   1.414  24.260  0.00  0.00    -0.245 OA
BRANCH  12  14
ATOM     14  O   UNL     1      10.221   0.627  22.370  0.00  0.00    -0.477 OA
ATOM     15  H   UNL     1      10.910   0.257  21.797  0.00  0.00    +0.295 HD
ENDBRANCH  12  14
ENDBRANCH   6  12
ENDBRANCH   1   9
BRANCH   2  16
ATOM     16  C   UNL     1       6.463  -4.504  23.627  0.00  0.00    +0.061 A 
ATOM     17  C   UNL     1       5.982  -3.568  22.703  0.00  0.00    +0.128 A 
ATOM     18  C   UNL     1       5.822  -3.904  21.355  0.00  0.00    +0.046 A 
ATOM     19  C   UNL     1       6.277  -5.136  20.887  0.00  0.00    +0.004 A 
ATOM     20  C   UNL     1       6.909  -6.016  21.759  0.00  0.00    +0.001 A 
ATOM     21  C   UNL     1       6.986  -5.707  23.116  0.00  0.00    +0.015 A 
BRANCH  17  22
ATOM     22  O   UNL     1       5.673  -2.300  23.110  0.00  0.00    -0.506 OA
ATOM     23  H   UNL     1       4.706  -2.188  23.118  0.00  0.00    +0.292 HD
ENDBRANCH  17  22
ENDBRANCH   2  16
BRANCH   4  24
ATOM     24  C   UNL     1       5.133  -5.095  28.259  0.00  0.00    +0.062 A 
ATOM     25  C   UNL     1       4.798  -6.438  28.476  0.00  0.00    +0.128 A 
ATOM     26  C   UNL     1       4.009  -6.814  29.579  0.00  0.00    +0.046 A 
ATOM     27  C   UNL     1       3.548  -5.860  30.485  0.00  0.00    +0.004 A 
ATOM     28  C   UNL     1       3.868  -4.523  30.295  0.00  0.00    +0.001 A 
ATOM     29  C   UNL     1       4.648  -4.151  29.196  0.00  0.00    +0.015 A 
BRANCH  25  30
ATOM     30  O   UNL     1       5.232  -7.421  27.631  0.00  0.00    -0.506 OA
ATOM     31  H   UNL     1       4.492  -7.721  27.082  0.00  0.00    +0.292 HD
ENDBRANCH  25  30
ENDBRANCH   4  24
TORSDOF 7
ENDMDL
MODEL 5
REMARK VINA RESULT:      -6.8      1.885      4.424
REMARK  Name = 
REMARK  7 active torsions:
REMARK  status: ('A' for Active; 'I' for Inactive)
REMARK    1  A    between atoms: O_1  and  C_2
REMARK    2  A    between atoms: C_2  and  C_4
REMARK    3  A    between atoms: C_7  and  N_10
REMARK    4  A    between atoms: C_12  and  C_22
REMARK    5  A    between atoms: C_14  and  C_15
REMARK    6  A    between atoms: C_20  and  O_21
REMARK    7  A    between atoms: C_27  and  O_28
REMARK                            x       y       z     vdW  Elec       q    Type
REMARK                         _______ _______ _______ _____ _____    ______ ____
ROOT
ATOM      1  N   UNL     1       6.518  -3.506  24.268  0.00  0.00    -0.212 N 
ATOM      2  C   UNL     1       6.918  -3.329  25.596  0.00  0.00    +0.168 A 
ATOM      3  N   UNL     1       7.749  -2.311  25.640  0.00  0.00    -0.206 NA
ATOM      4  C   UNL     1       7.950  -1.934  24.333  0.00  0.00    +0.186 A 
ATOM      5  N   UNL     1       7.261  -2.686  23.461  0.00  0.00    -0.144 NA
ENDROOT
BRANCH   1   9
ATOM      6  C   UNL     1       3.487  -6.263  23.295  0.00  0.00    +0.059 A 
ATOM      7  C   UNL     1       3.171  -4.907  23.430  0.00  0.00    +0.017 A 
ATOM      8  C   UNL     1       4.189  -3.966  23.591  0.00  0.00    +0.028 A 
ATOM      9  C   UNL     1       5.525  -4.374  23.712  0.00  0.00    +0.068 A 
ATOM     10  C   UNL     1       5.854  -5.707  23.409  0.00  0.00    +0.028 A 
ATOM     11  C   UNL     1       4.829  -6.655  23.220  0.00  0.00    +0.017 A 
BRANCH   6  12
ATOM     12  C   UNL     1       2.360  -7.229  23.372  0.00  0.00    +0.337 C 
ATOM     13  O   UNL     1       1.251  -6.985  22.926  0.00  0.00    -0.245 OA
BRANCH  12  14
ATOM     14  O   UNL     1       2.670  -8.404  23.960  0.00  0.00    -0.477 OA
ATOM     15  H   UNL     1       3.078  -9.053  23.366  0.00  0.00    +0.295 HD
ENDBRANCH  12  14
ENDBRANCH   6  12
ENDBRANCH   1   9
BRANCH   2  16
ATOM     16  C   UNL     1       6.525  -4.049  26.818  0.00  0.00    +0.061 A 
ATOM     17  C   UNL     1       7.125  -5.218  27.303  0.00  0.00    +0.128 A 
ATOM     18  C   UNL     1       6.561  -5.929  28.366  0.00  0.00    +0.046 A 
ATOM     19  C   UNL     1       5.467  -5.403  29.052  0.00  0.00    +0.004 A 
ATOM     20  C   UNL     1       4.958  -4.160  28.691  0.00  0.00    +0.001 A 
ATOM     21  C   UNL     1       5.474  -3.500  27.576  0.00  0.00    +0.015 A 
BRANCH  17  22
ATOM     22  O   UNL     1       8.288  -5.673  26.745  0.00  0.00    -0.506 OA
ATOM     23  H   UNL     1       9.028  -5.110  27.032  0.00  0.00    +0.292 HD
ENDBRANCH  17  22
ENDBRANCH   2  16
BRANCH   4  24
ATOM     24  C   UNL     1       8.856  -0.801  24.063  0.00  0.00    +0.062 A 
ATOM     25  C   UNL     1       9.524  -0.040  25.032  0.00  0.00    +0.128 A 
ATOM     26  C   UNL     1      10.379   1.012  24.657  0.00  0.00    +0.046 A 
ATOM     27  C   UNL     1      10.588   1.318  23.312  0.00  0.00    +0.004 A 
ATOM     28  C   UNL     1       9.942   0.577  22.333  0.00  0.00    +0.001 A 
ATOM     29  C   UNL     1       9.088  -0.465  22.708  0.00  0.00    +0.015 A 
BRANCH  25  30
ATOM     30  O   UNL     1       9.371  -0.300  26.365  0.00  0.00    -0.506 OA
ATOM     31  H   UNL     1       9.613  -1.222  26.541  0.00  0.00    +0.292 HD
ENDBRANCH  25  30
ENDBRANCH   4  24
TORSDOF 7
ENDMDL
MODEL 6
REMARK VINA RESULT:      -6.7      2.999      5.251
REMARK  Name = 
REMARK  7 active torsions:
REMARK  status: ('A' for Active; 'I' for Inactive)
REMARK    1  A    between atoms: O_1  and  C_2
REMARK    2  A    between atoms: C_2  and  C_4
REMARK    3  A    between atoms: C_7  and  N_10
REMARK    4  A    between atoms: C_12  and  C_22
REMARK    5  A    between atoms: C_14  and  C_15
REMARK    6  A    between atoms: C_20  and  O_21
REMARK    7  A    between atoms: C_27  and  O_28
REMARK                            x       y       z     vdW  Elec       q    Type
REMARK                         _______ _______ _______ _____ _____    ______ ____
ROOT
ATOM      1  N   UNL     1       8.729   0.148  24.136  0.00  0.00    -0.212 N 
ATOM      2  C   UNL     1       7.958   0.865  25.058  0.00  0.00    +0.168 A 
ATOM      3  N   UNL     1       8.325   2.125  25.003  0.00  0.00    -0.206 NA
ATOM      4  C   UNL     1       9.393   2.169  24.139  0.00  0.00    +0.186 A 
ATOM      5  N   UNL     1       9.709   0.964  23.639  0.00  0.00    -0.144 NA
ENDROOT
BRANCH   1   9
ATOM      6  C   UNL     1       7.833  -3.872  23.258  0.00  0.00    +0.059 A 
ATOM      7  C   UNL     1       7.489  -2.871  22.343  0.00  0.00    +0.017 A 
ATOM      8  C   UNL     1       7.923  -1.560  22.547  0.00  0.00    +0.028 A 
ATOM      9  C   UNL     1       8.625  -1.214  23.710  0.00  0.00    +0.068 A 
ATOM     10  C   UNL     1       9.112  -2.243  24.536  0.00  0.00    +0.028 A 
ATOM     11  C   UNL     1       8.696  -3.572  24.318  0.00  0.00    +0.017 A 
BRANCH   6  12
ATOM     12  C   UNL     1       7.142  -5.180  23.116  0.00  0.00    +0.337 C 
ATOM     13  O   UNL     1       6.358  -5.607  23.948  0.00  0.00    -0.245 OA
BRANCH  12  14
ATOM     14  O   UNL     1       7.438  -5.848  21.981  0.00  0.00    -0.477 OA
ATOM     15  H   UNL     1       7.147  -5.406  21.168  0.00  0.00    +0.295 HD
ENDBRANCH  12  14
ENDBRANCH   6  12
ENDBRANCH   1   9
BRANCH   2  16
ATOM     16  C   UNL     1       6.875   0.421  25.950  0.00  0.00    +0.061 A 
ATOM     17  C   UNL     1       6.735   0.773  27.298  0.00  0.00    +0.128 A 
ATOM     18  C   UNL     1       5.781   0.152  28.109  0.00  0.00    +0.046 A 
ATOM     19  C   UNL     1       4.857  -0.729  27.547  0.00  0.00    +0.004 A 
ATOM     20  C   UNL     1       4.875  -0.966  26.177  0.00  0.00    +0.001 A 
ATOM     21  C   UNL     1       5.883  -0.407  25.392  0.00  0.00    +0.015 A 
BRANCH  17  22
ATOM     22  O   UNL     1       7.529   1.748  27.837  0.00  0.00    -0.506 OA
ATOM     23  H   UNL     1       8.444   1.422  27.903  0.00  0.00    +0.292 HD
ENDBRANCH  17  22
ENDBRANCH   2  16
BRANCH   4  24
ATOM     24  C   UNL     1      10.032   3.474  23.880  0.00  0.00    +0.062 A 
ATOM     25  C   UNL     1       9.407   4.723  23.983  0.00  0.00    +0.128 A 
ATOM     26  C   UNL     1      10.120   5.909  23.725  0.00  0.00    +0.046 A 
ATOM     27  C   UNL     1      11.468   5.867  23.368  0.00  0.00    +0.004 A 
ATOM     28  C   UNL     1      12.112   4.643  23.262  0.00  0.00    +0.001 A 
ATOM     29  C   UNL     1      11.399   3.466  23.514  0.00  0.00    +0.015 A 
BRANCH  25  30
ATOM     30  O   UNL     1       8.092   4.830  24.343  0.00  0.00    -0.506 OA
ATOM     31  H   UNL     1       7.997   5.532  25.003  0.00  0.00    +0.292 HD
ENDBRANCH  25  30
ENDBRANCH   4  24
TORSDOF 7
ENDMDL
MODEL 7
REMARK VINA RESULT:      -6.7      3.166      8.052
REMARK  Name = 
REMARK  7 active torsions:
REMARK  status: ('A' for Active; 'I' for Inactive)
REMARK    1  A    between atoms: O_1  and  C_2
REMARK    2  A    between atoms: C_2  and  C_4
REMARK    3  A    between atoms: C_7  and  N_10
REMARK    4  A    between atoms: C_12  and  C_22
REMARK    5  A    between atoms: C_14  and  C_15
REMARK    6  A    between atoms: C_20  and  O_21
REMARK    7  A    between atoms: C_27  and  O_28
REMARK                            x       y       z     vdW  Elec       q    Type
REMARK                         _______ _______ _______ _____ _____    ______ ____
ROOT
ATOM      1  N   UNL     1       7.948  -0.139  23.570  0.00  0.00    -0.212 N 
ATOM      2  C   UNL     1       7.294  -0.603  24.716  0.00  0.00    +0.168 A 
ATOM      3  N   UNL     1       7.037  -1.882  24.548  0.00  0.00    -0.206 NA
ATOM      4  C   UNL     1       7.425  -2.178  23.264  0.00  0.00    +0.186 A 
ATOM      5  N   UNL     1       7.929  -1.118  22.612  0.00  0.00    -0.144 NA
ENDROOT
BRANCH   1   9
ATOM      6  C   UNL     1       9.599   3.734  23.469  0.00  0.00    +0.059 A 
ATOM      7  C   UNL     1      10.435   2.632  23.676  0.00  0.00    +0.017 A 
ATOM      8  C   UNL     1       9.926   1.337  23.550  0.00  0.00    +0.028 A 
ATOM      9  C   UNL     1       8.562   1.128  23.309  0.00  0.00    +0.068 A 
ATOM     10  C   UNL     1       7.766   2.226  22.936  0.00  0.00    +0.028 A 
ATOM     11  C   UNL     1       8.283   3.532  23.037  0.00  0.00    +0.017 A 
BRANCH   6  12
ATOM     12  C   UNL     1      10.135   5.066  23.854  0.00  0.00    +0.337 C 
ATOM     13  O   UNL     1       9.711   5.697  24.809  0.00  0.00    -0.245 OA
BRANCH  12  14
ATOM     14  O   UNL     1      11.140   5.511  23.073  0.00  0.00    -0.477 OA
ATOM     15  H   UNL     1      11.534   4.834  22.502  0.00  0.00    +0.295 HD
ENDBRANCH  12  14
ENDBRANCH   6  12
ENDBRANCH   1   9
BRANCH   2  16
ATOM     16  C   UNL     1       6.939   0.092  25.964  0.00  0.00    +0.061 A 
ATOM     17  C   UNL     1       7.698   0.089  27.141  0.00  0.00    +0.128 A 
ATOM     18  C   UNL     1       7.186   0.621  28.328  0.00  0.00    +0.046 A 
ATOM     19  C   UNL     1       5.964   1.294  28.319  0.00  0.00    +0.004 A 
ATOM     20  C   UNL     1       5.272   1.452  27.123  0.00  0.00    +0.001 A 
ATOM     21  C   UNL     1       5.750   0.844  25.963  0.00  0.00    +0.015 A 
BRANCH  17  22
ATOM     22  O   UNL     1       8.964  -0.428  27.139  0.00  0.00    -0.506 OA
ATOM     23  H   UNL     1       9.464  -0.058  26.391  0.00  0.00    +0.292 HD
ENDBRANCH  17  22
ENDBRANCH   2  16
BRANCH   4  24
ATOM     24  C   UNL     1       7.250  -3.561  22.780  0.00  0.00    +0.062 A 
ATOM     25  C   UNL     1       7.949  -4.683  23.243  0.00  0.00    +0.128 A 
ATOM     26  C   UNL     1       7.687  -5.962  22.718  0.00  0.00    +0.046 A 
ATOM     27  C   UNL     1       6.721  -6.143  21.729  0.00  0.00    +0.004 A 
ATOM     28  C   UNL     1       6.011  -5.049  21.256  0.00  0.00    +0.001 A 
ATOM     29  C   UNL     1       6.276  -3.778  21.775  0.00  0.00    +0.015 A 
BRANCH  25  30
ATOM     30  O   UNL     1       8.898  -4.572  24.221  0.00  0.00    -0.506 OA
ATOM     31  H   UNL     1       8.765  -5.272  24.878  0.00  0.00    +0.292 HD
ENDBRANCH  25  30
ENDBRANCH   4  24
TORSDOF 7
ENDMDL
MODEL 8
REMARK VINA RESULT:      -6.6      2.880      8.103
REMARK  Name = 
REMARK  7 active torsions:
REMARK  status: ('A' for Active; 'I' for Inactive)
REMARK    1  A    between atoms: O_1  and  C_2
REMARK    2  A    between atoms: C_2  and  C_4
REMARK    3  A    between atoms: C_7  and  N_10
REMARK    4  A    between atoms: C_12  and  C_22
REMARK    5  A    between atoms: C_14  and  C_15
REMARK    6  A    between atoms: C_20  and  O_21
REMARK    7  A    between atoms: C_27  and  O_28
REMARK                            x       y       z     vdW  Elec       q    Type
REMARK                         _______ _______ _______ _____ _____    ______ ____
ROOT
ATOM      1  N   UNL     1       7.872  -0.618  23.300  0.00  0.00    -0.212 N 
ATOM      2  C   UNL     1       6.616  -0.484  23.902  0.00  0.00    +0.168 A 
ATOM      3  N   UNL     1       6.021  -1.655  23.867  0.00  0.00    -0.206 NA
ATOM      4  C   UNL     1       6.853  -2.479  23.148  0.00  0.00    +0.186 A 
ATOM      5  N   UNL     1       7.967  -1.859  22.729  0.00  0.00    -0.144 NA
ENDROOT
BRANCH   1   9
ATOM      6  C   UNL     1      10.576   2.609  23.178  0.00  0.00    +0.059 A 
ATOM      7  C   UNL     1      10.459   1.849  24.346  0.00  0.00    +0.017 A 
ATOM      8  C   UNL     1       9.689   0.683  24.346  0.00  0.00    +0.028 A 
ATOM      9  C   UNL     1       8.955   0.313  23.211  0.00  0.00    +0.068 A 
ATOM     10  C   UNL     1       9.207   0.979  21.998  0.00  0.00    +0.028 A 
ATOM     11  C   UNL     1      10.003   2.141  21.989  0.00  0.00    +0.017 A 
BRANCH   6  12
ATOM     12  C   UNL     1      11.200   3.951  23.307  0.00  0.00    +0.337 C 
ATOM     13  O   UNL     1      12.397   4.109  23.482  0.00  0.00    -0.245 OA
BRANCH  12  14
ATOM     14  O   UNL     1      10.335   4.982  23.197  0.00  0.00    -0.477 OA
ATOM     15  H   UNL     1      10.203   5.298  22.290  0.00  0.00    +0.295 HD
ENDBRANCH  12  14
ENDBRANCH   6  12
ENDBRANCH   1   9
BRANCH   2  16
ATOM     16  C   UNL     1       5.978   0.681  24.535  0.00  0.00    +0.061 A 
ATOM     17  C   UNL     1       5.654   1.882  23.892  0.00  0.00    +0.128 A 
ATOM     18  C   UNL     1       5.223   2.995  24.619  0.00  0.00    +0.046 A 
ATOM     19  C   UNL     1       4.973   2.878  25.986  0.00  0.00    +0.004 A 
ATOM     20  C   UNL     1       5.130   1.648  26.614  0.00  0.00    +0.001 A 
ATOM     21  C   UNL     1       5.641   0.566  25.897  0.00  0.00    +0.015 A 
BRANCH  17  22
ATOM     22  O   UNL     1       5.744   1.975  22.530  0.00  0.00    -0.506 OA
ATOM     23  H   UNL     1       5.121   2.651  22.209  0.00  0.00    +0.292 HD
ENDBRANCH  17  22
ENDBRANCH   2  16
BRANCH   4  24
ATOM     24  C   UNL     1       6.439  -3.879  22.934  0.00  0.00    +0.062 A 
ATOM     25  C   UNL     1       5.395  -4.533  23.601  0.00  0.00    +0.128 A 
ATOM     26  C   UNL     1       5.077  -5.871  23.304  0.00  0.00    +0.046 A 
ATOM     27  C   UNL     1       5.789  -6.576  22.334  0.00  0.00    +0.004 A 
ATOM     28  C   UNL     1       6.825  -5.950  21.655  0.00  0.00    +0.001 A 
ATOM     29  C   UNL     1       7.143  -4.622  21.956  0.00  0.00    +0.015 A 
BRANCH  25  30
ATOM     30  O   UNL     1       4.651  -3.891  24.552  0.00  0.00    -0.506 OA
ATOM     31  H   UNL     1       5.191  -3.205  24.971  0.00  0.00    +0.292 HD
ENDBRANCH  25  30
ENDBRANCH   4  24
TORSDOF 7
ENDMDL
MODEL 9
REMARK VINA RESULT:      -6.5      3.741      8.455
REMARK  Name = 
REMARK  7 active torsions:
REMARK  status: ('A' for Active; 'I' for Inactive)
REMARK    1  A    between atoms: O_1  and  C_2
REMARK    2  A    between atoms: C_2  and  C_4
REMARK    3  A    between atoms: C_7  and  N_10
REMARK    4  A    between atoms: C_12  and  C_22
REMARK    5  A    between atoms: C_14  and  C_15
REMARK    6  A    between atoms: C_20  and  O_21
REMARK    7  A    between atoms: C_27  and  O_28
REMARK                            x       y       z     vdW  Elec       q    Type
REMARK                         _______ _______ _______ _____ _____    ______ ____
ROOT
ATOM      1  N   UNL     1       8.661   1.328  24.096  0.00  0.00    -0.212 N 
ATOM      2  C   UNL     1       7.290   1.069  24.205  0.00  0.00    +0.168 A 
ATOM      3  N   UNL     1       7.142  -0.169  24.619  0.00  0.00    -0.206 NA
ATOM      4  C   UNL     1       8.405  -0.708  24.656  0.00  0.00    +0.186 A 
ATOM      5  N   UNL     1       9.355   0.162  24.280  0.00  0.00    -0.144 NA
ENDROOT
BRANCH   1   9
ATOM      6  C   UNL     1      11.042   4.796  23.888  0.00  0.00    +0.059 A 
ATOM      7  C   UNL     1      11.398   3.667  23.141  0.00  0.00    +0.017 A 
ATOM      8  C   UNL     1      10.532   2.572  23.076  0.00  0.00    +0.028 A 
ATOM      9  C   UNL     1       9.348   2.554  23.826  0.00  0.00    +0.068 A 
ATOM     10  C   UNL     1       8.915   3.746  24.434  0.00  0.00    +0.028 A 
ATOM     11  C   UNL     1       9.775   4.861  24.480  0.00  0.00    +0.017 A 
BRANCH   6  12
ATOM     12  C   UNL     1      12.101   5.813  24.115  0.00  0.00    +0.337 C 
ATOM     13  O   UNL     1      11.903   6.844  24.736  0.00  0.00    -0.245 OA
BRANCH  12  14
ATOM     14  O   UNL     1      13.304   5.494  23.593  0.00  0.00    -0.477 OA
ATOM     15  H   UNL     1      13.565   6.031  22.829  0.00  0.00    +0.295 HD
ENDBRANCH  12  14
ENDBRANCH   6  12
ENDBRANCH   1   9
BRANCH   2  16
ATOM     16  C   UNL     1       6.129   1.943  23.973  0.00  0.00    +0.061 A 
ATOM     17  C   UNL     1       5.141   2.251  24.916  0.00  0.00    +0.128 A 
ATOM     18  C   UNL     1       3.981   2.938  24.544  0.00  0.00    +0.046 A 
ATOM     19  C   UNL     1       3.860   3.452  23.254  0.00  0.00    +0.004 A 
ATOM     20  C   UNL     1       4.905   3.299  22.349  0.00  0.00    +0.001 A 
ATOM     21  C   UNL     1       6.020   2.540  22.703  0.00  0.00    +0.015 A 
BRANCH  17  22
ATOM     22  O   UNL     1       5.308   1.892  26.225  0.00  0.00    -0.506 OA
ATOM     23  H   UNL     1       4.473   1.530  26.570  0.00  0.00    +0.292 HD
ENDBRANCH  17  22
ENDBRANCH   2  16
BRANCH   4  24
ATOM     24  C   UNL     1       8.556  -2.112  25.085  0.00  0.00    +0.062 A 
ATOM     25  C   UNL     1       9.430  -3.049  24.519  0.00  0.00    +0.128 A 
ATOM     26  C   UNL     1       9.501  -4.362  25.021  0.00  0.00    +0.046 A 
ATOM     27  C   UNL     1       8.710  -4.758  26.099  0.00  0.00    +0.004 A 
ATOM     28  C   UNL     1       7.839  -3.848  26.681  0.00  0.00    +0.001 A 
ATOM     29  C   UNL     1       7.766  -2.545  26.177  0.00  0.00    +0.015 A 
BRANCH  25  30
ATOM     30  O   UNL     1      10.241  -2.718  23.470  0.00  0.00    -0.506 OA
ATOM     31  H   UNL     1      10.825  -3.464  23.268  0.00  0.00    +0.292 HD
ENDBRANCH  25  30
ENDBRANCH   4  24
TORSDOF 7
ENDMDL
