MODEL 1
REMARK VINA RESULT:      -7.6      0.000      0.000
REMARK  Name = 
REMARK  6 active torsions:
REMARK  status: ('A' for Active; 'I' for Inactive)
REMARK    1  A    between atoms: C_4  and  O_5
REMARK    2  A    between atoms: O_5  and  C_6
REMARK    3  A    between atoms: C_11  and  O_12
REMARK    4  A    between atoms: O_12  and  C_13
REMARK    5  A    between atoms: C_13  and  C_14
REMARK    6  A    between atoms: C_25  and  C_27
REMARK                            x       y       z     vdW  Elec       q    Type
REMARK                         _______ _______ _______ _____ _____    ______ ____
ROOT
ATOM      1  C   UNL     1       8.592  -0.080  23.807  0.00  0.00    +0.150 A 
ATOM      2  C   UNL     1       8.363  -0.671  25.052  0.00  0.00    +0.093 A 
ATOM      3  C   UNL     1       8.774  -1.986  25.296  0.00  0.00    +0.125 A 
ATOM      4  C   UNL     1       9.472  -2.693  24.313  0.00  0.00    +0.047 A 
ATOM      5  C   UNL     1       9.712  -2.109  23.069  0.00  0.00    +0.027 A 
ATOM      6  C   UNL     1       9.258  -0.813  22.813  0.00  0.00    +0.083 A 
ATOM      7 CL   UNL     1       9.512  -0.159  21.234  0.00  0.00    -0.080 Cl
ENDROOT
BRANCH   1   8
ATOM      8  O   UNL     1       8.072   1.138  23.436  0.00  0.00    -0.454 OA
BRANCH   8  14
ATOM      9 CL   UNL     1       7.087   5.721  25.239  0.00  0.00    -0.083 Cl
ATOM     10  C   UNL     1       8.191   4.568  24.596  0.00  0.00    +0.046 A 
ATOM     11  C   UNL     1       9.493   4.952  24.289  0.00  0.00    +0.039 A 
ATOM     12  C   UNL     1      10.385   4.012  23.751  0.00  0.00    +0.057 A 
ATOM     13  C   UNL     1       9.959   2.699  23.507  0.00  0.00    +0.065 A 
ATOM     14  C   UNL     1       8.646   2.330  23.803  0.00  0.00    +0.131 A 
ATOM     15  C   UNL     1       7.765   3.265  24.354  0.00  0.00    +0.066 A 
BRANCH  12  16
ATOM     16  C   UNL     1      11.718   4.412  23.410  0.00  0.00    +0.099 C 
ATOM     17  N   UNL     1      12.790   4.765  23.134  0.00  0.00    -0.191 NA
ENDBRANCH  12  16
ENDBRANCH   8  14
ENDBRANCH   1   8
BRANCH   3  18
ATOM     18  O   UNL     1       8.541  -2.675  26.455  0.00  0.00    -0.486 OA
BRANCH  18  19
ATOM     19  C   UNL     1       8.842  -4.084  26.424  0.00  0.00    +0.286 C 
BRANCH  19  20
ATOM     20  C   UNL     1       7.629  -4.958  26.520  0.00  0.00    +0.109 A 
ATOM     21  C   UNL     1       6.706  -5.284  25.489  0.00  0.00    +0.045 A 
ATOM     22  C   UNL     1       5.815  -6.161  26.086  0.00  0.00    +0.156 A 
ATOM     23  N   UNL     1       4.764  -6.779  25.518  0.00  0.00    -0.236 NA
ATOM     24  C   UNL     1       4.624  -6.466  24.208  0.00  0.00    +0.113 A 
ATOM     25  C   UNL     1       5.438  -5.600  23.488  0.00  0.00    +0.020 A 
ATOM     26  N   UNL     1       6.222  -6.289  27.377  0.00  0.00    -0.260 N 
ATOM     27  H   UNL     1       5.780  -6.852  28.095  0.00  0.00    +0.191 HD
ATOM     28  C   UNL     1       6.512  -4.982  24.134  0.00  0.00    +0.015 A 
ATOM     29  N   UNL     1       7.337  -5.587  27.674  0.00  0.00    -0.173 NA
ENDBRANCH  19  20
ENDBRANCH  18  19
ENDBRANCH   3  18
TORSDOF 6
ENDMDL
MODEL 2
REMARK VINA RESULT:      -7.3      1.873      2.275
REMARK  Name = 
REMARK  6 active torsions:
REMARK  status: ('A' for Active; 'I' for Inactive)
REMARK    1  A    between atoms: C_4  and  O_5
REMARK    2  A    between atoms: O_5  and  C_6
REMARK    3  A    between atoms: C_11  and  O_12
REMARK    4  A    between atoms: O_12  and  C_13
REMARK    5  A    between atoms: C_13  and  C_14
REMARK    6  A    between atoms: C_25  and  C_27
REMARK                            x       y       z     vdW  Elec       q    Type
REMARK                         _______ _______ _______ _____ _____    ______ ____
ROOT
ATOM      1  C   UNL     1       9.792  -0.476  23.815  0.00  0.00    +0.150 A 
ATOM      2  C   UNL     1       9.531  -1.138  25.017  0.00  0.00    +0.093 A 
ATOM      3  C   UNL     1       8.609  -2.189  25.057  0.00  0.00    +0.125 A 
ATOM      4  C   UNL     1       7.990  -2.620  23.882  0.00  0.00    +0.047 A 
ATOM      5  C   UNL     1       8.249  -1.970  22.675  0.00  0.00    +0.027 A 
ATOM      6  C   UNL     1       9.135  -0.890  22.647  0.00  0.00    +0.083 A 
ATOM      7 CL   UNL     1       9.369  -0.068  21.145  0.00  0.00    -0.080 Cl
ENDROOT
BRANCH   1   8
ATOM      8  O   UNL     1      10.553   0.668  23.727  0.00  0.00    -0.454 OA
BRANCH   8  14
ATOM      9 CL   UNL     1      11.550   5.573  23.315  0.00  0.00    -0.083 Cl
ATOM     10  C   UNL     1      10.502   4.290  23.780  0.00  0.00    +0.046 A 
ATOM     11  C   UNL     1       9.327   4.571  24.471  0.00  0.00    +0.039 A 
ATOM     12  C   UNL     1       8.484   3.521  24.862  0.00  0.00    +0.057 A 
ATOM     13  C   UNL     1       8.833   2.194  24.574  0.00  0.00    +0.065 A 
ATOM     14  C   UNL     1      10.022   1.923  23.896  0.00  0.00    +0.131 A 
ATOM     15  C   UNL     1      10.853   2.974  23.493  0.00  0.00    +0.066 A 
BRANCH  12  16
ATOM     16  C   UNL     1       7.287   3.807  25.597  0.00  0.00    +0.099 C 
ATOM     17  N   UNL     1       6.313   4.062  26.177  0.00  0.00    -0.191 NA
ENDBRANCH  12  16
ENDBRANCH   8  14
ENDBRANCH   1   8
BRANCH   3  18
ATOM     18  O   UNL     1       8.235  -2.858  26.192  0.00  0.00    -0.486 OA
BRANCH  18  19
ATOM     19  C   UNL     1       8.560  -4.261  26.234  0.00  0.00    +0.286 C 
BRANCH  19  20
ATOM     20  C   UNL     1       7.393  -5.138  26.567  0.00  0.00    +0.109 A 
ATOM     21  C   UNL     1       6.334  -5.542  25.708  0.00  0.00    +0.045 A 
ATOM     22  C   UNL     1       5.558  -6.385  26.487  0.00  0.00    +0.156 A 
ATOM     23  N   UNL     1       4.447  -7.049  26.124  0.00  0.00    -0.236 NA
ATOM     24  C   UNL     1       4.109  -6.828  24.831  0.00  0.00    +0.113 A 
ATOM     25  C   UNL     1       4.792  -6.006  23.942  0.00  0.00    +0.020 A 
ATOM     26  N   UNL     1       6.153  -6.420  27.710  0.00  0.00    -0.260 N 
ATOM     27  H   UNL     1       5.832  -6.936  28.521  0.00  0.00    +0.191 HD
ATOM     28  C   UNL     1       5.937  -5.335  24.380  0.00  0.00    +0.015 A 
ATOM     29  N   UNL     1       7.286  -5.688  27.791  0.00  0.00    -0.173 NA
ENDBRANCH  19  20
ENDBRANCH  18  19
ENDBRANCH   3  18
TORSDOF 6
ENDMDL
MODEL 3
REMARK VINA RESULT:      -7.1      2.066      2.582
REMARK  Name = 
REMARK  6 active torsions:
REMARK  status: ('A' for Active; 'I' for Inactive)
REMARK    1  A    between atoms: C_4  and  O_5
REMARK    2  A    between atoms: O_5  and  C_6
REMARK    3  A    between atoms: C_11  and  O_12
REMARK    4  A    between atoms: O_12  and  C_13
REMARK    5  A    between atoms: C_13  and  C_14
REMARK    6  A    between atoms: C_25  and  C_27
REMARK                            x       y       z     vdW  Elec       q    Type
REMARK                         _______ _______ _______ _____ _____    ______ ____
ROOT
ATOM      1  C   UNL     1       9.573   0.207  24.520  0.00  0.00    +0.150 A 
ATOM      2  C   UNL     1       9.173  -0.535  25.633  0.00  0.00    +0.093 A 
ATOM      3  C   UNL     1       8.892  -1.900  25.507  0.00  0.00    +0.125 A 
ATOM      4  C   UNL     1       9.071  -2.539  24.278  0.00  0.00    +0.047 A 
ATOM      5  C   UNL     1       9.478  -1.808  23.162  0.00  0.00    +0.027 A 
ATOM      6  C   UNL     1       9.711  -0.436  23.280  0.00  0.00    +0.083 A 
ATOM      7 CL   UNL     1      10.141   0.443  21.856  0.00  0.00    -0.080 Cl
ENDROOT
BRANCH   1   8
ATOM      8  O   UNL     1       9.702   1.577  24.526  0.00  0.00    -0.454 OA
BRANCH   8  14
ATOM      9 CL   UNL     1       8.674   6.286  23.113  0.00  0.00    -0.083 Cl
ATOM     10  C   UNL     1       8.158   4.694  23.515  0.00  0.00    +0.046 A 
ATOM     11  C   UNL     1       6.799   4.413  23.621  0.00  0.00    +0.039 A 
ATOM     12  C   UNL     1       6.383   3.119  23.964  0.00  0.00    +0.057 A 
ATOM     13  C   UNL     1       7.332   2.119  24.217  0.00  0.00    +0.065 A 
ATOM     14  C   UNL     1       8.693   2.417  24.123  0.00  0.00    +0.131 A 
ATOM     15  C   UNL     1       9.104   3.704  23.765  0.00  0.00    +0.066 A 
BRANCH  12  16
ATOM     16  C   UNL     1       4.985   2.834  24.100  0.00  0.00    +0.099 C 
ATOM     17  N   UNL     1       3.852   2.588  24.187  0.00  0.00    -0.191 NA
ENDBRANCH  12  16
ENDBRANCH   8  14
ENDBRANCH   1   8
BRANCH   3  18
ATOM     18  O   UNL     1       8.433  -2.700  26.519  0.00  0.00    -0.486 OA
BRANCH  18  19
ATOM     19  C   UNL     1       8.744  -4.102  26.407  0.00  0.00    +0.286 C 
BRANCH  19  20
ATOM     20  C   UNL     1       7.551  -4.995  26.552  0.00  0.00    +0.109 A 
ATOM     21  C   UNL     1       6.579  -5.320  25.565  0.00  0.00    +0.045 A 
ATOM     22  C   UNL     1       5.733  -6.218  26.195  0.00  0.00    +0.156 A 
ATOM     23  N   UNL     1       4.662  -6.843  25.673  0.00  0.00    -0.236 NA
ATOM     24  C   UNL     1       4.450  -6.514  24.376  0.00  0.00    +0.113 A 
ATOM     25  C   UNL     1       5.215  -5.626  23.628  0.00  0.00    +0.020 A 
ATOM     26  N   UNL     1       6.207  -6.358  27.461  0.00  0.00    -0.260 N 
ATOM     27  H   UNL     1       5.811  -6.937  28.192  0.00  0.00    +0.191 HD
ATOM     28  C   UNL     1       6.312  -5.002  24.227  0.00  0.00    +0.015 A 
ATOM     29  N   UNL     1       7.327  -5.644  27.710  0.00  0.00    -0.173 NA
ENDBRANCH  19  20
ENDBRANCH  18  19
ENDBRANCH   3  18
TORSDOF 6
ENDMDL
MODEL 4
REMARK VINA RESULT:      -7.1      2.998      3.530
REMARK  Name = 
REMARK  6 active torsions:
REMARK  status: ('A' for Active; 'I' for Inactive)
REMARK    1  A    between atoms: C_4  and  O_5
REMARK    2  A    between atoms: O_5  and  C_6
REMARK    3  A    between atoms: C_11  and  O_12
REMARK    4  A    between atoms: O_12  and  C_13
REMARK    5  A    between atoms: C_13  and  C_14
REMARK    6  A    between atoms: C_25  and  C_27
REMARK                            x       y       z     vdW  Elec       q    Type
REMARK                         _______ _______ _______ _____ _____    ______ ____
ROOT
ATOM      1  C   UNL     1       9.740   0.731  24.269  0.00  0.00    +0.150 A 
ATOM      2  C   UNL     1       9.445  -0.370  25.077  0.00  0.00    +0.093 A 
ATOM      3  C   UNL     1       9.480  -1.664  24.547  0.00  0.00    +0.125 A 
ATOM      4  C   UNL     1       9.871  -1.865  23.221  0.00  0.00    +0.047 A 
ATOM      5  C   UNL     1      10.174  -0.774  22.408  0.00  0.00    +0.027 A 
ATOM      6  C   UNL     1      10.092   0.521  22.927  0.00  0.00    +0.083 A 
ATOM      7 CL   UNL     1      10.404   1.846  21.863  0.00  0.00    -0.080 Cl
ENDROOT
BRANCH   1   8
ATOM      8  O   UNL     1       9.564   2.036  24.667  0.00  0.00    -0.454 OA
BRANCH   8  14
ATOM      9 CL   UNL     1       8.253   6.668  23.235  0.00  0.00    -0.083 Cl
ATOM     10  C   UNL     1       7.837   5.043  23.617  0.00  0.00    +0.046 A 
ATOM     11  C   UNL     1       6.498   4.667  23.681  0.00  0.00    +0.039 A 
ATOM     12  C   UNL     1       6.164   3.345  24.008  0.00  0.00    +0.057 A 
ATOM     13  C   UNL     1       7.172   2.413  24.287  0.00  0.00    +0.065 A 
ATOM     14  C   UNL     1       8.511   2.805  24.236  0.00  0.00    +0.131 A 
ATOM     15  C   UNL     1       8.842   4.120  23.893  0.00  0.00    +0.066 A 
BRANCH  12  16
ATOM     16  C   UNL     1       4.785   2.964  24.101  0.00  0.00    +0.099 C 
ATOM     17  N   UNL     1       3.674   2.638  24.199  0.00  0.00    -0.191 NA
ENDBRANCH  12  16
ENDBRANCH   8  14
ENDBRANCH   1   8
BRANCH   3  18
ATOM     18  O   UNL     1       9.147  -2.799  25.235  0.00  0.00    -0.486 OA
BRANCH  18  19
ATOM     19  C   UNL     1       7.748  -2.971  25.532  0.00  0.00    +0.286 C 
BRANCH  19  20
ATOM     20  C   UNL     1       6.889  -3.112  24.313  0.00  0.00    +0.109 A 
ATOM     21  C   UNL     1       6.920  -4.149  23.340  0.00  0.00    +0.045 A 
ATOM     22  C   UNL     1       5.893  -3.834  22.465  0.00  0.00    +0.156 A 
ATOM     23  N   UNL     1       5.496  -4.524  21.381  0.00  0.00    -0.236 NA
ATOM     24  C   UNL     1       6.224  -5.650  21.187  0.00  0.00    +0.113 A 
ATOM     25  C   UNL     1       7.280  -6.081  21.981  0.00  0.00    +0.020 A 
ATOM     26  N   UNL     1       5.347  -2.677  22.927  0.00  0.00    -0.260 N 
ATOM     27  H   UNL     1       4.578  -2.166  22.510  0.00  0.00    +0.191 HD
ATOM     28  C   UNL     1       7.652  -5.318  23.091  0.00  0.00    +0.015 A 
ATOM     29  N   UNL     1       5.914  -2.218  24.064  0.00  0.00    -0.173 NA
ENDBRANCH  19  20
ENDBRANCH  18  19
ENDBRANCH   3  18
TORSDOF 6
ENDMDL
MODEL 5
REMARK VINA RESULT:      -7.0      1.923      2.095
REMARK  Name = 
REMARK  6 active torsions:
REMARK  status: ('A' for Active; 'I' for Inactive)
REMARK    1  A    between atoms: C_4  and  O_5
REMARK    2  A    between atoms: O_5  and  C_6
REMARK    3  A    between atoms: C_11  and  O_12
REMARK    4  A    between atoms: O_12  and  C_13
REMARK    5  A    between atoms: C_13  and  C_14
REMARK    6  A    between atoms: C_25  and  C_27
REMARK                            x       y       z     vdW  Elec       q    Type
REMARK                         _______ _______ _______ _____ _____    ______ ____
ROOT
ATOM      1  C   UNL     1       8.685   0.712  23.554  0.00  0.00    +0.150 A 
ATOM      2  C   UNL     1       9.039  -0.397  24.324  0.00  0.00    +0.093 A 
ATOM      3  C   UNL     1       9.436  -1.588  23.706  0.00  0.00    +0.125 A 
ATOM      4  C   UNL     1       9.537  -1.652  22.314  0.00  0.00    +0.047 A 
ATOM      5  C   UNL     1       9.192  -0.547  21.536  0.00  0.00    +0.027 A 
ATOM      6  C   UNL     1       8.751   0.625  22.155  0.00  0.00    +0.083 A 
ATOM      7 CL   UNL     1       8.263   1.944  21.149  0.00  0.00    -0.080 Cl
ENDROOT
BRANCH   1   8
ATOM      8  O   UNL     1       8.126   1.855  24.078  0.00  0.00    -0.454 OA
BRANCH   8  14
ATOM      9 CL   UNL     1       7.598   6.801  24.771  0.00  0.00    -0.083 Cl
ATOM     10  C   UNL     1       8.581   5.433  24.425  0.00  0.00    +0.046 A 
ATOM     11  C   UNL     1       9.911   5.611  24.055  0.00  0.00    +0.039 A 
ATOM     12  C   UNL     1      10.704   4.493  23.758  0.00  0.00    +0.057 A 
ATOM     13  C   UNL     1      10.154   3.205  23.815  0.00  0.00    +0.065 A 
ATOM     14  C   UNL     1       8.814   3.040  24.170  0.00  0.00    +0.131 A 
ATOM     15  C   UNL     1       8.031   4.155  24.482  0.00  0.00    +0.066 A 
BRANCH  12  16
ATOM     16  C   UNL     1      12.066   4.677  23.352  0.00  0.00    +0.099 C 
ATOM     17  N   UNL     1      13.174   4.845  23.044  0.00  0.00    -0.191 NA
ENDBRANCH  12  16
ENDBRANCH   8  14
ENDBRANCH   1   8
BRANCH   3  18
ATOM     18  O   UNL     1       9.741  -2.748  24.366  0.00  0.00    -0.486 OA
BRANCH  18  19
ATOM     19  C   UNL     1       8.734  -3.244  25.269  0.00  0.00    +0.286 C 
BRANCH  19  20
ATOM     20  C   UNL     1       7.401  -3.461  24.622  0.00  0.00    +0.109 A 
ATOM     21  C   UNL     1       7.068  -4.396  23.604  0.00  0.00    +0.045 A 
ATOM     22  C   UNL     1       5.708  -4.225  23.407  0.00  0.00    +0.156 A 
ATOM     23  N   UNL     1       4.908  -4.897  22.560  0.00  0.00    -0.236 NA
ATOM     24  C   UNL     1       5.577  -5.840  21.854  0.00  0.00    +0.113 A 
ATOM     25  C   UNL     1       6.937  -6.112  21.946  0.00  0.00    +0.020 A 
ATOM     26  N   UNL     1       5.326  -3.237  24.260  0.00  0.00    -0.260 N 
ATOM     27  H   UNL     1       4.392  -2.857  24.362  0.00  0.00    +0.191 HD
ATOM     28  C   UNL     1       7.718  -5.375  22.840  0.00  0.00    +0.015 A 
ATOM     29  N   UNL     1       6.327  -2.760  25.032  0.00  0.00    -0.173 NA
ENDBRANCH  19  20
ENDBRANCH  18  19
ENDBRANCH   3  18
TORSDOF 6
ENDMDL
MODEL 6
REMARK VINA RESULT:      -6.9      2.550      2.884
REMARK  Name = 
REMARK  6 active torsions:
REMARK  status: ('A' for Active; 'I' for Inactive)
REMARK    1  A    between atoms: C_4  and  O_5
REMARK    2  A    between atoms: O_5  and  C_6
REMARK    3  A    between atoms: C_11  and  O_12
REMARK    4  A    between atoms: O_12  and  C_13
REMARK    5  A    between atoms: C_13  and  C_14
REMARK    6  A    between atoms: C_25  and  C_27
REMARK                            x       y       z     vdW  Elec       q    Type
REMARK                         _______ _______ _______ _____ _____    ______ ____
ROOT
ATOM      1  C   UNL     1       9.937   0.551  24.113  0.00  0.00    +0.150 A 
ATOM      2  C   UNL     1       9.726  -0.586  24.896  0.00  0.00    +0.093 A 
ATOM      3  C   UNL     1       9.621  -1.846  24.297  0.00  0.00    +0.125 A 
ATOM      4  C   UNL     1       9.786  -1.978  22.916  0.00  0.00    +0.047 A 
ATOM      5  C   UNL     1      10.004  -0.850  22.126  0.00  0.00    +0.027 A 
ATOM      6  C   UNL     1      10.061   0.413  22.722  0.00  0.00    +0.083 A 
ATOM      7 CL   UNL     1      10.258   1.790  21.697  0.00  0.00    -0.080 Cl
ENDROOT
BRANCH   1   8
ATOM      8  O   UNL     1       9.883   1.835  24.606  0.00  0.00    -0.454 OA
BRANCH   8  14
ATOM      9 CL   UNL     1       4.919   2.025  25.345  0.00  0.00    -0.083 Cl
ATOM     10  C   UNL     1       6.373   2.722  24.745  0.00  0.00    +0.046 A 
ATOM     11  C   UNL     1       6.322   3.894  23.996  0.00  0.00    +0.039 A 
ATOM     12  C   UNL     1       7.508   4.450  23.495  0.00  0.00    +0.057 A 
ATOM     13  C   UNL     1       8.736   3.817  23.733  0.00  0.00    +0.065 A 
ATOM     14  C   UNL     1       8.773   2.633  24.471  0.00  0.00    +0.131 A 
ATOM     15  C   UNL     1       7.591   2.090  24.982  0.00  0.00    +0.066 A 
BRANCH  12  16
ATOM     16  C   UNL     1       7.455   5.642  22.702  0.00  0.00    +0.099 C 
ATOM     17  N   UNL     1       7.409   6.624  22.082  0.00  0.00    -0.191 NA
ENDBRANCH  12  16
ENDBRANCH   8  14
ENDBRANCH   1   8
BRANCH   3  18
ATOM     18  O   UNL     1       9.352  -3.009  24.966  0.00  0.00    -0.486 OA
BRANCH  18  19
ATOM     19  C   UNL     1       8.063  -3.089  25.604  0.00  0.00    +0.286 C 
BRANCH  19  20
ATOM     20  C   UNL     1       6.933  -3.315  24.648  0.00  0.00    +0.109 A 
ATOM     21  C   UNL     1       6.839  -4.299  23.626  0.00  0.00    +0.045 A 
ATOM     22  C   UNL     1       5.581  -4.112  23.079  0.00  0.00    +0.156 A 
ATOM     23  N   UNL     1       5.002  -4.815  22.089  0.00  0.00    -0.236 NA
ATOM     24  C   UNL     1       5.796  -5.810  21.625  0.00  0.00    +0.113 A 
ATOM     25  C   UNL     1       7.077  -6.104  22.077  0.00  0.00    +0.020 A 
ATOM     26  N   UNL     1       5.028  -3.069  23.754  0.00  0.00    -0.260 N 
ATOM     27  H   UNL     1       4.112  -2.666  23.594  0.00  0.00    +0.191 HD
ATOM     28  C   UNL     1       7.629  -5.333  23.104  0.00  0.00    +0.015 A 
ATOM     29  N   UNL     1       5.815  -2.570  24.733  0.00  0.00    -0.173 NA
ENDBRANCH  19  20
ENDBRANCH  18  19
ENDBRANCH   3  18
TORSDOF 6
ENDMDL
MODEL 7
REMARK VINA RESULT:      -6.9      2.547      3.441
REMARK  Name = 
REMARK  6 active torsions:
REMARK  status: ('A' for Active; 'I' for Inactive)
REMARK    1  A    between atoms: C_4  and  O_5
REMARK    2  A    between atoms: O_5  and  C_6
REMARK    3  A    between atoms: C_11  and  O_12
REMARK    4  A    between atoms: O_12  and  C_13
REMARK    5  A    between atoms: C_13  and  C_14
REMARK    6  A    between atoms: C_25  and  C_27
REMARK                            x       y       z     vdW  Elec       q    Type
REMARK                         _______ _______ _______ _____ _____    ______ ____
ROOT
ATOM      1  C   UNL     1       8.602   0.237  24.313  0.00  0.00    +0.150 A 
ATOM      2  C   UNL     1       7.492  -0.474  23.849  0.00  0.00    +0.093 A 
ATOM      3  C   UNL     1       7.665  -1.617  23.062  0.00  0.00    +0.125 A 
ATOM      4  C   UNL     1       8.952  -2.088  22.788  0.00  0.00    +0.047 A 
ATOM      5  C   UNL     1      10.066  -1.389  23.252  0.00  0.00    +0.027 A 
ATOM      6  C   UNL     1       9.890  -0.222  23.998  0.00  0.00    +0.083 A 
ATOM      7 CL   UNL     1      11.298   0.651  24.489  0.00  0.00    -0.080 Cl
ENDROOT
BRANCH   1   8
ATOM      8  O   UNL     1       8.514   1.456  24.945  0.00  0.00    -0.454 OA
BRANCH   8  14
ATOM      9 CL   UNL     1      10.358   5.927  23.594  0.00  0.00    -0.083 Cl
ATOM     10  C   UNL     1       9.056   4.806  23.677  0.00  0.00    +0.046 A 
ATOM     11  C   UNL     1       7.780   5.195  23.280  0.00  0.00    +0.039 A 
ATOM     12  C   UNL     1       6.719   4.282  23.365  0.00  0.00    +0.057 A 
ATOM     13  C   UNL     1       6.940   2.991  23.864  0.00  0.00    +0.065 A 
ATOM     14  C   UNL     1       8.221   2.617  24.274  0.00  0.00    +0.131 A 
ATOM     15  C   UNL     1       9.280   3.525  24.173  0.00  0.00    +0.066 A 
BRANCH  12  16
ATOM     16  C   UNL     1       5.399   4.689  22.982  0.00  0.00    +0.099 C 
ATOM     17  N   UNL     1       4.325   5.031  22.698  0.00  0.00    -0.191 NA
ENDBRANCH  12  16
ENDBRANCH   8  14
ENDBRANCH   1   8
BRANCH   3  18
ATOM     18  O   UNL     1       6.648  -2.345  22.507  0.00  0.00    -0.486 OA
BRANCH  18  19
ATOM     19  C   UNL     1       6.992  -3.667  22.050  0.00  0.00    +0.286 C 
BRANCH  19  20
ATOM     20  C   UNL     1       6.155  -4.749  22.657  0.00  0.00    +0.109 A 
ATOM     21  C   UNL     1       6.088  -5.137  24.024  0.00  0.00    +0.045 A 
ATOM     22  C   UNL     1       5.130  -6.136  24.055  0.00  0.00    +0.156 A 
ATOM     23  N   UNL     1       4.682  -6.813  25.128  0.00  0.00    -0.236 NA
ATOM     24  C   UNL     1       5.277  -6.416  26.278  0.00  0.00    +0.113 A 
ATOM     25  C   UNL     1       6.254  -5.434  26.390  0.00  0.00    +0.020 A 
ATOM     26  N   UNL     1       4.711  -6.296  22.771  0.00  0.00    -0.260 N 
ATOM     27  H   UNL     1       4.019  -6.959  22.441  0.00  0.00    +0.191 HD
ATOM     28  C   UNL     1       6.685  -4.769  25.238  0.00  0.00    +0.015 A 
ATOM     29  N   UNL     1       5.299  -5.454  21.893  0.00  0.00    -0.173 NA
ENDBRANCH  19  20
ENDBRANCH  18  19
ENDBRANCH   3  18
TORSDOF 6
ENDMDL
MODEL 8
REMARK VINA RESULT:      -6.9      2.155      2.968
REMARK  Name = 
REMARK  6 active torsions:
REMARK  status: ('A' for Active; 'I' for Inactive)
REMARK    1  A    between atoms: C_4  and  O_5
REMARK    2  A    between atoms: O_5  and  C_6
REMARK    3  A    between atoms: C_11  and  O_12
REMARK    4  A    between atoms: O_12  and  C_13
REMARK    5  A    between atoms: C_13  and  C_14
REMARK    6  A    between atoms: C_25  and  C_27
REMARK                            x       y       z     vdW  Elec       q    Type
REMARK                         _______ _______ _______ _____ _____    ______ ____
ROOT
ATOM      1  C   UNL     1       9.148  -0.385  22.824  0.00  0.00    +0.150 A 
ATOM      2  C   UNL     1       8.337  -1.343  22.211  0.00  0.00    +0.093 A 
ATOM      3  C   UNL     1       8.261  -2.639  22.730  0.00  0.00    +0.125 A 
ATOM      4  C   UNL     1       8.951  -2.965  23.900  0.00  0.00    +0.047 A 
ATOM      5  C   UNL     1       9.759  -2.014  24.523  0.00  0.00    +0.027 A 
ATOM      6  C   UNL     1       9.869  -0.733  23.976  0.00  0.00    +0.083 A 
ATOM      7 CL   UNL     1      10.939   0.389  24.739  0.00  0.00    -0.080 Cl
ENDROOT
BRANCH   1   8
ATOM      8  O   UNL     1       9.406   0.853  22.281  0.00  0.00    -0.454 OA
BRANCH   8  14
ATOM      9 CL   UNL     1       5.038   3.330  22.301  0.00  0.00    -0.083 Cl
ATOM     10  C   UNL     1       6.714   3.245  22.677  0.00  0.00    +0.046 A 
ATOM     11  C   UNL     1       7.370   4.366  23.178  0.00  0.00    +0.039 A 
ATOM     12  C   UNL     1       8.740   4.296  23.469  0.00  0.00    +0.057 A 
ATOM     13  C   UNL     1       9.448   3.109  23.237  0.00  0.00    +0.065 A 
ATOM     14  C   UNL     1       8.784   1.996  22.719  0.00  0.00    +0.131 A 
ATOM     15  C   UNL     1       7.414   2.064  22.446  0.00  0.00    +0.066 A 
BRANCH  12  16
ATOM     16  C   UNL     1       9.422   5.457  23.960  0.00  0.00    +0.099 C 
ATOM     17  N   UNL     1       9.950   6.413  24.357  0.00  0.00    -0.191 NA
ENDBRANCH  12  16
ENDBRANCH   8  14
ENDBRANCH   1   8
BRANCH   3  18
ATOM     18  O   UNL     1       7.549  -3.665  22.169  0.00  0.00    -0.486 OA
BRANCH  18  19
ATOM     19  C   UNL     1       6.116  -3.582  22.295  0.00  0.00    +0.286 C 
BRANCH  19  20
ATOM     20  C   UNL     1       5.498  -4.790  22.929  0.00  0.00    +0.109 A 
ATOM     21  C   UNL     1       5.569  -5.191  24.292  0.00  0.00    +0.045 A 
ATOM     22  C   UNL     1       4.787  -6.333  24.358  0.00  0.00    +0.156 A 
ATOM     23  N   UNL     1       4.513  -7.080  25.443  0.00  0.00    -0.236 NA
ATOM     24  C   UNL     1       5.097  -6.598  26.566  0.00  0.00    +0.113 A 
ATOM     25  C   UNL     1       5.908  -5.472  26.641  0.00  0.00    +0.020 A 
ATOM     26  N   UNL     1       4.332  -6.550  23.095  0.00  0.00    -0.260 N 
ATOM     27  H   UNL     1       3.739  -7.314  22.792  0.00  0.00    +0.191 HD
ATOM     28  C   UNL     1       6.163  -4.739  25.478  0.00  0.00    +0.015 A 
ATOM     29  N   UNL     1       4.727  -5.619  22.201  0.00  0.00    -0.173 NA
ENDBRANCH  19  20
ENDBRANCH  18  19
ENDBRANCH   3  18
TORSDOF 6
ENDMDL
MODEL 9
REMARK VINA RESULT:      -6.8      3.525      7.802
REMARK  Name = 
REMARK  6 active torsions:
REMARK  status: ('A' for Active; 'I' for Inactive)
REMARK    1  A    between atoms: C_4  and  O_5
REMARK    2  A    between atoms: O_5  and  C_6
REMARK    3  A    between atoms: C_11  and  O_12
REMARK    4  A    between atoms: O_12  and  C_13
REMARK    5  A    between atoms: C_13  and  C_14
REMARK    6  A    between atoms: C_25  and  C_27
REMARK                            x       y       z     vdW  Elec       q    Type
REMARK                         _______ _______ _______ _____ _____    ______ ____
ROOT
ATOM      1  C   UNL     1       5.284  -0.635  25.733  0.00  0.00    +0.150 A 
ATOM      2  C   UNL     1       5.816   0.314  24.856  0.00  0.00    +0.093 A 
ATOM      3  C   UNL     1       6.228   1.562  25.333  0.00  0.00    +0.125 A 
ATOM      4  C   UNL     1       6.164   1.844  26.700  0.00  0.00    +0.047 A 
ATOM      5  C   UNL     1       5.640   0.901  27.584  0.00  0.00    +0.027 A 
ATOM      6  C   UNL     1       5.186  -0.327  27.098  0.00  0.00    +0.083 A 
ATOM      7 CL   UNL     1       4.476  -1.435  28.219  0.00  0.00    -0.080 Cl
ENDROOT
BRANCH   1   8
ATOM      8  O   UNL     1       4.704  -1.812  25.319  0.00  0.00    -0.454 OA
BRANCH   8  14
ATOM      9 CL   UNL     1       8.700  -4.699  26.274  0.00  0.00    -0.083 Cl
ATOM     10  C   UNL     1       7.402  -4.229  25.248  0.00  0.00    +0.046 A 
ATOM     11  C   UNL     1       7.300  -4.767  23.968  0.00  0.00    +0.039 A 
ATOM     12  C   UNL     1       6.249  -4.368  23.130  0.00  0.00    +0.057 A 
ATOM     13  C   UNL     1       5.317  -3.419  23.573  0.00  0.00    +0.065 A 
ATOM     14  C   UNL     1       5.439  -2.874  24.852  0.00  0.00    +0.131 A 
ATOM     15  C   UNL     1       6.479  -3.286  25.691  0.00  0.00    +0.066 A 
BRANCH  12  16
ATOM     16  C   UNL     1       6.158  -4.901  21.803  0.00  0.00    +0.099 C 
ATOM     17  N   UNL     1       6.069  -5.355  20.737  0.00  0.00    -0.191 NA
ENDBRANCH  12  16
ENDBRANCH   8  14
ENDBRANCH   1   8
BRANCH   3  18
ATOM     18  O   UNL     1       6.702   2.581  24.550  0.00  0.00    -0.486 OA
BRANCH  18  19
ATOM     19  C   UNL     1       8.135   2.710  24.481  0.00  0.00    +0.286 C 
BRANCH  19  20
ATOM     20  C   UNL     1       8.762   1.870  23.411  0.00  0.00    +0.109 A 
ATOM     21  C   UNL     1       9.222   0.528  23.513  0.00  0.00    +0.045 A 
ATOM     22  C   UNL     1       9.656   0.212  22.236  0.00  0.00    +0.156 A 
ATOM     23  N   UNL     1      10.160  -0.959  21.805  0.00  0.00    -0.236 NA
ATOM     24  C   UNL     1      10.214  -1.892  22.785  0.00  0.00    +0.113 A 
ATOM     25  C   UNL     1       9.820  -1.709  24.105  0.00  0.00    +0.020 A 
ATOM     26  N   UNL     1       9.460   1.328  21.485  0.00  0.00    -0.260 N 
ATOM     27  H   UNL     1       9.683   1.440  20.503  0.00  0.00    +0.191 HD
ATOM     28  C   UNL     1       9.310  -0.468  24.496  0.00  0.00    +0.015 A 
ATOM     29  N   UNL     1       8.898   2.354  22.162  0.00  0.00    -0.173 NA
ENDBRANCH  19  20
ENDBRANCH  18  19
ENDBRANCH   3  18
TORSDOF 6
ENDMDL
