MODEL 1
REMARK VINA RESULT:      -5.8      0.000      0.000
REMARK  Name = 
REMARK  9 active torsions:
REMARK  status: ('A' for Active; 'I' for Inactive)
REMARK    1  A    between atoms: O_1  and  C_2
REMARK    2  A    between atoms: C_5  and  C_7
REMARK    3  A    between atoms: C_7  and  O_8
REMARK    4  A    between atoms: O_8  and  P_9
REMARK    5  A    between atoms: P_9  and  O_10
REMARK    6  A    between atoms: P_9  and  O_11
REMARK    7  A    between atoms: C_13  and  O_15
REMARK    8  A    between atoms: C_16  and  O_18
REMARK    9  A    between atoms: C_19  and  O_21
REMARK                            x       y       z     vdW  Elec       q    Type
REMARK                         _______ _______ _______ _____ _____    ______ ____
ROOT
ATOM      1  C   UNL     1      10.316   0.983  23.754  0.00  0.00    +0.279 C 
ATOM      2  C   UNL     1       9.183   1.491  22.836  0.00  0.00    +0.201 C 
ATOM      3  C   UNL     1       8.164   0.369  22.576  0.00  0.00    +0.179 C 
ATOM      4  C   UNL     1       8.887  -0.886  22.073  0.00  0.00    +0.177 C 
ATOM      5  C   UNL     1      10.015  -1.320  23.033  0.00  0.00    +0.179 C 
ATOM      6  O   UNL     1      10.917  -0.240  23.330  0.00  0.00    -0.341 OA
ENDROOT
BRANCH   1   7
ATOM      7  O   UNL     1       9.824   0.824  25.077  0.00  0.00    -0.365 OA
ATOM      8  H   UNL     1       9.288   0.011  25.048  0.00  0.00    +0.213 HD
ENDBRANCH   1   7
BRANCH   2   9
ATOM      9  O   UNL     1       9.704   2.020  21.610  0.00  0.00    -0.384 OA
ATOM     10  H   UNL     1      10.425   1.424  21.317  0.00  0.00    +0.210 HD
ENDBRANCH   2   9
BRANCH   3  11
ATOM     11  O   UNL     1       7.374   0.082  23.731  0.00  0.00    -0.386 OA
ATOM     12  H   UNL     1       7.574   0.754  24.415  0.00  0.00    +0.210 HD
ENDBRANCH   3  11
BRANCH   4  13
ATOM     13  O   UNL     1       9.454  -0.588  20.780  0.00  0.00    -0.386 OA
ATOM     14  H   UNL     1       8.769  -0.787  20.114  0.00  0.00    +0.210 HD
ENDBRANCH   4  13
BRANCH   5  15
ATOM     15  C   UNL     1       9.540  -2.070  24.284  0.00  0.00    +0.206 C 
BRANCH  15  16
ATOM     16  O   UNL     1      10.045  -3.392  24.231  0.00  0.00    -0.284 OA
BRANCH  16  17
ATOM     17  P   UNL     1       9.275  -4.546  25.017  0.00  0.00    +0.472 P 
ATOM     18  O   UNL     1       8.427  -4.122  26.165  0.00  0.00    -0.228 OA
BRANCH  17  19
ATOM     19  O   UNL     1      10.428  -5.560  25.432  0.00  0.00    -0.303 OA
ATOM     20  H   UNL     1      10.588  -5.519  26.393  0.00  0.00    +0.222 HD
ENDBRANCH  17  19
BRANCH  17  21
ATOM     21  O   UNL     1       8.493  -5.335  23.872  0.00  0.00    -0.303 OA
ATOM     22  H   UNL     1       8.043  -4.728  23.259  0.00  0.00    +0.222 HD
ENDBRANCH  17  21
ENDBRANCH  16  17
ENDBRANCH  15  16
ENDBRANCH   5  15
TORSDOF 9
ENDMDL
MODEL 2
REMARK VINA RESULT:      -5.7      2.824      5.805
REMARK  Name = 
REMARK  9 active torsions:
REMARK  status: ('A' for Active; 'I' for Inactive)
REMARK    1  A    between atoms: O_1  and  C_2
REMARK    2  A    between atoms: C_5  and  C_7
REMARK    3  A    between atoms: C_7  and  O_8
REMARK    4  A    between atoms: O_8  and  P_9
REMARK    5  A    between atoms: P_9  and  O_10
REMARK    6  A    between atoms: P_9  and  O_11
REMARK    7  A    between atoms: C_13  and  O_15
REMARK    8  A    between atoms: C_16  and  O_18
REMARK    9  A    between atoms: C_19  and  O_21
REMARK                            x       y       z     vdW  Elec       q    Type
REMARK                         _______ _______ _______ _____ _____    ______ ____
ROOT
ATOM      1  C   UNL     1       6.545  -4.782  25.748  0.00  0.00    +0.279 C 
ATOM      2  C   UNL     1       7.529  -4.694  26.936  0.00  0.00    +0.201 C 
ATOM      3  C   UNL     1       8.827  -3.993  26.502  0.00  0.00    +0.179 C 
ATOM      4  C   UNL     1       9.390  -4.669  25.247  0.00  0.00    +0.177 C 
ATOM      5  C   UNL     1       8.345  -4.736  24.114  0.00  0.00    +0.179 C 
ATOM      6  O   UNL     1       7.109  -5.322  24.553  0.00  0.00    -0.341 OA
ENDROOT
BRANCH   1   7
ATOM      7  O   UNL     1       6.015  -3.493  25.471  0.00  0.00    -0.365 OA
ATOM      8  H   UNL     1       5.767  -3.133  26.342  0.00  0.00    +0.213 HD
ENDBRANCH   1   7
BRANCH   2   9
ATOM      9  O   UNL     1       7.793  -5.989  27.490  0.00  0.00    -0.384 OA
ATOM     10  H   UNL     1       8.068  -6.573  26.752  0.00  0.00    +0.210 HD
ENDBRANCH   2   9
BRANCH   3  11
ATOM     11  O   UNL     1       8.637  -2.593  26.293  0.00  0.00    -0.386 OA
ATOM     12  H   UNL     1       7.700  -2.441  26.050  0.00  0.00    +0.210 HD
ENDBRANCH   3  11
BRANCH   4  13
ATOM     13  O   UNL     1       9.789  -6.010  25.602  0.00  0.00    -0.386 OA
ATOM     14  H   UNL     1      10.503  -5.931  26.264  0.00  0.00    +0.210 HD
ENDBRANCH   4  13
BRANCH   5  15
ATOM     15  C   UNL     1       8.149  -3.423  23.343  0.00  0.00    +0.206 C 
BRANCH  15  16
ATOM     16  O   UNL     1       9.309  -2.628  23.514  0.00  0.00    -0.284 OA
BRANCH  16  17
ATOM     17  P   UNL     1       9.404  -1.229  22.755  0.00  0.00    +0.472 P 
ATOM     18  O   UNL     1       8.126  -0.498  22.536  0.00  0.00    -0.228 OA
BRANCH  17  19
ATOM     19  O   UNL     1      10.163  -1.582  21.401  0.00  0.00    -0.303 OA
ATOM     20  H   UNL     1      11.129  -1.550  21.534  0.00  0.00    +0.222 HD
ENDBRANCH  17  19
BRANCH  17  21
ATOM     21  O   UNL     1      10.500  -0.417  23.582  0.00  0.00    -0.303 OA
ATOM     22  H   UNL     1      10.097   0.098  24.303  0.00  0.00    +0.222 HD
ENDBRANCH  17  21
ENDBRANCH  16  17
ENDBRANCH  15  16
ENDBRANCH   5  15
TORSDOF 9
ENDMDL
MODEL 3
REMARK VINA RESULT:      -5.6      1.219      2.435
REMARK  Name = 
REMARK  9 active torsions:
REMARK  status: ('A' for Active; 'I' for Inactive)
REMARK    1  A    between atoms: O_1  and  C_2
REMARK    2  A    between atoms: C_5  and  C_7
REMARK    3  A    between atoms: C_7  and  O_8
REMARK    4  A    between atoms: O_8  and  P_9
REMARK    5  A    between atoms: P_9  and  O_10
REMARK    6  A    between atoms: P_9  and  O_11
REMARK    7  A    between atoms: C_13  and  O_15
REMARK    8  A    between atoms: C_16  and  O_18
REMARK    9  A    between atoms: C_19  and  O_21
REMARK                            x       y       z     vdW  Elec       q    Type
REMARK                         _______ _______ _______ _____ _____    ______ ____
ROOT
ATOM      1  C   UNL     1       9.401  -0.924  21.561  0.00  0.00    +0.279 C 
ATOM      2  C   UNL     1       9.671   0.589  21.707  0.00  0.00    +0.201 C 
ATOM      3  C   UNL     1       9.748   0.975  23.193  0.00  0.00    +0.179 C 
ATOM      4  C   UNL     1       8.503   0.470  23.929  0.00  0.00    +0.177 C 
ATOM      5  C   UNL     1       8.289  -1.045  23.720  0.00  0.00    +0.179 C 
ATOM      6  O   UNL     1       8.297  -1.404  22.328  0.00  0.00    -0.341 OA
ENDROOT
BRANCH   1   7
ATOM      7  O   UNL     1      10.567  -1.655  21.915  0.00  0.00    -0.365 OA
ATOM      8  H   UNL     1      11.225  -1.417  21.238  0.00  0.00    +0.213 HD
ENDBRANCH   1   7
BRANCH   2   9
ATOM      9  O   UNL     1       8.683   1.363  21.014  0.00  0.00    -0.384 OA
ATOM     10  H   UNL     1       9.114   2.192  20.719  0.00  0.00    +0.210 HD
ENDBRANCH   2   9
BRANCH   3  11
ATOM     11  O   UNL     1      10.944   0.496  23.811  0.00  0.00    -0.386 OA
ATOM     12  H   UNL     1      11.666   0.527  23.151  0.00  0.00    +0.210 HD
ENDBRANCH   3  11
BRANCH   4  13
ATOM     13  O   UNL     1       7.359   1.184  23.415  0.00  0.00    -0.386 OA
ATOM     14  H   UNL     1       7.453   1.215  22.444  0.00  0.00    +0.210 HD
ENDBRANCH   4  13
BRANCH   5  15
ATOM     15  C   UNL     1       9.187  -1.944  24.581  0.00  0.00    +0.206 C 
BRANCH  15  16
ATOM     16  O   UNL     1       9.159  -3.252  24.040  0.00  0.00    -0.284 OA
BRANCH  16  17
ATOM     17  P   UNL     1       8.857  -4.482  25.008  0.00  0.00    +0.472 P 
ATOM     18  O   UNL     1       7.626  -5.270  24.724  0.00  0.00    -0.228 OA
BRANCH  17  19
ATOM     19  O   UNL     1       8.863  -3.834  26.460  0.00  0.00    -0.303 OA
ATOM     20  H   UNL     1       8.102  -3.233  26.568  0.00  0.00    +0.222 HD
ENDBRANCH  17  19
BRANCH  17  21
ATOM     21  O   UNL     1      10.207  -5.331  24.984  0.00  0.00    -0.303 OA
ATOM     22  H   UNL     1      10.073  -6.209  24.586  0.00  0.00    +0.222 HD
ENDBRANCH  17  21
ENDBRANCH  16  17
ENDBRANCH  15  16
ENDBRANCH   5  15
TORSDOF 9
ENDMDL
MODEL 4
REMARK VINA RESULT:      -5.5      1.750      2.541
REMARK  Name = 
REMARK  9 active torsions:
REMARK  status: ('A' for Active; 'I' for Inactive)
REMARK    1  A    between atoms: O_1  and  C_2
REMARK    2  A    between atoms: C_5  and  C_7
REMARK    3  A    between atoms: C_7  and  O_8
REMARK    4  A    between atoms: O_8  and  P_9
REMARK    5  A    between atoms: P_9  and  O_10
REMARK    6  A    between atoms: P_9  and  O_11
REMARK    7  A    between atoms: C_13  and  O_15
REMARK    8  A    between atoms: C_16  and  O_18
REMARK    9  A    between atoms: C_19  and  O_21
REMARK                            x       y       z     vdW  Elec       q    Type
REMARK                         _______ _______ _______ _____ _____    ______ ____
ROOT
ATOM      1  C   UNL     1       8.863   2.725  24.605  0.00  0.00    +0.279 C 
ATOM      2  C   UNL     1       7.967   2.733  23.346  0.00  0.00    +0.201 C 
ATOM      3  C   UNL     1       8.117   1.411  22.576  0.00  0.00    +0.179 C 
ATOM      4  C   UNL     1       9.599   1.127  22.311  0.00  0.00    +0.177 C 
ATOM      5  C   UNL     1      10.430   1.153  23.611  0.00  0.00    +0.179 C 
ATOM      6  O   UNL     1      10.221   2.362  24.360  0.00  0.00    -0.341 OA
ENDROOT
BRANCH   1   7
ATOM      7  O   UNL     1       8.314   1.844  25.575  0.00  0.00    -0.365 OA
ATOM      8  H   UNL     1       8.759   2.083  26.408  0.00  0.00    +0.213 HD
ENDBRANCH   1   7
BRANCH   2   9
ATOM      9  O   UNL     1       8.256   3.862  22.511  0.00  0.00    -0.384 OA
ATOM     10  H   UNL     1       9.203   3.811  22.266  0.00  0.00    +0.210 HD
ENDBRANCH   2   9
BRANCH   3  11
ATOM     11  O   UNL     1       7.496   0.319  23.258  0.00  0.00    -0.386 OA
ATOM     12  H   UNL     1       6.760  -0.011  22.704  0.00  0.00    +0.210 HD
ENDBRANCH   3  11
BRANCH   4  13
ATOM     13  O   UNL     1      10.095   2.142  21.412  0.00  0.00    -0.386 OA
ATOM     14  H   UNL     1       9.450   2.874  21.423  0.00  0.00    +0.210 HD
ENDBRANCH   4  13
BRANCH   5  15
ATOM     15  C   UNL     1      10.321  -0.115  24.468  0.00  0.00    +0.206 C 
BRANCH  15  16
ATOM     16  O   UNL     1      10.280  -1.236  23.605  0.00  0.00    -0.284 OA
BRANCH  16  17
ATOM     17  P   UNL     1       9.331  -2.463  23.975  0.00  0.00    +0.472 P 
ATOM     18  O   UNL     1      10.002  -3.749  24.309  0.00  0.00    -0.228 OA
BRANCH  17  19
ATOM     19  O   UNL     1       8.349  -2.574  22.729  0.00  0.00    -0.303 OA
ATOM     20  H   UNL     1       7.487  -2.168  22.937  0.00  0.00    +0.222 HD
ENDBRANCH  17  19
BRANCH  17  21
ATOM     21  O   UNL     1       8.391  -1.887  25.127  0.00  0.00    -0.303 OA
ATOM     22  H   UNL     1       8.313  -0.917  25.077  0.00  0.00    +0.222 HD
ENDBRANCH  17  21
ENDBRANCH  16  17
ENDBRANCH  15  16
ENDBRANCH   5  15
TORSDOF 9
ENDMDL
MODEL 5
REMARK VINA RESULT:      -5.4      3.783      6.029
REMARK  Name = 
REMARK  9 active torsions:
REMARK  status: ('A' for Active; 'I' for Inactive)
REMARK    1  A    between atoms: O_1  and  C_2
REMARK    2  A    between atoms: C_5  and  C_7
REMARK    3  A    between atoms: C_7  and  O_8
REMARK    4  A    between atoms: O_8  and  P_9
REMARK    5  A    between atoms: P_9  and  O_10
REMARK    6  A    between atoms: P_9  and  O_11
REMARK    7  A    between atoms: C_13  and  O_15
REMARK    8  A    between atoms: C_16  and  O_18
REMARK    9  A    between atoms: C_19  and  O_21
REMARK                            x       y       z     vdW  Elec       q    Type
REMARK                         _______ _______ _______ _____ _____    ______ ____
ROOT
ATOM      1  C   UNL     1       6.513  -5.018  25.768  0.00  0.00    +0.279 C 
ATOM      2  C   UNL     1       7.460  -4.771  26.963  0.00  0.00    +0.201 C 
ATOM      3  C   UNL     1       8.699  -3.982  26.506  0.00  0.00    +0.179 C 
ATOM      4  C   UNL     1       9.346  -4.677  25.304  0.00  0.00    +0.177 C 
ATOM      5  C   UNL     1       8.335  -4.906  24.161  0.00  0.00    +0.179 C 
ATOM      6  O   UNL     1       7.147  -5.575  24.617  0.00  0.00    -0.341 OA
ENDROOT
BRANCH   1   7
ATOM      7  O   UNL     1       5.875  -3.801  25.404  0.00  0.00    -0.365 OA
ATOM      8  H   UNL     1       6.574  -3.125  25.469  0.00  0.00    +0.213 HD
ENDBRANCH   1   7
BRANCH   2   9
ATOM      9  O   UNL     1       7.827  -6.002  27.598  0.00  0.00    -0.384 OA
ATOM     10  H   UNL     1       7.623  -6.727  26.972  0.00  0.00    +0.210 HD
ENDBRANCH   2   9
BRANCH   3  11
ATOM     11  O   UNL     1       8.388  -2.619  26.210  0.00  0.00    -0.386 OA
ATOM     12  H   UNL     1       8.949  -2.046  26.772  0.00  0.00    +0.210 HD
ENDBRANCH   3  11
BRANCH   4  13
ATOM     13  O   UNL     1       9.856  -5.953  25.746  0.00  0.00    -0.386 OA
ATOM     14  H   UNL     1       9.580  -6.065  26.676  0.00  0.00    +0.210 HD
ENDBRANCH   4  13
BRANCH   5  15
ATOM     15  C   UNL     1       8.038  -3.664  23.309  0.00  0.00    +0.206 C 
BRANCH  15  16
ATOM     16  O   UNL     1       7.328  -4.074  22.154  0.00  0.00    -0.284 OA
BRANCH  16  17
ATOM     17  P   UNL     1       5.798  -3.655  21.999  0.00  0.00    +0.472 P 
ATOM     18  O   UNL     1       4.789  -4.582  22.583  0.00  0.00    -0.228 OA
BRANCH  17  19
ATOM     19  O   UNL     1       5.619  -3.442  20.433  0.00  0.00    -0.303 OA
ATOM     20  H   UNL     1       6.334  -3.890  19.944  0.00  0.00    +0.222 HD
ENDBRANCH  17  19
BRANCH  17  21
ATOM     21  O   UNL     1       5.745  -2.169  22.576  0.00  0.00    -0.303 OA
ATOM     22  H   UNL     1       5.131  -1.609  22.070  0.00  0.00    +0.222 HD
ENDBRANCH  17  21
ENDBRANCH  16  17
ENDBRANCH  15  16
ENDBRANCH   5  15
TORSDOF 9
ENDMDL
MODEL 6
REMARK VINA RESULT:      -5.3      1.184      2.294
REMARK  Name = 
REMARK  9 active torsions:
REMARK  status: ('A' for Active; 'I' for Inactive)
REMARK    1  A    between atoms: O_1  and  C_2
REMARK    2  A    between atoms: C_5  and  C_7
REMARK    3  A    between atoms: C_7  and  O_8
REMARK    4  A    between atoms: O_8  and  P_9
REMARK    5  A    between atoms: P_9  and  O_10
REMARK    6  A    between atoms: P_9  and  O_11
REMARK    7  A    between atoms: C_13  and  O_15
REMARK    8  A    between atoms: C_16  and  O_18
REMARK    9  A    between atoms: C_19  and  O_21
REMARK                            x       y       z     vdW  Elec       q    Type
REMARK                         _______ _______ _______ _____ _____    ______ ____
ROOT
ATOM      1  C   UNL     1       7.607  -0.422  23.266  0.00  0.00    +0.279 C 
ATOM      2  C   UNL     1       8.365   0.470  22.260  0.00  0.00    +0.201 C 
ATOM      3  C   UNL     1       9.787  -0.070  22.035  0.00  0.00    +0.179 C 
ATOM      4  C   UNL     1      10.491  -0.264  23.381  0.00  0.00    +0.177 C 
ATOM      5  C   UNL     1       9.665  -1.150  24.338  0.00  0.00    +0.179 C 
ATOM      6  O   UNL     1       8.314  -0.678  24.479  0.00  0.00    -0.341 OA
ENDROOT
BRANCH   1   7
ATOM      7  O   UNL     1       7.274  -1.659  22.652  0.00  0.00    -0.365 OA
ATOM      8  H   UNL     1       6.302  -1.651  22.586  0.00  0.00    +0.213 HD
ENDBRANCH   1   7
BRANCH   2   9
ATOM      9  O   UNL     1       8.386   1.838  22.690  0.00  0.00    -0.384 OA
ATOM     10  H   UNL     1       7.517   2.030  23.098  0.00  0.00    +0.210 HD
ENDBRANCH   2   9
BRANCH   3  11
ATOM     11  O   UNL     1       9.787  -1.279  21.273  0.00  0.00    -0.386 OA
ATOM     12  H   UNL     1       9.253  -1.945  21.752  0.00  0.00    +0.210 HD
ENDBRANCH   3  11
BRANCH   4  13
ATOM     13  O   UNL     1      10.675   1.036  23.981  0.00  0.00    -0.386 OA
ATOM     14  H   UNL     1      11.147   1.588  23.328  0.00  0.00    +0.210 HD
ENDBRANCH   4  13
BRANCH   5  15
ATOM     15  C   UNL     1       9.751  -2.655  24.054  0.00  0.00    +0.206 C 
BRANCH  15  16
ATOM     16  O   UNL     1       8.777  -3.315  24.842  0.00  0.00    -0.284 OA
BRANCH  16  17
ATOM     17  P   UNL     1       8.859  -4.899  25.006  0.00  0.00    +0.472 P 
ATOM     18  O   UNL     1       8.139  -5.489  26.168  0.00  0.00    -0.228 OA
BRANCH  17  19
ATOM     19  O   UNL     1      10.421  -5.199  25.019  0.00  0.00    -0.303 OA
ATOM     20  H   UNL     1      10.927  -4.368  25.087  0.00  0.00    +0.222 HD
ENDBRANCH  17  19
BRANCH  17  21
ATOM     21  O   UNL     1       8.395  -5.457  23.585  0.00  0.00    -0.303 OA
ATOM     22  H   UNL     1       8.432  -4.768  22.899  0.00  0.00    +0.222 HD
ENDBRANCH  17  21
ENDBRANCH  16  17
ENDBRANCH  15  16
ENDBRANCH   5  15
TORSDOF 9
ENDMDL
MODEL 7
REMARK VINA RESULT:      -5.3      3.374      5.648
REMARK  Name = 
REMARK  9 active torsions:
REMARK  status: ('A' for Active; 'I' for Inactive)
REMARK    1  A    between atoms: O_1  and  C_2
REMARK    2  A    between atoms: C_5  and  C_7
REMARK    3  A    between atoms: C_7  and  O_8
REMARK    4  A    between atoms: O_8  and  P_9
REMARK    5  A    between atoms: P_9  and  O_10
REMARK    6  A    between atoms: P_9  and  O_11
REMARK    7  A    between atoms: C_13  and  O_15
REMARK    8  A    between atoms: C_16  and  O_18
REMARK    9  A    between atoms: C_19  and  O_21
REMARK                            x       y       z     vdW  Elec       q    Type
REMARK                         _______ _______ _______ _____ _____    ______ ____
ROOT
ATOM      1  C   UNL     1       5.344  -4.919  24.347  0.00  0.00    +0.279 C 
ATOM      2  C   UNL     1       5.829  -5.910  23.266  0.00  0.00    +0.201 C 
ATOM      3  C   UNL     1       7.022  -5.318  22.498  0.00  0.00    +0.179 C 
ATOM      4  C   UNL     1       6.666  -3.921  21.977  0.00  0.00    +0.177 C 
ATOM      5  C   UNL     1       6.173  -2.996  23.110  0.00  0.00    +0.179 C 
ATOM      6  O   UNL     1       5.109  -3.594  23.871  0.00  0.00    -0.341 OA
ENDROOT
BRANCH   1   7
ATOM      7  O   UNL     1       6.285  -4.871  25.409  0.00  0.00    -0.365 OA
ATOM      8  H   UNL     1       7.108  -5.228  25.029  0.00  0.00    +0.213 HD
ENDBRANCH   1   7
BRANCH   2   9
ATOM      9  O   UNL     1       4.764  -6.276  22.380  0.00  0.00    -0.384 OA
ATOM     10  H   UNL     1       4.901  -5.789  21.540  0.00  0.00    +0.210 HD
ENDBRANCH   2   9
BRANCH   3  11
ATOM     11  O   UNL     1       8.210  -5.286  23.291  0.00  0.00    -0.386 OA
ATOM     12  H   UNL     1       8.146  -4.531  23.911  0.00  0.00    +0.210 HD
ENDBRANCH   3  11
BRANCH   4  13
ATOM     13  O   UNL     1       5.620  -4.063  20.993  0.00  0.00    -0.386 OA
ATOM     14  H   UNL     1       5.411  -3.167  20.666  0.00  0.00    +0.210 HD
ENDBRANCH   4  13
BRANCH   5  15
ATOM     15  C   UNL     1       7.285  -2.407  23.988  0.00  0.00    +0.206 C 
BRANCH  15  16
ATOM     16  O   UNL     1       8.182  -1.694  23.156  0.00  0.00    -0.284 OA
BRANCH  16  17
ATOM     17  P   UNL     1       9.750  -1.921  23.336  0.00  0.00    +0.472 P 
ATOM     18  O   UNL     1      10.172  -3.194  23.982  0.00  0.00    -0.228 OA
BRANCH  17  19
ATOM     19  O   UNL     1      10.232  -0.628  24.126  0.00  0.00    -0.303 OA
ATOM     20  H   UNL     1      10.186  -0.780  25.088  0.00  0.00    +0.222 HD
ENDBRANCH  17  19
BRANCH  17  21
ATOM     21  O   UNL     1      10.341  -1.692  21.872  0.00  0.00    -0.303 OA
ATOM     22  H   UNL     1      10.556  -2.536  21.435  0.00  0.00    +0.222 HD
ENDBRANCH  17  21
ENDBRANCH  16  17
ENDBRANCH  15  16
ENDBRANCH   5  15
TORSDOF 9
ENDMDL
MODEL 8
REMARK VINA RESULT:      -5.3      1.594      2.256
REMARK  Name = 
REMARK  9 active torsions:
REMARK  status: ('A' for Active; 'I' for Inactive)
REMARK    1  A    between atoms: O_1  and  C_2
REMARK    2  A    between atoms: C_5  and  C_7
REMARK    3  A    between atoms: C_7  and  O_8
REMARK    4  A    between atoms: O_8  and  P_9
REMARK    5  A    between atoms: P_9  and  O_10
REMARK    6  A    between atoms: P_9  and  O_11
REMARK    7  A    between atoms: C_13  and  O_15
REMARK    8  A    between atoms: C_16  and  O_18
REMARK    9  A    between atoms: C_19  and  O_21
REMARK                            x       y       z     vdW  Elec       q    Type
REMARK                         _______ _______ _______ _____ _____    ______ ____
ROOT
ATOM      1  C   UNL     1      10.584   1.006  24.128  0.00  0.00    +0.279 C 
ATOM      2  C   UNL     1      10.139   2.474  23.951  0.00  0.00    +0.201 C 
ATOM      3  C   UNL     1       8.638   2.541  23.624  0.00  0.00    +0.179 C 
ATOM      4  C   UNL     1       8.321   1.624  22.439  0.00  0.00    +0.177 C 
ATOM      5  C   UNL     1       8.811   0.181  22.682  0.00  0.00    +0.179 C 
ATOM      6  O   UNL     1      10.197   0.138  23.063  0.00  0.00    -0.341 OA
ENDROOT
BRANCH   1   7
ATOM      7  O   UNL     1      10.072   0.496  25.352  0.00  0.00    -0.365 OA
ATOM      8  H   UNL     1      10.622  -0.285  25.545  0.00  0.00    +0.213 HD
ENDBRANCH   1   7
BRANCH   2   9
ATOM      9  O   UNL     1      10.923   3.137  22.951  0.00  0.00    -0.384 OA
ATOM     10  H   UNL     1      10.377   3.863  22.584  0.00  0.00    +0.210 HD
ENDBRANCH   2   9
BRANCH   3  11
ATOM     11  O   UNL     1       7.828   2.220  24.757  0.00  0.00    -0.386 OA
ATOM     12  H   UNL     1       6.956   2.652  24.644  0.00  0.00    +0.210 HD
ENDBRANCH   3  11
BRANCH   4  13
ATOM     13  O   UNL     1       8.982   2.157  21.271  0.00  0.00    -0.386 OA
ATOM     14  H   UNL     1       8.802   3.116  21.254  0.00  0.00    +0.210 HD
ENDBRANCH   4  13
BRANCH   5  15
ATOM     15  C   UNL     1       7.909  -0.657  23.598  0.00  0.00    +0.206 C 
BRANCH  15  16
ATOM     16  O   UNL     1       8.042  -2.019  23.232  0.00  0.00    -0.284 OA
BRANCH  16  17
ATOM     17  P   UNL     1       8.850  -3.002  24.194  0.00  0.00    +0.472 P 
ATOM     18  O   UNL     1       8.364  -4.407  24.274  0.00  0.00    -0.228 OA
BRANCH  17  19
ATOM     19  O   UNL     1       8.837  -2.254  25.598  0.00  0.00    -0.303 OA
ATOM     20  H   UNL     1       9.389  -2.734  26.244  0.00  0.00    +0.222 HD
ENDBRANCH  17  19
BRANCH  17  21
ATOM     21  O   UNL     1      10.364  -2.849  23.716  0.00  0.00    -0.303 OA
ATOM     22  H   UNL     1      10.866  -3.673  23.846  0.00  0.00    +0.222 HD
ENDBRANCH  17  21
ENDBRANCH  16  17
ENDBRANCH  15  16
ENDBRANCH   5  15
TORSDOF 9
ENDMDL
MODEL 9
REMARK VINA RESULT:      -5.3      3.380      5.103
REMARK  Name = 
REMARK  9 active torsions:
REMARK  status: ('A' for Active; 'I' for Inactive)
REMARK    1  A    between atoms: O_1  and  C_2
REMARK    2  A    between atoms: C_5  and  C_7
REMARK    3  A    between atoms: C_7  and  O_8
REMARK    4  A    between atoms: O_8  and  P_9
REMARK    5  A    between atoms: P_9  and  O_10
REMARK    6  A    between atoms: P_9  and  O_11
REMARK    7  A    between atoms: C_13  and  O_15
REMARK    8  A    between atoms: C_16  and  O_18
REMARK    9  A    between atoms: C_19  and  O_21
REMARK                            x       y       z     vdW  Elec       q    Type
REMARK                         _______ _______ _______ _____ _____    ______ ____
ROOT
ATOM      1  C   UNL     1       8.406  -2.425  25.364  0.00  0.00    +0.279 C 
ATOM      2  C   UNL     1       8.740  -3.146  24.040  0.00  0.00    +0.201 C 
ATOM      3  C   UNL     1       8.246  -4.601  24.085  0.00  0.00    +0.179 C 
ATOM      4  C   UNL     1       8.775  -5.293  25.346  0.00  0.00    +0.177 C 
ATOM      5  C   UNL     1       8.418  -4.505  26.625  0.00  0.00    +0.179 C 
ATOM      6  O   UNL     1       8.816  -3.126  26.538  0.00  0.00    -0.341 OA
ENDROOT
BRANCH   1   7
ATOM      7  O   UNL     1       7.009  -2.178  25.434  0.00  0.00    -0.365 OA
ATOM      8  H   UNL     1       6.708  -2.672  26.219  0.00  0.00    +0.213 HD
ENDBRANCH   1   7
BRANCH   2   9
ATOM      9  O   UNL     1      10.142  -3.077  23.750  0.00  0.00    -0.384 OA
ATOM     10  H   UNL     1      10.615  -3.003  24.605  0.00  0.00    +0.210 HD
ENDBRANCH   2   9
BRANCH   3  11
ATOM     11  O   UNL     1       6.821  -4.687  24.008  0.00  0.00    -0.386 OA
ATOM     12  H   UNL     1       6.586  -5.169  23.189  0.00  0.00    +0.210 HD
ENDBRANCH   3  11
BRANCH   4  13
ATOM     13  O   UNL     1      10.210  -5.388  25.235  0.00  0.00    -0.386 OA
ATOM     14  H   UNL     1      10.408  -6.248  24.816  0.00  0.00    +0.210 HD
ENDBRANCH   4  13
BRANCH   5  15
ATOM     15  C   UNL     1       6.973  -4.686  27.108  0.00  0.00    +0.206 C 
BRANCH  15  16
ATOM     16  O   UNL     1       6.517  -5.959  26.686  0.00  0.00    -0.284 OA
BRANCH  16  17
ATOM     17  P   UNL     1       5.054  -6.434  27.107  0.00  0.00    +0.472 P 
ATOM     18  O   UNL     1       4.099  -5.370  27.523  0.00  0.00    -0.228 OA
BRANCH  17  19
ATOM     19  O   UNL     1       5.318  -7.517  28.241  0.00  0.00    -0.303 OA
ATOM     20  H   UNL     1       5.545  -7.080  29.083  0.00  0.00    +0.222 HD
ENDBRANCH  17  19
BRANCH  17  21
ATOM     21  O   UNL     1       4.566  -7.316  25.871  0.00  0.00    -0.303 OA
ATOM     22  H   UNL     1       5.314  -7.737  25.412  0.00  0.00    +0.222 HD
ENDBRANCH  17  21
ENDBRANCH  16  17
ENDBRANCH  15  16
ENDBRANCH   5  15
TORSDOF 9
ENDMDL
