MODEL 1
REMARK VINA RESULT:      -8.0      0.000      0.000
REMARK  Name = 
REMARK  4 active torsions:
REMARK  status: ('A' for Active; 'I' for Inactive)
REMARK    1  A    between atoms: C_2  and  C_4
REMARK    2  A    between atoms: N_6  and  C_16
REMARK    3  A    between atoms: C_19  and  S_22
REMARK    4  A    between atoms: S_22  and  N_23
REMARK                            x       y       z     vdW  Elec       q    Type
REMARK                         _______ _______ _______ _____ _____    ______ ____
ROOT
ATOM      1  C   UNL     1       6.491  -5.487  27.492  0.00  0.00    +0.155 A 
ATOM      2  C   UNL     1       5.781  -5.889  26.336  0.00  0.00    +0.033 A 
ATOM      3  C   UNL     1       4.743  -6.803  26.027  0.00  0.00    +0.014 A 
ATOM      4  C   UNL     1       4.312  -7.009  24.695  0.00  0.00    +0.028 A 
ATOM      5  C   UNL     1       4.999  -6.321  23.696  0.00  0.00    +0.068 A 
ATOM      6  N   UNL     1       4.924  -6.295  22.332  0.00  0.00    -0.277 N 
ATOM      7  H   UNL     1       4.265  -6.784  21.738  0.00  0.00    +0.189 HD
ATOM      8  N   UNL     1       5.887  -5.549  21.746  0.00  0.00    -0.181 NA
ATOM      9  C   UNL     1       6.594  -5.063  22.776  0.00  0.00    +0.144 A 
ATOM     10  C   UNL     1       6.023  -5.448  24.007  0.00  0.00    +0.045 A 
ATOM     11  C   UNL     1       6.372  -5.179  25.304  0.00  0.00    +0.086 A 
ATOM     12  N   UNL     1       7.270  -4.311  25.850  0.00  0.00    -0.231 N 
ATOM     13  N   UNL     1       7.445  -4.579  27.189  0.00  0.00    -0.161 NA
ENDROOT
BRANCH  12  14
ATOM     14  C   UNL     1       7.945  -3.176  25.300  0.00  0.00    +0.066 A 
ATOM     15  C   UNL     1       9.143  -3.313  24.588  0.00  0.00    +0.030 A 
ATOM     16  C   UNL     1       9.834  -2.185  24.133  0.00  0.00    +0.030 A 
ATOM     17  C   UNL     1       9.294  -0.916  24.335  0.00  0.00    +0.105 A 
ATOM     18  C   UNL     1       8.050  -0.767  24.951  0.00  0.00    +0.030 A 
ATOM     19  C   UNL     1       7.374  -1.897  25.431  0.00  0.00    +0.030 A 
BRANCH  17  20
ATOM     20  S   UNL     1      10.164   0.505  23.735  0.00  0.00    +0.056 S 
ATOM     21  O   UNL     1      10.154   0.486  22.290  0.00  0.00    -0.153 OA
ATOM     22  O   UNL     1      11.375   0.685  24.500  0.00  0.00    -0.153 OA
BRANCH  20  23
ATOM     23  N   UNL     1       9.141   1.757  24.190  0.00  0.00    -0.204 NA
ATOM     24  H   UNL     1       8.169   1.477  24.052  0.00  0.00    +0.144 HD
ATOM     25  H   UNL     1       9.395   2.611  23.691  0.00  0.00    +0.144 HD
ENDBRANCH  20  23
ENDBRANCH  17  20
ENDBRANCH  12  14
BRANCH   1  29
ATOM     26  N   UNL     1       6.545  -7.316  29.034  0.00  0.00    -0.324 N 
ATOM     27  H   UNL     1       6.884  -7.866  28.254  0.00  0.00    +0.145 HD
ATOM     28  H   UNL     1       6.439  -7.719  29.953  0.00  0.00    +0.145 HD
ATOM     29  C   UNL     1       6.276  -5.990  28.856  0.00  0.00    +0.262 C 
ATOM     30  O   UNL     1       5.895  -5.294  29.794  0.00  0.00    -0.269 OA
ENDBRANCH   1  29
TORSDOF 4
ENDMDL
MODEL 2
REMARK VINA RESULT:      -7.5      1.050      1.159
REMARK  Name = 
REMARK  4 active torsions:
REMARK  status: ('A' for Active; 'I' for Inactive)
REMARK    1  A    between atoms: C_2  and  C_4
REMARK    2  A    between atoms: N_6  and  C_16
REMARK    3  A    between atoms: C_19  and  S_22
REMARK    4  A    between atoms: S_22  and  N_23
REMARK                            x       y       z     vdW  Elec       q    Type
REMARK                         _______ _______ _______ _____ _____    ______ ____
ROOT
ATOM      1  C   UNL     1       6.501  -5.256  27.142  0.00  0.00    +0.155 A 
ATOM      2  C   UNL     1       5.811  -5.718  25.996  0.00  0.00    +0.033 A 
ATOM      3  C   UNL     1       4.838  -6.705  25.705  0.00  0.00    +0.014 A 
ATOM      4  C   UNL     1       4.411  -6.953  24.379  0.00  0.00    +0.028 A 
ATOM      5  C   UNL     1       5.038  -6.227  23.368  0.00  0.00    +0.068 A 
ATOM      6  N   UNL     1       4.949  -6.218  22.005  0.00  0.00    -0.277 N 
ATOM      7  H   UNL     1       4.320  -6.758  21.421  0.00  0.00    +0.189 HD
ATOM      8  N   UNL     1       5.851  -5.411  21.404  0.00  0.00    -0.181 NA
ATOM      9  C   UNL     1       6.530  -4.866  22.423  0.00  0.00    +0.144 A 
ATOM     10  C   UNL     1       5.999  -5.281  23.662  0.00  0.00    +0.045 A 
ATOM     11  C   UNL     1       6.340  -4.976  24.954  0.00  0.00    +0.086 A 
ATOM     12  N   UNL     1       7.179  -4.041  25.484  0.00  0.00    -0.231 N 
ATOM     13  N   UNL     1       7.385  -4.285  26.823  0.00  0.00    -0.161 NA
ENDROOT
BRANCH  12  14
ATOM     14  C   UNL     1       7.766  -2.866  24.918  0.00  0.00    +0.066 A 
ATOM     15  C   UNL     1       9.118  -2.826  24.559  0.00  0.00    +0.030 A 
ATOM     16  C   UNL     1       9.696  -1.642  24.088  0.00  0.00    +0.030 A 
ATOM     17  C   UNL     1       8.904  -0.508  23.917  0.00  0.00    +0.105 A 
ATOM     18  C   UNL     1       7.532  -0.559  24.172  0.00  0.00    +0.030 A 
ATOM     19  C   UNL     1       6.962  -1.739  24.670  0.00  0.00    +0.030 A 
BRANCH  17  20
ATOM     20  S   UNL     1       9.637   0.982  23.299  0.00  0.00    +0.056 S 
ATOM     21  O   UNL     1       8.762   2.093  23.593  0.00  0.00    -0.153 OA
ATOM     22  O   UNL     1      10.170   0.741  21.979  0.00  0.00    -0.153 OA
BRANCH  20  23
ATOM     23  N   UNL     1      10.969   1.159  24.308  0.00  0.00    -0.204 NA
ATOM     24  H   UNL     1      11.822   0.935  23.796  0.00  0.00    +0.144 HD
ATOM     25  H   UNL     1      10.840   0.600  25.152  0.00  0.00    +0.144 HD
ENDBRANCH  20  23
ENDBRANCH  17  20
ENDBRANCH  12  14
BRANCH   1  29
ATOM     26  N   UNL     1       5.430  -5.080  29.276  0.00  0.00    -0.324 N 
ATOM     27  H   UNL     1       4.923  -4.301  28.873  0.00  0.00    +0.145 HD
ATOM     28  H   UNL     1       5.253  -5.390  30.219  0.00  0.00    +0.145 HD
ATOM     29  C   UNL     1       6.335  -5.761  28.513  0.00  0.00    +0.262 C 
ATOM     30  O   UNL     1       6.939  -6.729  28.967  0.00  0.00    -0.269 OA
ENDBRANCH   1  29
TORSDOF 4
ENDMDL
MODEL 3
REMARK VINA RESULT:      -7.3      4.874      9.663
REMARK  Name = 
REMARK  4 active torsions:
REMARK  status: ('A' for Active; 'I' for Inactive)
REMARK    1  A    between atoms: C_2  and  C_4
REMARK    2  A    between atoms: N_6  and  C_16
REMARK    3  A    between atoms: C_19  and  S_22
REMARK    4  A    between atoms: S_22  and  N_23
REMARK                            x       y       z     vdW  Elec       q    Type
REMARK                         _______ _______ _______ _____ _____    ______ ____
ROOT
ATOM      1  C   UNL     1      11.347   4.677  23.438  0.00  0.00    +0.155 A 
ATOM      2  C   UNL     1      10.025   5.151  23.611  0.00  0.00    +0.033 A 
ATOM      3  C   UNL     1       9.363   6.404  23.578  0.00  0.00    +0.014 A 
ATOM      4  C   UNL     1       7.987   6.521  23.884  0.00  0.00    +0.028 A 
ATOM      5  C   UNL     1       7.328   5.359  24.282  0.00  0.00    +0.068 A 
ATOM      6  N   UNL     1       6.058   5.079  24.699  0.00  0.00    -0.277 N 
ATOM      7  H   UNL     1       5.271   5.716  24.762  0.00  0.00    +0.189 HD
ATOM      8  N   UNL     1       5.885   3.801  25.105  0.00  0.00    -0.181 NA
ATOM      9  C   UNL     1       7.086   3.236  24.921  0.00  0.00    +0.144 A 
ATOM     10  C   UNL     1       7.987   4.147  24.330  0.00  0.00    +0.045 A 
ATOM     11  C   UNL     1       9.295   4.021  23.941  0.00  0.00    +0.086 A 
ATOM     12  N   UNL     1      10.116   2.939  23.821  0.00  0.00    -0.231 N 
ATOM     13  N   UNL     1      11.418   3.342  23.635  0.00  0.00    -0.161 NA
ENDROOT
BRANCH  12  14
ATOM     14  C   UNL     1       9.833   1.538  23.770  0.00  0.00    +0.066 A 
ATOM     15  C   UNL     1       9.489   0.906  22.569  0.00  0.00    +0.030 A 
ATOM     16  C   UNL     1       9.130  -0.446  22.552  0.00  0.00    +0.030 A 
ATOM     17  C   UNL     1       9.175  -1.187  23.732  0.00  0.00    +0.105 A 
ATOM     18  C   UNL     1       9.616  -0.599  24.920  0.00  0.00    +0.030 A 
ATOM     19  C   UNL     1       9.947   0.763  24.938  0.00  0.00    +0.030 A 
BRANCH  17  20
ATOM     20  S   UNL     1       8.742  -2.904  23.699  0.00  0.00    +0.056 S 
ATOM     21  O   UNL     1       9.883  -3.684  24.119  0.00  0.00    -0.153 OA
ATOM     22  O   UNL     1       8.010  -3.190  22.487  0.00  0.00    -0.153 OA
BRANCH  20  23
ATOM     23  N   UNL     1       7.624  -3.006  24.948  0.00  0.00    -0.204 NA
ATOM     24  H   UNL     1       7.699  -2.184  25.547  0.00  0.00    +0.144 HD
ATOM     25  H   UNL     1       7.742  -3.888  25.447  0.00  0.00    +0.144 HD
ENDBRANCH  20  23
ENDBRANCH  17  20
ENDBRANCH  12  14
BRANCH   1  29
ATOM     26  N   UNL     1      12.896   6.380  24.093  0.00  0.00    -0.324 N 
ATOM     27  H   UNL     1      12.375   6.414  24.962  0.00  0.00    +0.145 HD
ATOM     28  H   UNL     1      13.709   6.959  23.946  0.00  0.00    +0.145 HD
ATOM     29  C   UNL     1      12.524   5.498  23.120  0.00  0.00    +0.262 C 
ATOM     30  O   UNL     1      13.158   5.415  22.071  0.00  0.00    -0.269 OA
ENDBRANCH   1  29
TORSDOF 4
ENDMDL
MODEL 4
REMARK VINA RESULT:      -7.2      3.686      7.365
REMARK  Name = 
REMARK  4 active torsions:
REMARK  status: ('A' for Active; 'I' for Inactive)
REMARK    1  A    between atoms: C_2  and  C_4
REMARK    2  A    between atoms: N_6  and  C_16
REMARK    3  A    between atoms: C_19  and  S_22
REMARK    4  A    between atoms: S_22  and  N_23
REMARK                            x       y       z     vdW  Elec       q    Type
REMARK                         _______ _______ _______ _____ _____    ______ ____
ROOT
ATOM      1  C   UNL     1       5.695   1.718  23.964  0.00  0.00    +0.155 A 
ATOM      2  C   UNL     1       6.865   1.495  23.199  0.00  0.00    +0.033 A 
ATOM      3  C   UNL     1       7.682   2.245  22.317  0.00  0.00    +0.014 A 
ATOM      4  C   UNL     1       8.778   1.655  21.644  0.00  0.00    +0.028 A 
ATOM      5  C   UNL     1       8.978   0.290  21.840  0.00  0.00    +0.068 A 
ATOM      6  N   UNL     1       9.862  -0.625  21.342  0.00  0.00    -0.277 N 
ATOM      7  H   UNL     1      10.638  -0.458  20.711  0.00  0.00    +0.189 HD
ATOM      8  N   UNL     1       9.611  -1.895  21.729  0.00  0.00    -0.181 NA
ATOM      9  C   UNL     1       8.536  -1.786  22.522  0.00  0.00    +0.144 A 
ATOM     10  C   UNL     1       8.164  -0.436  22.686  0.00  0.00    +0.045 A 
ATOM     11  C   UNL     1       7.163   0.159  23.409  0.00  0.00    +0.086 A 
ATOM     12  N   UNL     1       6.304  -0.322  24.352  0.00  0.00    -0.231 N 
ATOM     13  N   UNL     1       5.311   0.595  24.611  0.00  0.00    -0.161 NA
ENDROOT
BRANCH  12  14
ATOM     14  C   UNL     1       6.330  -1.520  25.133  0.00  0.00    +0.066 A 
ATOM     15  C   UNL     1       7.392  -1.806  25.998  0.00  0.00    +0.030 A 
ATOM     16  C   UNL     1       7.444  -3.022  26.687  0.00  0.00    +0.030 A 
ATOM     17  C   UNL     1       6.397  -3.933  26.558  0.00  0.00    +0.105 A 
ATOM     18  C   UNL     1       5.280  -3.621  25.781  0.00  0.00    +0.030 A 
ATOM     19  C   UNL     1       5.245  -2.414  25.070  0.00  0.00    +0.030 A 
BRANCH  17  20
ATOM     20  S   UNL     1       6.458  -5.462  27.452  0.00  0.00    +0.056 S 
ATOM     21  O   UNL     1       5.755  -6.474  26.698  0.00  0.00    -0.153 OA
ATOM     22  O   UNL     1       6.194  -5.210  28.849  0.00  0.00    -0.153 OA
BRANCH  20  23
ATOM     23  N   UNL     1       8.088  -5.857  27.355  0.00  0.00    -0.204 NA
ATOM     24  H   UNL     1       8.578  -5.509  28.179  0.00  0.00    +0.144 HD
ATOM     25  H   UNL     1       8.475  -5.514  26.475  0.00  0.00    +0.144 HD
ENDBRANCH  20  23
ENDBRANCH  17  20
ENDBRANCH  12  14
BRANCH   1  29
ATOM     26  N   UNL     1       3.793   3.017  23.313  0.00  0.00    -0.324 N 
ATOM     27  H   UNL     1       3.511   2.201  22.784  0.00  0.00    +0.145 HD
ATOM     28  H   UNL     1       3.220   3.846  23.343  0.00  0.00    +0.145 HD
ATOM     29  C   UNL     1       4.945   2.979  24.045  0.00  0.00    +0.262 C 
ATOM     30  O   UNL     1       5.292   3.944  24.722  0.00  0.00    -0.269 OA
ENDBRANCH   1  29
TORSDOF 4
ENDMDL
MODEL 5
REMARK VINA RESULT:      -7.0      4.014      7.461
REMARK  Name = 
REMARK  4 active torsions:
REMARK  status: ('A' for Active; 'I' for Inactive)
REMARK    1  A    between atoms: C_2  and  C_4
REMARK    2  A    between atoms: N_6  and  C_16
REMARK    3  A    between atoms: C_19  and  S_22
REMARK    4  A    between atoms: S_22  and  N_23
REMARK                            x       y       z     vdW  Elec       q    Type
REMARK                         _______ _______ _______ _____ _____    ______ ____
ROOT
ATOM      1  C   UNL     1       4.953   1.996  24.685  0.00  0.00    +0.155 A 
ATOM      2  C   UNL     1       6.047   2.425  23.896  0.00  0.00    +0.033 A 
ATOM      3  C   UNL     1       6.478   3.636  23.298  0.00  0.00    +0.014 A 
ATOM      4  C   UNL     1       7.632   3.686  22.481  0.00  0.00    +0.028 A 
ATOM      5  C   UNL     1       8.287   2.480  22.239  0.00  0.00    +0.068 A 
ATOM      6  N   UNL     1       9.366   2.116  21.485  0.00  0.00    -0.277 N 
ATOM      7  H   UNL     1       9.976   2.718  20.943  0.00  0.00    +0.189 HD
ATOM      8  N   UNL     1       9.586   0.783  21.453  0.00  0.00    -0.181 NA
ATOM      9  C   UNL     1       8.622   0.275  22.233  0.00  0.00    +0.144 A 
ATOM     10  C   UNL     1       7.847   1.303  22.811  0.00  0.00    +0.045 A 
ATOM     11  C   UNL     1       6.787   1.275  23.678  0.00  0.00    +0.086 A 
ATOM     12  N   UNL     1       6.233   0.271  24.417  0.00  0.00    -0.231 N 
ATOM     13  N   UNL     1       5.027   0.672  24.944  0.00  0.00    -0.161 NA
ENDROOT
BRANCH  12  14
ATOM     14  C   UNL     1       6.730  -1.019  24.782  0.00  0.00    +0.066 A 
ATOM     15  C   UNL     1       7.781  -1.166  25.695  0.00  0.00    +0.030 A 
ATOM     16  C   UNL     1       8.312  -2.430  25.974  0.00  0.00    +0.030 A 
ATOM     17  C   UNL     1       7.750  -3.560  25.384  0.00  0.00    +0.105 A 
ATOM     18  C   UNL     1       6.635  -3.443  24.551  0.00  0.00    +0.030 A 
ATOM     19  C   UNL     1       6.123  -2.172  24.252  0.00  0.00    +0.030 A 
BRANCH  17  20
ATOM     20  S   UNL     1       8.413  -5.160  25.760  0.00  0.00    +0.056 S 
ATOM     21  O   UNL     1       9.172  -5.631  24.625  0.00  0.00    -0.153 OA
ATOM     22  O   UNL     1       7.396  -5.961  26.400  0.00  0.00    -0.153 OA
BRANCH  20  23
ATOM     23  N   UNL     1       9.537  -4.799  26.954  0.00  0.00    -0.204 NA
ATOM     24  H   UNL     1       9.731  -5.632  27.509  0.00  0.00    +0.144 HD
ATOM     25  H   UNL     1       9.210  -4.006  27.509  0.00  0.00    +0.144 HD
ENDBRANCH  20  23
ENDBRANCH  17  20
ENDBRANCH  12  14
BRANCH   1  29
ATOM     26  N   UNL     1       4.145   3.668  26.195  0.00  0.00    -0.324 N 
ATOM     27  H   UNL     1       5.086   3.677  26.570  0.00  0.00    +0.145 HD
ATOM     28  H   UNL     1       3.433   4.288  26.550  0.00  0.00    +0.145 HD
ATOM     29  C   UNL     1       3.844   2.838  25.154  0.00  0.00    +0.262 C 
ATOM     30  O   UNL     1       2.719   2.832  24.660  0.00  0.00    -0.269 OA
ENDBRANCH   1  29
TORSDOF 4
ENDMDL
MODEL 6
REMARK VINA RESULT:      -6.9      3.901      7.739
REMARK  Name = 
REMARK  4 active torsions:
REMARK  status: ('A' for Active; 'I' for Inactive)
REMARK    1  A    between atoms: C_2  and  C_4
REMARK    2  A    between atoms: N_6  and  C_16
REMARK    3  A    between atoms: C_19  and  S_22
REMARK    4  A    between atoms: S_22  and  N_23
REMARK                            x       y       z     vdW  Elec       q    Type
REMARK                         _______ _______ _______ _____ _____    ______ ____
ROOT
ATOM      1  C   UNL     1       7.295   2.821  26.553  0.00  0.00    +0.155 A 
ATOM      2  C   UNL     1       8.118   3.042  25.423  0.00  0.00    +0.033 A 
ATOM      3  C   UNL     1       8.756   4.148  24.809  0.00  0.00    +0.014 A 
ATOM      4  C   UNL     1       9.470   4.009  23.595  0.00  0.00    +0.028 A 
ATOM      5  C   UNL     1       9.463   2.749  23.000  0.00  0.00    +0.068 A 
ATOM      6  N   UNL     1       9.972   2.241  21.838  0.00  0.00    -0.277 N 
ATOM      7  H   UNL     1      10.539   2.719  21.148  0.00  0.00    +0.189 HD
ATOM      8  N   UNL     1       9.618   0.958  21.602  0.00  0.00    -0.181 NA
ATOM      9  C   UNL     1       8.871   0.625  22.664  0.00  0.00    +0.144 A 
ATOM     10  C   UNL     1       8.822   1.682  23.597  0.00  0.00    +0.045 A 
ATOM     11  C   UNL     1       8.214   1.799  24.820  0.00  0.00    +0.086 A 
ATOM     12  N   UNL     1       7.604   0.888  25.631  0.00  0.00    -0.231 N 
ATOM     13  N   UNL     1       6.923   1.525  26.642  0.00  0.00    -0.161 NA
ENDROOT
BRANCH  12  14
ATOM     14  C   UNL     1       7.641  -0.542  25.644  0.00  0.00    +0.066 A 
ATOM     15  C   UNL     1       8.637  -1.240  26.337  0.00  0.00    +0.030 A 
ATOM     16  C   UNL     1       8.709  -2.635  26.267  0.00  0.00    +0.030 A 
ATOM     17  C   UNL     1       7.745  -3.342  25.550  0.00  0.00    +0.105 A 
ATOM     18  C   UNL     1       6.685  -2.669  24.939  0.00  0.00    +0.030 A 
ATOM     19  C   UNL     1       6.632  -1.269  24.987  0.00  0.00    +0.030 A 
BRANCH  17  20
ATOM     20  S   UNL     1       7.829  -5.110  25.485  0.00  0.00    +0.056 S 
ATOM     21  O   UNL     1       9.013  -5.496  24.752  0.00  0.00    -0.153 OA
ATOM     22  O   UNL     1       6.521  -5.641  25.183  0.00  0.00    -0.153 OA
BRANCH  20  23
ATOM     23  N   UNL     1       8.128  -5.503  27.090  0.00  0.00    -0.204 NA
ATOM     24  H   UNL     1       9.000  -5.070  27.396  0.00  0.00    +0.144 HD
ATOM     25  H   UNL     1       8.113  -6.517  27.207  0.00  0.00    +0.144 HD
ENDBRANCH  20  23
ENDBRANCH  17  20
ENDBRANCH  12  14
BRANCH   1  29
ATOM     26  N   UNL     1       5.889   4.694  27.045  0.00  0.00    -0.324 N 
ATOM     27  H   UNL     1       5.528   4.574  26.106  0.00  0.00    +0.145 HD
ATOM     28  H   UNL     1       5.524   5.407  27.659  0.00  0.00    +0.145 HD
ATOM     29  C   UNL     1       6.851   3.845  27.510  0.00  0.00    +0.262 C 
ATOM     30  O   UNL     1       7.282   3.949  28.655  0.00  0.00    -0.269 OA
ENDBRANCH   1  29
TORSDOF 4
ENDMDL
MODEL 7
REMARK VINA RESULT:      -6.5      2.902      3.873
REMARK  Name = 
REMARK  4 active torsions:
REMARK  status: ('A' for Active; 'I' for Inactive)
REMARK    1  A    between atoms: C_2  and  C_4
REMARK    2  A    between atoms: N_6  and  C_16
REMARK    3  A    between atoms: C_19  and  S_22
REMARK    4  A    between atoms: S_22  and  N_23
REMARK                            x       y       z     vdW  Elec       q    Type
REMARK                         _______ _______ _______ _____ _____    ______ ____
ROOT
ATOM      1  C   UNL     1       3.818  -2.700  26.048  0.00  0.00    +0.155 A 
ATOM      2  C   UNL     1       4.735  -3.770  26.182  0.00  0.00    +0.033 A 
ATOM      3  C   UNL     1       4.673  -5.151  26.493  0.00  0.00    +0.014 A 
ATOM      4  C   UNL     1       5.845  -5.934  26.617  0.00  0.00    +0.028 A 
ATOM      5  C   UNL     1       7.063  -5.271  26.482  0.00  0.00    +0.068 A 
ATOM      6  N   UNL     1       8.372  -5.651  26.585  0.00  0.00    -0.277 N 
ATOM      7  H   UNL     1       8.736  -6.582  26.752  0.00  0.00    +0.189 HD
ATOM      8  N   UNL     1       9.247  -4.626  26.488  0.00  0.00    -0.181 NA
ATOM      9  C   UNL     1       8.470  -3.551  26.295  0.00  0.00    +0.144 A 
ATOM     10  C   UNL     1       7.113  -3.921  26.199  0.00  0.00    +0.045 A 
ATOM     11  C   UNL     1       5.975  -3.187  25.985  0.00  0.00    +0.086 A 
ATOM     12  N   UNL     1       5.777  -1.890  25.615  0.00  0.00    -0.231 N 
ATOM     13  N   UNL     1       4.456  -1.541  25.773  0.00  0.00    -0.161 NA
ENDROOT
BRANCH  12  14
ATOM     14  C   UNL     1       6.661  -0.926  25.036  0.00  0.00    +0.066 A 
ATOM     15  C   UNL     1       7.364  -0.010  25.828  0.00  0.00    +0.030 A 
ATOM     16  C   UNL     1       8.155   0.982  25.240  0.00  0.00    +0.030 A 
ATOM     17  C   UNL     1       8.294   1.022  23.854  0.00  0.00    +0.105 A 
ATOM     18  C   UNL     1       7.684   0.054  23.054  0.00  0.00    +0.030 A 
ATOM     19  C   UNL     1       6.869  -0.921  23.645  0.00  0.00    +0.030 A 
BRANCH  17  20
ATOM     20  S   UNL     1       9.317   2.267  23.117  0.00  0.00    +0.056 S 
ATOM     21  O   UNL     1      10.682   2.068  23.547  0.00  0.00    -0.153 OA
ATOM     22  O   UNL     1       8.654   3.547  23.208  0.00  0.00    -0.153 OA
BRANCH  20  23
ATOM     23  N   UNL     1       9.273   1.838  21.494  0.00  0.00    -0.204 NA
ATOM     24  H   UNL     1       8.306   1.809  21.171  0.00  0.00    +0.144 HD
ATOM     25  H   UNL     1       9.777   0.962  21.354  0.00  0.00    +0.144 HD
ENDBRANCH  20  23
ENDBRANCH  17  20
ENDBRANCH  12  14
BRANCH   1  29
ATOM     26  N   UNL     1       1.928  -2.911  27.502  0.00  0.00    -0.324 N 
ATOM     27  H   UNL     1       2.604  -2.920  28.256  0.00  0.00    +0.145 HD
ATOM     28  H   UNL     1       0.937  -2.954  27.686  0.00  0.00    +0.145 HD
ATOM     29  C   UNL     1       2.360  -2.787  26.213  0.00  0.00    +0.262 C 
ATOM     30  O   UNL     1       1.559  -2.741  25.283  0.00  0.00    -0.269 OA
ENDBRANCH   1  29
TORSDOF 4
ENDMDL
MODEL 8
REMARK VINA RESULT:      -6.5      2.916      3.137
REMARK  Name = 
REMARK  4 active torsions:
REMARK  status: ('A' for Active; 'I' for Inactive)
REMARK    1  A    between atoms: C_2  and  C_4
REMARK    2  A    between atoms: N_6  and  C_16
REMARK    3  A    between atoms: C_19  and  S_22
REMARK    4  A    between atoms: S_22  and  N_23
REMARK                            x       y       z     vdW  Elec       q    Type
REMARK                         _______ _______ _______ _____ _____    ______ ____
ROOT
ATOM      1  C   UNL     1       3.479  -3.014  25.380  0.00  0.00    +0.155 A 
ATOM      2  C   UNL     1       3.775  -4.013  24.422  0.00  0.00    +0.033 A 
ATOM      3  C   UNL     1       3.125  -5.151  23.881  0.00  0.00    +0.014 A 
ATOM      4  C   UNL     1       3.773  -6.001  22.955  0.00  0.00    +0.028 A 
ATOM      5  C   UNL     1       5.100  -5.704  22.648  0.00  0.00    +0.068 A 
ATOM      6  N   UNL     1       6.053  -6.297  21.868  0.00  0.00    -0.277 N 
ATOM      7  H   UNL     1       5.951  -7.115  21.278  0.00  0.00    +0.189 HD
ATOM      8  N   UNL     1       7.270  -5.715  21.956  0.00  0.00    -0.181 NA
ATOM      9  C   UNL     1       7.083  -4.698  22.809  0.00  0.00    +0.144 A 
ATOM     10  C   UNL     1       5.730  -4.605  23.195  0.00  0.00    +0.045 A 
ATOM     11  C   UNL     1       5.068  -3.730  24.017  0.00  0.00    +0.086 A 
ATOM     12  N   UNL     1       5.444  -2.555  24.597  0.00  0.00    -0.231 N 
ATOM     13  N   UNL     1       4.520  -2.167  25.540  0.00  0.00    -0.161 NA
ENDROOT
BRANCH  12  14
ATOM     14  C   UNL     1       6.536  -1.672  24.324  0.00  0.00    +0.066 A 
ATOM     15  C   UNL     1       7.593  -1.517  25.229  0.00  0.00    +0.030 A 
ATOM     16  C   UNL     1       8.607  -0.584  24.988  0.00  0.00    +0.030 A 
ATOM     17  C   UNL     1       8.599   0.154  23.806  0.00  0.00    +0.105 A 
ATOM     18  C   UNL     1       7.609  -0.062  22.844  0.00  0.00    +0.030 A 
ATOM     19  C   UNL     1       6.579  -0.977  23.102  0.00  0.00    +0.030 A 
BRANCH  17  20
ATOM     20  S   UNL     1       9.899   1.316  23.496  0.00  0.00    +0.056 S 
ATOM     21  O   UNL     1      11.157   0.732  23.900  0.00  0.00    -0.153 OA
ATOM     22  O   UNL     1       9.480   2.629  23.925  0.00  0.00    -0.153 OA
BRANCH  20  23
ATOM     23  N   UNL     1       9.928   1.367  21.817  0.00  0.00    -0.204 NA
ATOM     24  H   UNL     1       9.414   2.183  21.487  0.00  0.00    +0.144 HD
ATOM     25  H   UNL     1       9.581   0.485  21.438  0.00  0.00    +0.144 HD
ENDBRANCH  20  23
ENDBRANCH  17  20
ENDBRANCH  12  14
BRANCH   1  29
ATOM     26  N   UNL     1       2.113  -3.761  27.197  0.00  0.00    -0.324 N 
ATOM     27  H   UNL     1       2.867  -4.407  27.400  0.00  0.00    +0.145 HD
ATOM     28  H   UNL     1       1.289  -3.718  27.778  0.00  0.00    +0.145 HD
ATOM     29  C   UNL     1       2.232  -2.896  26.148  0.00  0.00    +0.262 C 
ATOM     30  O   UNL     1       1.346  -2.082  25.900  0.00  0.00    -0.269 OA
ENDBRANCH   1  29
TORSDOF 4
ENDMDL
MODEL 9
REMARK VINA RESULT:      -6.4      3.589      7.593
REMARK  Name = 
REMARK  4 active torsions:
REMARK  status: ('A' for Active; 'I' for Inactive)
REMARK    1  A    between atoms: C_2  and  C_4
REMARK    2  A    between atoms: N_6  and  C_16
REMARK    3  A    between atoms: C_19  and  S_22
REMARK    4  A    between atoms: S_22  and  N_23
REMARK                            x       y       z     vdW  Elec       q    Type
REMARK                         _______ _______ _______ _____ _____    ______ ____
ROOT
ATOM      1  C   UNL     1       8.687  -1.776  23.150  0.00  0.00    +0.155 A 
ATOM      2  C   UNL     1       8.177  -0.868  24.110  0.00  0.00    +0.033 A 
ATOM      3  C   UNL     1       8.459   0.454  24.532  0.00  0.00    +0.014 A 
ATOM      4  C   UNL     1       7.769   1.046  25.616  0.00  0.00    +0.028 A 
ATOM      5  C   UNL     1       6.846   0.247  26.288  0.00  0.00    +0.068 A 
ATOM      6  N   UNL     1       6.046   0.427  27.381  0.00  0.00    -0.277 N 
ATOM      7  H   UNL     1       5.931   1.270  27.933  0.00  0.00    +0.189 HD
ATOM      8  N   UNL     1       5.378  -0.685  27.759  0.00  0.00    -0.181 NA
ATOM      9  C   UNL     1       5.750  -1.608  26.862  0.00  0.00    +0.144 A 
ATOM     10  C   UNL     1       6.593  -1.047  25.880  0.00  0.00    +0.045 A 
ATOM     11  C   UNL     1       7.194  -1.584  24.772  0.00  0.00    +0.086 A 
ATOM     12  N   UNL     1       7.044  -2.782  24.137  0.00  0.00    -0.231 N 
ATOM     13  N   UNL     1       8.047  -2.964  23.213  0.00  0.00    -0.161 NA
ENDROOT
BRANCH  12  14
ATOM     14  C   UNL     1       6.015  -3.771  24.215  0.00  0.00    +0.066 A 
ATOM     15  C   UNL     1       6.129  -4.878  25.065  0.00  0.00    +0.030 A 
ATOM     16  C   UNL     1       5.154  -5.882  25.064  0.00  0.00    +0.030 A 
ATOM     17  C   UNL     1       4.027  -5.749  24.255  0.00  0.00    +0.105 A 
ATOM     18  C   UNL     1       3.846  -4.602  23.478  0.00  0.00    +0.030 A 
ATOM     19  C   UNL     1       4.839  -3.612  23.460  0.00  0.00    +0.030 A 
BRANCH  17  20
ATOM     20  S   UNL     1       2.786  -7.012  24.276  0.00  0.00    +0.056 S 
ATOM     21  O   UNL     1       1.590  -6.484  24.893  0.00  0.00    -0.153 OA
ATOM     22  O   UNL     1       3.382  -8.262  24.683  0.00  0.00    -0.153 OA
BRANCH  20  23
ATOM     23  N   UNL     1       2.431  -7.179  22.643  0.00  0.00    -0.204 NA
ATOM     24  H   UNL     1       1.588  -7.743  22.528  0.00  0.00    +0.144 HD
ATOM     25  H   UNL     1       3.242  -7.552  22.149  0.00  0.00    +0.144 HD
ENDBRANCH  20  23
ENDBRANCH  17  20
ENDBRANCH  12  14
BRANCH   1  29
ATOM     26  N   UNL     1       9.449  -0.790  21.107  0.00  0.00    -0.324 N 
ATOM     27  H   UNL     1       8.496  -0.465  20.996  0.00  0.00    +0.145 HD
ATOM     28  H   UNL     1      10.164  -0.557  20.435  0.00  0.00    +0.145 HD
ATOM     29  C   UNL     1       9.789  -1.514  22.214  0.00  0.00    +0.262 C 
ATOM     30  O   UNL     1      10.945  -1.891  22.388  0.00  0.00    -0.269 OA
ENDBRANCH   1  29
TORSDOF 4
ENDMDL
