MODEL 1
REMARK VINA RESULT:      -7.2      0.000      0.000
REMARK  Name = 
REMARK  8 active torsions:
REMARK  status: ('A' for Active; 'I' for Inactive)
REMARK    1  A    between atoms: C_2  and  N_3
REMARK    2  A    between atoms: C_2  and  C_4
REMARK    3  A    between atoms: C_2  and  C_13
REMARK    4  A    between atoms: C_13  and  C_15
REMARK    5  A    between atoms: C_13  and  C_20
REMARK    6  A    between atoms: N_17  and  C_18
REMARK    7  A    between atoms: N_17  and  C_19
REMARK    8  A    between atoms: C_23  and  C_26
REMARK                            x       y       z     vdW  Elec       q    Type
REMARK                         _______ _______ _______ _____ _____    ______ ____
ROOT
ATOM      1  C   UNL     1       5.425  -4.410  26.789  0.00  0.00    +0.131 C 
ENDROOT
BRANCH   1   2
ATOM      2  C   UNL     1       6.261  -3.191  26.335  0.00  0.00    -0.034 A 
ATOM      3  C   UNL     1       7.560  -2.960  26.822  0.00  0.00    +0.005 A 
ATOM      4  C   UNL     1       8.317  -1.860  26.405  0.00  0.00    +0.009 A 
ATOM      5  C   UNL     1       7.794  -0.954  25.486  0.00  0.00    -0.016 A 
ATOM      6  C   UNL     1       6.491  -1.124  25.031  0.00  0.00    +0.009 A 
ATOM      7  C   UNL     1       5.736  -2.222  25.460  0.00  0.00    +0.005 A 
BRANCH   5   8
ATOM      8  C   UNL     1       8.651   0.090  24.922  0.00  0.00    +0.000 A 
ATOM      9  C   UNL     1       9.977  -0.218  24.375  0.00  0.00    +0.013 A 
ATOM     10  C   UNL     1      10.788   0.735  23.887  0.00  0.00    +0.049 A 
ATOM     11  C   UNL     1      10.355   2.087  23.886  0.00  0.00    +0.156 A 
ATOM     12  N   UNL     1       9.082   2.364  24.396  0.00  0.00    -0.220 N 
ATOM     13  N   UNL     1       8.860   3.699  24.314  0.00  0.00    -0.154 NA
ATOM     14  C   UNL     1       9.997   4.141  23.772  0.00  0.00    +0.246 A 
ATOM     15  N   UNL     1      10.938   3.197  23.496  0.00  0.00    -0.215 NA
ATOM     16  C   UNL     1       8.245   1.377  24.903  0.00  0.00    +0.123 A 
ENDBRANCH   5   8
ENDBRANCH   1   2
BRANCH   1  17
ATOM     17  C   UNL     1       5.216  -4.456  28.328  0.00  0.00    +0.224 C 
ATOM     18  N   UNL     1       4.156  -3.764  28.909  0.00  0.00    -0.307 N 
ATOM     19  C   UNL     1       4.007  -3.799  30.359  0.00  0.00    +0.131 C 
ATOM     20  C   UNL     1       3.114  -3.040  28.194  0.00  0.00    +0.131 C 
ATOM     21  O   UNL     1       6.024  -5.068  29.040  0.00  0.00    -0.275 OA
ENDBRANCH   1  17
BRANCH   1  22
ATOM     22  C   UNL     1       5.990  -5.831  26.368  0.00  0.00    +0.154 C 
BRANCH  22  23
ATOM     23  C   UNL     1       5.587  -6.190  24.905  0.00  0.00    +0.234 C 
ATOM     24  N   UNL     1       6.259  -5.702  23.800  0.00  0.00    -0.297 N 
ATOM     25  C   UNL     1       5.779  -6.051  22.465  0.00  0.00    +0.144 C 
ATOM     26  C   UNL     1       6.681  -5.321  21.477  0.00  0.00    +0.185 C 
ATOM     27  F   UNL     1       5.944  -4.662  20.548  0.00  0.00    -0.244 F 
ATOM     28  C   UNL     1       7.445  -4.315  22.317  0.00  0.00    +0.057 C 
ATOM     29  C   UNL     1       7.497  -4.949  23.696  0.00  0.00    +0.111 C 
ATOM     30  O   UNL     1       4.648  -6.979  24.721  0.00  0.00    -0.274 OA
ENDBRANCH  22  23
BRANCH  22  31
ATOM     31  N   UNL     1       7.438  -5.979  26.663  0.00  0.00    -0.319 NA
ATOM     32  H   UNL     1       7.887  -6.268  25.782  0.00  0.00    +0.119 HD
ATOM     33  H   UNL     1       7.823  -5.044  26.795  0.00  0.00    +0.119 HD
ENDBRANCH  22  31
ENDBRANCH   1  22
TORSDOF 6
ENDMDL
MODEL 2
REMARK VINA RESULT:      -7.2      2.611      4.033
REMARK  Name = 
REMARK  8 active torsions:
REMARK  status: ('A' for Active; 'I' for Inactive)
REMARK    1  A    between atoms: C_2  and  N_3
REMARK    2  A    between atoms: C_2  and  C_4
REMARK    3  A    between atoms: C_2  and  C_13
REMARK    4  A    between atoms: C_13  and  C_15
REMARK    5  A    between atoms: C_13  and  C_20
REMARK    6  A    between atoms: N_17  and  C_18
REMARK    7  A    between atoms: N_17  and  C_19
REMARK    8  A    between atoms: C_23  and  C_26
REMARK                            x       y       z     vdW  Elec       q    Type
REMARK                         _______ _______ _______ _____ _____    ______ ____
ROOT
ATOM      1  C   UNL     1       7.161  -2.835  24.025  0.00  0.00    +0.131 C 
ENDROOT
BRANCH   1   2
ATOM      2  C   UNL     1       7.694  -1.383  23.968  0.00  0.00    -0.034 A 
ATOM      3  C   UNL     1       7.040  -0.328  24.629  0.00  0.00    +0.005 A 
ATOM      4  C   UNL     1       7.527   0.983  24.581  0.00  0.00    +0.009 A 
ATOM      5  C   UNL     1       8.686   1.278  23.867  0.00  0.00    -0.016 A 
ATOM      6  C   UNL     1       9.320   0.265  23.155  0.00  0.00    +0.009 A 
ATOM      7  C   UNL     1       8.822  -1.042  23.200  0.00  0.00    +0.005 A 
BRANCH   5   8
ATOM      8  C   UNL     1       9.286   2.609  23.966  0.00  0.00    +0.000 A 
ATOM      9  C   UNL     1       8.512   3.766  24.429  0.00  0.00    +0.013 A 
ATOM     10  C   UNL     1       9.039   4.999  24.492  0.00  0.00    +0.049 A 
ATOM     11  C   UNL     1      10.391   5.201  24.109  0.00  0.00    +0.156 A 
ATOM     12  N   UNL     1      11.122   4.086  23.684  0.00  0.00    -0.220 N 
ATOM     13  N   UNL     1      12.377   4.483  23.360  0.00  0.00    -0.154 NA
ATOM     14  C   UNL     1      12.328   5.796  23.599  0.00  0.00    +0.246 A 
ATOM     15  N   UNL     1      11.139   6.279  24.055  0.00  0.00    -0.215 NA
ATOM     16  C   UNL     1      10.573   2.810  23.618  0.00  0.00    +0.123 A 
ENDBRANCH   5   8
ENDBRANCH   1   2
BRANCH   1  17
ATOM     17  C   UNL     1       8.158  -3.815  24.701  0.00  0.00    +0.224 C 
ATOM     18  N   UNL     1       7.913  -4.280  25.991  0.00  0.00    -0.307 N 
ATOM     19  C   UNL     1       8.886  -5.172  26.611  0.00  0.00    +0.131 C 
ATOM     20  C   UNL     1       6.721  -4.012  26.785  0.00  0.00    +0.131 C 
ATOM     21  O   UNL     1       9.197  -4.141  24.110  0.00  0.00    -0.275 OA
ENDBRANCH   1  17
BRANCH   1  22
ATOM     22  C   UNL     1       6.767  -3.482  22.632  0.00  0.00    +0.154 C 
BRANCH  22  23
ATOM     23  C   UNL     1       6.328  -4.969  22.802  0.00  0.00    +0.234 C 
ATOM     24  N   UNL     1       5.209  -5.343  23.523  0.00  0.00    -0.297 N 
ATOM     25  C   UNL     1       4.903  -6.763  23.673  0.00  0.00    +0.144 C 
ATOM     26  C   UNL     1       3.664  -6.847  24.555  0.00  0.00    +0.185 C 
ATOM     27  F   UNL     1       3.847  -7.741  25.559  0.00  0.00    -0.244 F 
ATOM     28  C   UNL     1       3.510  -5.458  25.145  0.00  0.00    +0.057 C 
ATOM     29  C   UNL     1       4.145  -4.546  24.109  0.00  0.00    +0.111 C 
ATOM     30  O   UNL     1       6.985  -5.854  22.234  0.00  0.00    -0.274 OA
ENDBRANCH  22  23
BRANCH  22  31
ATOM     31  N   UNL     1       5.816  -2.642  21.861  0.00  0.00    -0.319 NA
ATOM     32  H   UNL     1       5.033  -2.428  22.497  0.00  0.00    +0.119 HD
ATOM     33  H   UNL     1       6.242  -1.724  21.741  0.00  0.00    +0.119 HD
ENDBRANCH  22  31
ENDBRANCH   1  22
TORSDOF 6
ENDMDL
MODEL 3
REMARK VINA RESULT:      -7.2      2.296      2.868
REMARK  Name = 
REMARK  8 active torsions:
REMARK  status: ('A' for Active; 'I' for Inactive)
REMARK    1  A    between atoms: C_2  and  N_3
REMARK    2  A    between atoms: C_2  and  C_4
REMARK    3  A    between atoms: C_2  and  C_13
REMARK    4  A    between atoms: C_13  and  C_15
REMARK    5  A    between atoms: C_13  and  C_20
REMARK    6  A    between atoms: N_17  and  C_18
REMARK    7  A    between atoms: N_17  and  C_19
REMARK    8  A    between atoms: C_23  and  C_26
REMARK                            x       y       z     vdW  Elec       q    Type
REMARK                         _______ _______ _______ _____ _____    ______ ____
ROOT
ATOM      1  C   UNL     1       5.341  -4.643  25.491  0.00  0.00    +0.131 C 
ENDROOT
BRANCH   1   2
ATOM      2  C   UNL     1       6.195  -3.371  25.279  0.00  0.00    -0.034 A 
ATOM      3  C   UNL     1       7.439  -3.199  25.914  0.00  0.00    +0.005 A 
ATOM      4  C   UNL     1       8.212  -2.050  25.717  0.00  0.00    +0.009 A 
ATOM      5  C   UNL     1       7.762  -1.035  24.876  0.00  0.00    -0.016 A 
ATOM      6  C   UNL     1       6.511  -1.151  24.281  0.00  0.00    +0.009 A 
ATOM      7  C   UNL     1       5.739  -2.299  24.491  0.00  0.00    +0.005 A 
BRANCH   5   8
ATOM      8  C   UNL     1       8.651   0.078  24.536  0.00  0.00    +0.000 A 
ATOM      9  C   UNL     1      10.097  -0.114  24.388  0.00  0.00    +0.013 A 
ATOM     10  C   UNL     1      10.928   0.905  24.111  0.00  0.00    +0.049 A 
ATOM     11  C   UNL     1      10.399   2.212  23.945  0.00  0.00    +0.156 A 
ATOM     12  N   UNL     1       9.016   2.377  24.074  0.00  0.00    -0.220 N 
ATOM     13  N   UNL     1       8.713   3.685  23.888  0.00  0.00    -0.154 NA
ATOM     14  C   UNL     1       9.914   4.225  23.668  0.00  0.00    +0.246 A 
ATOM     15  N   UNL     1      10.972   3.367  23.694  0.00  0.00    -0.215 NA
ATOM     16  C   UNL     1       8.157   1.322  24.363  0.00  0.00    +0.123 A 
ENDBRANCH   5   8
ENDBRANCH   1   2
BRANCH   1  17
ATOM     17  C   UNL     1       5.677  -5.379  26.817  0.00  0.00    +0.224 C 
ATOM     18  N   UNL     1       5.167  -4.907  28.025  0.00  0.00    -0.307 N 
ATOM     19  C   UNL     1       5.529  -5.599  29.256  0.00  0.00    +0.131 C 
ATOM     20  C   UNL     1       4.233  -3.800  28.184  0.00  0.00    +0.131 C 
ATOM     21  O   UNL     1       6.439  -6.355  26.804  0.00  0.00    -0.275 OA
ENDBRANCH   1  17
BRANCH   1  22
ATOM     22  C   UNL     1       5.425  -5.730  24.339  0.00  0.00    +0.154 C 
BRANCH  22  23
ATOM     23  C   UNL     1       4.114  -5.761  23.493  0.00  0.00    +0.234 C 
ATOM     24  N   UNL     1       3.088  -6.656  23.731  0.00  0.00    -0.297 N 
ATOM     25  C   UNL     1       1.919  -6.646  22.855  0.00  0.00    +0.144 C 
ATOM     26  C   UNL     1       1.010  -7.771  23.335  0.00  0.00    +0.185 C 
ATOM     27  F   UNL     1       0.616  -8.548  22.295  0.00  0.00    -0.244 F 
ATOM     28  C   UNL     1       1.870  -8.592  24.276  0.00  0.00    +0.057 C 
ATOM     29  C   UNL     1       2.878  -7.595  24.819  0.00  0.00    +0.111 C 
ATOM     30  O   UNL     1       3.965  -4.921  22.593  0.00  0.00    -0.274 OA
ENDBRANCH  22  23
BRANCH  22  31
ATOM     31  N   UNL     1       6.671  -5.621  23.540  0.00  0.00    -0.319 NA
ATOM     32  H   UNL     1       6.721  -4.647  23.208  0.00  0.00    +0.119 HD
ATOM     33  H   UNL     1       7.457  -5.659  24.189  0.00  0.00    +0.119 HD
ENDBRANCH  22  31
ENDBRANCH   1  22
TORSDOF 6
ENDMDL
MODEL 4
REMARK VINA RESULT:      -7.1      2.581      4.570
REMARK  Name = 
REMARK  8 active torsions:
REMARK  status: ('A' for Active; 'I' for Inactive)
REMARK    1  A    between atoms: C_2  and  N_3
REMARK    2  A    between atoms: C_2  and  C_4
REMARK    3  A    between atoms: C_2  and  C_13
REMARK    4  A    between atoms: C_13  and  C_15
REMARK    5  A    between atoms: C_13  and  C_20
REMARK    6  A    between atoms: N_17  and  C_18
REMARK    7  A    between atoms: N_17  and  C_19
REMARK    8  A    between atoms: C_23  and  C_26
REMARK                            x       y       z     vdW  Elec       q    Type
REMARK                         _______ _______ _______ _____ _____    ______ ____
ROOT
ATOM      1  C   UNL     1       6.849  -3.362  23.987  0.00  0.00    +0.131 C 
ENDROOT
BRANCH   1   2
ATOM      2  C   UNL     1       7.428  -1.932  23.878  0.00  0.00    -0.034 A 
ATOM      3  C   UNL     1       6.618  -0.827  23.558  0.00  0.00    +0.005 A 
ATOM      4  C   UNL     1       7.142   0.466  23.466  0.00  0.00    +0.009 A 
ATOM      5  C   UNL     1       8.498   0.694  23.690  0.00  0.00    -0.016 A 
ATOM      6  C   UNL     1       9.333  -0.387  23.951  0.00  0.00    +0.009 A 
ATOM      7  C   UNL     1       8.804  -1.679  24.032  0.00  0.00    +0.005 A 
BRANCH   5   8
ATOM      8  C   UNL     1       9.004   2.066  23.767  0.00  0.00    +0.000 A 
ATOM      9  C   UNL     1       8.130   3.186  24.130  0.00  0.00    +0.013 A 
ATOM     10  C   UNL     1       8.574   4.453  24.170  0.00  0.00    +0.049 A 
ATOM     11  C   UNL     1       9.932   4.729  23.862  0.00  0.00    +0.156 A 
ATOM     12  N   UNL     1      10.757   3.648  23.532  0.00  0.00    -0.220 N 
ATOM     13  N   UNL     1      12.002   4.114  23.267  0.00  0.00    -0.154 NA
ATOM     14  C   UNL     1      11.855   5.429  23.444  0.00  0.00    +0.246 A 
ATOM     15  N   UNL     1      10.611   5.851  23.805  0.00  0.00    -0.215 NA
ATOM     16  C   UNL     1      10.296   2.336  23.489  0.00  0.00    +0.123 A 
ENDBRANCH   5   8
ENDBRANCH   1   2
BRANCH   1  17
ATOM     17  C   UNL     1       6.245  -3.870  22.649  0.00  0.00    +0.224 C 
ATOM     18  N   UNL     1       6.747  -5.023  22.050  0.00  0.00    -0.307 N 
ATOM     19  C   UNL     1       6.182  -5.455  20.777  0.00  0.00    +0.131 C 
ATOM     20  C   UNL     1       7.763  -5.905  22.610  0.00  0.00    +0.131 C 
ATOM     21  O   UNL     1       5.352  -3.219  22.091  0.00  0.00    -0.275 OA
ENDBRANCH   1  17
BRANCH   1  22
ATOM     22  C   UNL     1       5.734  -3.574  25.094  0.00  0.00    +0.154 C 
BRANCH  22  23
ATOM     23  C   UNL     1       5.456  -5.090  25.336  0.00  0.00    +0.234 C 
ATOM     24  N   UNL     1       4.290  -5.712  24.933  0.00  0.00    -0.297 N 
ATOM     25  C   UNL     1       4.094  -7.125  25.248  0.00  0.00    +0.144 C 
ATOM     26  C   UNL     1       2.709  -7.495  24.731  0.00  0.00    +0.185 C 
ATOM     27  F   UNL     1       1.998  -8.149  25.684  0.00  0.00    -0.244 F 
ATOM     28  C   UNL     1       2.039  -6.168  24.430  0.00  0.00    +0.057 C 
ATOM     29  C   UNL     1       3.194  -5.236  24.107  0.00  0.00    +0.111 C 
ATOM     30  O   UNL     1       6.334  -5.778  25.877  0.00  0.00    -0.274 OA
ENDBRANCH  22  23
BRANCH  22  31
ATOM     31  N   UNL     1       6.000  -2.791  26.328  0.00  0.00    -0.319 NA
ATOM     32  H   UNL     1       5.156  -2.874  26.914  0.00  0.00    +0.119 HD
ATOM     33  H   UNL     1       6.686  -3.306  26.878  0.00  0.00    +0.119 HD
ENDBRANCH  22  31
ENDBRANCH   1  22
TORSDOF 6
ENDMDL
MODEL 5
REMARK VINA RESULT:      -7.0      2.449      4.734
REMARK  Name = 
REMARK  8 active torsions:
REMARK  status: ('A' for Active; 'I' for Inactive)
REMARK    1  A    between atoms: C_2  and  N_3
REMARK    2  A    between atoms: C_2  and  C_4
REMARK    3  A    between atoms: C_2  and  C_13
REMARK    4  A    between atoms: C_13  and  C_15
REMARK    5  A    between atoms: C_13  and  C_20
REMARK    6  A    between atoms: N_17  and  C_18
REMARK    7  A    between atoms: N_17  and  C_19
REMARK    8  A    between atoms: C_23  and  C_26
REMARK                            x       y       z     vdW  Elec       q    Type
REMARK                         _______ _______ _______ _____ _____    ______ ____
ROOT
ATOM      1  C   UNL     1       6.253  -2.759  24.419  0.00  0.00    +0.131 C 
ENDROOT
BRANCH   1   2
ATOM      2  C   UNL     1       7.021  -1.423  24.279  0.00  0.00    -0.034 A 
ATOM      3  C   UNL     1       6.740  -0.512  23.244  0.00  0.00    +0.005 A 
ATOM      4  C   UNL     1       7.432   0.698  23.124  0.00  0.00    +0.009 A 
ATOM      5  C   UNL     1       8.429   1.033  24.036  0.00  0.00    -0.016 A 
ATOM      6  C   UNL     1       8.768   0.126  25.034  0.00  0.00    +0.009 A 
ATOM      7  C   UNL     1       8.079  -1.087  25.143  0.00  0.00    +0.005 A 
BRANCH   5   8
ATOM      8  C   UNL     1       9.023   2.371  24.009  0.00  0.00    +0.000 A 
ATOM      9  C   UNL     1       8.243   3.563  24.357  0.00  0.00    +0.013 A 
ATOM     10  C   UNL     1       8.765   4.799  24.303  0.00  0.00    +0.049 A 
ATOM     11  C   UNL     1      10.118   4.969  23.906  0.00  0.00    +0.156 A 
ATOM     12  N   UNL     1      10.854   3.822  23.592  0.00  0.00    -0.220 N 
ATOM     13  N   UNL     1      12.108   4.192  23.234  0.00  0.00    -0.154 NA
ATOM     14  C   UNL     1      12.053   5.521  23.347  0.00  0.00    +0.246 A 
ATOM     15  N   UNL     1      10.861   6.041  23.751  0.00  0.00    -0.215 NA
ATOM     16  C   UNL     1      10.311   2.543  23.646  0.00  0.00    +0.123 A 
ENDBRANCH   5   8
ENDBRANCH   1   2
BRANCH   1  17
ATOM     17  C   UNL     1       6.275  -3.604  23.116  0.00  0.00    +0.224 C 
ATOM     18  N   UNL     1       7.191  -4.644  22.975  0.00  0.00    -0.307 N 
ATOM     19  C   UNL     1       7.210  -5.397  21.726  0.00  0.00    +0.131 C 
ATOM     20  C   UNL     1       8.117  -5.113  23.997  0.00  0.00    +0.131 C 
ATOM     21  O   UNL     1       5.510  -3.319  22.184  0.00  0.00    -0.275 OA
ENDBRANCH   1  17
BRANCH   1  22
ATOM     22  C   UNL     1       4.732  -2.639  24.853  0.00  0.00    +0.154 C 
BRANCH  22  23
ATOM     23  C   UNL     1       4.187  -3.999  25.388  0.00  0.00    +0.234 C 
ATOM     24  N   UNL     1       4.636  -4.578  26.560  0.00  0.00    -0.297 N 
ATOM     25  C   UNL     1       4.105  -5.880  26.958  0.00  0.00    +0.144 C 
ATOM     26  C   UNL     1       4.830  -6.268  28.241  0.00  0.00    +0.185 C 
ATOM     27  F   UNL     1       5.308  -7.536  28.159  0.00  0.00    -0.244 F 
ATOM     28  C   UNL     1       5.994  -5.300  28.339  0.00  0.00    +0.057 C 
ATOM     29  C   UNL     1       5.509  -4.065  27.602  0.00  0.00    +0.111 C 
ATOM     30  O   UNL     1       3.284  -4.569  24.759  0.00  0.00    -0.274 OA
ENDBRANCH  22  23
BRANCH  22  31
ATOM     31  N   UNL     1       4.484  -1.480  25.747  0.00  0.00    -0.319 NA
ATOM     32  H   UNL     1       4.075  -0.739  25.160  0.00  0.00    +0.119 HD
ATOM     33  H   UNL     1       3.701  -1.721  26.354  0.00  0.00    +0.119 HD
ENDBRANCH  22  31
ENDBRANCH   1  22
TORSDOF 6
ENDMDL
MODEL 6
REMARK VINA RESULT:      -6.9      3.902      9.091
REMARK  Name = 
REMARK  8 active torsions:
REMARK  status: ('A' for Active; 'I' for Inactive)
REMARK    1  A    between atoms: C_2  and  N_3
REMARK    2  A    between atoms: C_2  and  C_4
REMARK    3  A    between atoms: C_2  and  C_13
REMARK    4  A    between atoms: C_13  and  C_15
REMARK    5  A    between atoms: C_13  and  C_20
REMARK    6  A    between atoms: N_17  and  C_18
REMARK    7  A    between atoms: N_17  and  C_19
REMARK    8  A    between atoms: C_23  and  C_26
REMARK                            x       y       z     vdW  Elec       q    Type
REMARK                         _______ _______ _______ _____ _____    ______ ____
ROOT
ATOM      1  C   UNL     1       7.491   0.207  23.707  0.00  0.00    +0.131 C 
ENDROOT
BRANCH   1   2
ATOM      2  C   UNL     1       6.827  -1.185  23.831  0.00  0.00    -0.034 A 
ATOM      3  C   UNL     1       6.709  -1.842  25.070  0.00  0.00    +0.005 A 
ATOM      4  C   UNL     1       6.103  -3.097  25.181  0.00  0.00    +0.009 A 
ATOM      5  C   UNL     1       5.596  -3.737  24.052  0.00  0.00    -0.016 A 
ATOM      6  C   UNL     1       5.751  -3.138  22.806  0.00  0.00    +0.009 A 
ATOM      7  C   UNL     1       6.367  -1.887  22.701  0.00  0.00    +0.005 A 
BRANCH   5   8
ATOM      8  C   UNL     1       4.810  -4.963  24.199  0.00  0.00    +0.000 A 
ATOM      9  C   UNL     1       5.119  -5.953  25.236  0.00  0.00    +0.013 A 
ATOM     10  C   UNL     1       4.428  -7.098  25.359  0.00  0.00    +0.049 A 
ATOM     11  C   UNL     1       3.355  -7.365  24.469  0.00  0.00    +0.156 A 
ATOM     12  N   UNL     1       3.061  -6.405  23.495  0.00  0.00    -0.220 N 
ATOM     13  N   UNL     1       2.019  -6.845  22.748  0.00  0.00    -0.154 NA
ATOM     14  C   UNL     1       1.754  -8.030  23.304  0.00  0.00    +0.246 A 
ATOM     15  N   UNL     1       2.542  -8.390  24.354  0.00  0.00    -0.215 NA
ATOM     16  C   UNL     1       3.780  -5.221  23.367  0.00  0.00    +0.123 A 
ENDBRANCH   5   8
ENDBRANCH   1   2
BRANCH   1  17
ATOM     17  C   UNL     1       8.857   0.289  24.441  0.00  0.00    +0.224 C 
ATOM     18  N   UNL     1      10.006   0.644  23.739  0.00  0.00    -0.307 N 
ATOM     19  C   UNL     1      11.280   0.679  24.450  0.00  0.00    +0.131 C 
ATOM     20  C   UNL     1      10.062   1.059  22.344  0.00  0.00    +0.131 C 
ATOM     21  O   UNL     1       8.930  -0.012  25.641  0.00  0.00    -0.275 OA
ENDBRANCH   1  17
BRANCH   1  22
ATOM     22  C   UNL     1       6.627   1.432  24.223  0.00  0.00    +0.154 C 
BRANCH  22  23
ATOM     23  C   UNL     1       6.829   2.688  23.319  0.00  0.00    +0.234 C 
ATOM     24  N   UNL     1       7.681   3.723  23.653  0.00  0.00    -0.297 N 
ATOM     25  C   UNL     1       7.768   4.884  22.771  0.00  0.00    +0.144 C 
ATOM     26  C   UNL     1       8.731   5.861  23.435  0.00  0.00    +0.185 C 
ATOM     27  F   UNL     1       8.199   7.108  23.478  0.00  0.00    -0.244 F 
ATOM     28  C   UNL     1       8.900   5.340  24.849  0.00  0.00    +0.057 C 
ATOM     29  C   UNL     1       8.655   3.846  24.724  0.00  0.00    +0.111 C 
ATOM     30  O   UNL     1       6.231   2.744  22.235  0.00  0.00    -0.274 OA
ENDBRANCH  22  23
BRANCH  22  31
ATOM     31  N   UNL     1       5.208   1.068  24.465  0.00  0.00    -0.319 NA
ATOM     32  H   UNL     1       5.219   0.197  25.014  0.00  0.00    +0.119 HD
ATOM     33  H   UNL     1       4.830   1.733  25.138  0.00  0.00    +0.119 HD
ENDBRANCH  22  31
ENDBRANCH   1  22
TORSDOF 6
ENDMDL
MODEL 7
REMARK VINA RESULT:      -6.8      2.447      3.518
REMARK  Name = 
REMARK  8 active torsions:
REMARK  status: ('A' for Active; 'I' for Inactive)
REMARK    1  A    between atoms: C_2  and  N_3
REMARK    2  A    between atoms: C_2  and  C_4
REMARK    3  A    between atoms: C_2  and  C_13
REMARK    4  A    between atoms: C_13  and  C_15
REMARK    5  A    between atoms: C_13  and  C_20
REMARK    6  A    between atoms: N_17  and  C_18
REMARK    7  A    between atoms: N_17  and  C_19
REMARK    8  A    between atoms: C_23  and  C_26
REMARK                            x       y       z     vdW  Elec       q    Type
REMARK                         _______ _______ _______ _____ _____    ______ ____
ROOT
ATOM      1  C   UNL     1       6.862  -3.905  25.308  0.00  0.00    +0.131 C 
ENDROOT
BRANCH   1   2
ATOM      2  C   UNL     1       7.010  -2.376  25.497  0.00  0.00    -0.034 A 
ATOM      3  C   UNL     1       7.933  -1.828  26.407  0.00  0.00    +0.005 A 
ATOM      4  C   UNL     1       8.070  -0.446  26.571  0.00  0.00    +0.009 A 
ATOM      5  C   UNL     1       7.285   0.433  25.829  0.00  0.00    -0.016 A 
ATOM      6  C   UNL     1       6.323  -0.081  24.965  0.00  0.00    +0.009 A 
ATOM      7  C   UNL     1       6.185  -1.465  24.813  0.00  0.00    +0.005 A 
BRANCH   5   8
ATOM      8  C   UNL     1       7.555   1.871  25.875  0.00  0.00    +0.000 A 
ATOM      9  C   UNL     1       6.915   2.739  26.868  0.00  0.00    +0.013 A 
ATOM     10  C   UNL     1       7.127   4.065  26.900  0.00  0.00    +0.049 A 
ATOM     11  C   UNL     1       8.005   4.655  25.952  0.00  0.00    +0.156 A 
ATOM     12  N   UNL     1       8.620   3.811  25.021  0.00  0.00    -0.220 N 
ATOM     13  N   UNL     1       9.407   4.558  24.208  0.00  0.00    -0.154 NA
ATOM     14  C   UNL     1       9.217   5.791  24.686  0.00  0.00    +0.246 A 
ATOM     15  N   UNL     1       8.370   5.899  25.747  0.00  0.00    -0.215 NA
ATOM     16  C   UNL     1       8.397   2.439  24.988  0.00  0.00    +0.123 A 
ENDBRANCH   5   8
ENDBRANCH   1   2
BRANCH   1  17
ATOM     17  C   UNL     1       7.146  -4.701  26.611  0.00  0.00    +0.224 C 
ATOM     18  N   UNL     1       6.120  -5.411  27.232  0.00  0.00    -0.307 N 
ATOM     19  C   UNL     1       6.411  -6.121  28.473  0.00  0.00    +0.131 C 
ATOM     20  C   UNL     1       4.765  -5.577  26.724  0.00  0.00    +0.131 C 
ATOM     21  O   UNL     1       8.273  -4.662  27.124  0.00  0.00    -0.275 OA
ENDBRANCH   1  17
BRANCH   1  22
ATOM     22  C   UNL     1       7.766  -4.552  24.178  0.00  0.00    +0.154 C 
BRANCH  22  23
ATOM     23  C   UNL     1       7.891  -3.608  22.942  0.00  0.00    +0.234 C 
ATOM     24  N   UNL     1       8.826  -2.594  22.864  0.00  0.00    -0.297 N 
ATOM     25  C   UNL     1       8.836  -1.725  21.690  0.00  0.00    +0.144 C 
ATOM     26  C   UNL     1       9.925  -0.687  21.928  0.00  0.00    +0.185 C 
ATOM     27  F   UNL     1       9.459   0.564  21.689  0.00  0.00    -0.244 F 
ATOM     28  C   UNL     1      10.272  -0.818  23.399  0.00  0.00    +0.057 C 
ATOM     29  C   UNL     1       9.947  -2.265  23.727  0.00  0.00    +0.111 C 
ATOM     30  O   UNL     1       7.147  -3.799  21.969  0.00  0.00    -0.274 OA
ENDBRANCH  22  23
BRANCH  22  31
ATOM     31  N   UNL     1       9.061  -5.056  24.702  0.00  0.00    -0.319 NA
ATOM     32  H   UNL     1       9.138  -6.037  24.397  0.00  0.00    +0.119 HD
ATOM     33  H   UNL     1       9.804  -4.612  24.165  0.00  0.00    +0.119 HD
ENDBRANCH  22  31
ENDBRANCH   1  22
TORSDOF 6
ENDMDL
MODEL 8
REMARK VINA RESULT:      -6.7      3.993      8.763
REMARK  Name = 
REMARK  8 active torsions:
REMARK  status: ('A' for Active; 'I' for Inactive)
REMARK    1  A    between atoms: C_2  and  N_3
REMARK    2  A    between atoms: C_2  and  C_4
REMARK    3  A    between atoms: C_2  and  C_13
REMARK    4  A    between atoms: C_13  and  C_15
REMARK    5  A    between atoms: C_13  and  C_20
REMARK    6  A    between atoms: N_17  and  C_18
REMARK    7  A    between atoms: N_17  and  C_19
REMARK    8  A    between atoms: C_23  and  C_26
REMARK                            x       y       z     vdW  Elec       q    Type
REMARK                         _______ _______ _______ _____ _____    ______ ____
ROOT
ATOM      1  C   UNL     1       7.607   2.104  24.382  0.00  0.00    +0.131 C 
ENDROOT
BRANCH   1   2
ATOM      2  C   UNL     1       7.290   0.630  24.731  0.00  0.00    -0.034 A 
ATOM      3  C   UNL     1       8.305  -0.293  25.041  0.00  0.00    +0.005 A 
ATOM      4  C   UNL     1       8.015  -1.623  25.363  0.00  0.00    +0.009 A 
ATOM      5  C   UNL     1       6.697  -2.072  25.382  0.00  0.00    -0.016 A 
ATOM      6  C   UNL     1       5.677  -1.196  25.023  0.00  0.00    +0.009 A 
ATOM      7  C   UNL     1       5.975   0.130  24.693  0.00  0.00    +0.005 A 
BRANCH   5   8
ATOM      8  C   UNL     1       6.388  -3.410  25.889  0.00  0.00    +0.000 A 
ATOM      9  C   UNL     1       5.944  -4.484  24.996  0.00  0.00    +0.013 A 
ATOM     10  C   UNL     1       5.624  -5.706  25.452  0.00  0.00    +0.049 A 
ATOM     11  C   UNL     1       5.725  -5.981  26.842  0.00  0.00    +0.156 A 
ATOM     12  N   UNL     1       6.165  -4.951  27.679  0.00  0.00    -0.220 N 
ATOM     13  N   UNL     1       6.187  -5.406  28.957  0.00  0.00    -0.154 NA
ATOM     14  C   UNL     1       5.760  -6.663  28.816  0.00  0.00    +0.246 A 
ATOM     15  N   UNL     1       5.464  -7.058  27.547  0.00  0.00    -0.215 NA
ATOM     16  C   UNL     1       6.494  -3.686  27.205  0.00  0.00    +0.123 A 
ENDBRANCH   5   8
ENDBRANCH   1   2
BRANCH   1  17
ATOM     17  C   UNL     1       6.377   3.038  24.543  0.00  0.00    +0.224 C 
ATOM     18  N   UNL     1       6.087   3.602  25.783  0.00  0.00    -0.307 N 
ATOM     19  C   UNL     1       4.905   4.448  25.910  0.00  0.00    +0.131 C 
ATOM     20  C   UNL     1       6.900   3.485  26.987  0.00  0.00    +0.131 C 
ATOM     21  O   UNL     1       5.626   3.239  23.579  0.00  0.00    -0.275 OA
ENDBRANCH   1  17
BRANCH   1  22
ATOM     22  C   UNL     1       8.180   2.361  22.926  0.00  0.00    +0.154 C 
BRANCH  22  23
ATOM     23  C   UNL     1       9.721   2.605  22.959  0.00  0.00    +0.234 C 
ATOM     24  N   UNL     1      10.283   3.793  23.385  0.00  0.00    -0.297 N 
ATOM     25  C   UNL     1      11.735   3.951  23.333  0.00  0.00    +0.144 C 
ATOM     26  C   UNL     1      12.032   5.369  23.806  0.00  0.00    +0.185 C 
ATOM     27  F   UNL     1      12.873   5.997  22.946  0.00  0.00    -0.244 F 
ATOM     28  C   UNL     1      10.689   6.073  23.797  0.00  0.00    +0.057 C 
ATOM     29  C   UNL     1       9.685   4.955  24.020  0.00  0.00    +0.111 C 
ATOM     30  O   UNL     1      10.479   1.681  22.627  0.00  0.00    -0.274 OA
ENDBRANCH  22  23
BRANCH  22  31
ATOM     31  N   UNL     1       7.740   1.333  21.949  0.00  0.00    -0.319 NA
ATOM     32  H   UNL     1       7.143   0.672  22.469  0.00  0.00    +0.119 HD
ATOM     33  H   UNL     1       7.067   1.772  21.322  0.00  0.00    +0.119 HD
ENDBRANCH  22  31
ENDBRANCH   1  22
TORSDOF 6
ENDMDL
MODEL 9
REMARK VINA RESULT:      -6.6      4.256      9.061
REMARK  Name = 
REMARK  8 active torsions:
REMARK  status: ('A' for Active; 'I' for Inactive)
REMARK    1  A    between atoms: C_2  and  N_3
REMARK    2  A    between atoms: C_2  and  C_4
REMARK    3  A    between atoms: C_2  and  C_13
REMARK    4  A    between atoms: C_13  and  C_15
REMARK    5  A    between atoms: C_13  and  C_20
REMARK    6  A    between atoms: N_17  and  C_18
REMARK    7  A    between atoms: N_17  and  C_19
REMARK    8  A    between atoms: C_23  and  C_26
REMARK                            x       y       z     vdW  Elec       q    Type
REMARK                         _______ _______ _______ _____ _____    ______ ____
ROOT
ATOM      1  C   UNL     1       6.799   1.461  24.499  0.00  0.00    +0.131 C 
ENDROOT
BRANCH   1   2
ATOM      2  C   UNL     1       6.395  -0.030  24.595  0.00  0.00    -0.034 A 
ATOM      3  C   UNL     1       5.852  -0.575  25.772  0.00  0.00    +0.005 A 
ATOM      4  C   UNL     1       5.481  -1.922  25.855  0.00  0.00    +0.009 A 
ATOM      5  C   UNL     1       5.645  -2.766  24.759  0.00  0.00    -0.016 A 
ATOM      6  C   UNL     1       6.234  -2.268  23.601  0.00  0.00    +0.009 A 
ATOM      7  C   UNL     1       6.611  -0.922  23.529  0.00  0.00    +0.005 A 
BRANCH   5   8
ATOM      8  C   UNL     1       5.095  -4.122  24.793  0.00  0.00    +0.000 A 
ATOM      9  C   UNL     1       5.669  -5.160  25.655  0.00  0.00    +0.013 A 
ATOM     10  C   UNL     1       5.196  -6.417  25.670  0.00  0.00    +0.049 A 
ATOM     11  C   UNL     1       4.099  -6.761  24.837  0.00  0.00    +0.156 A 
ATOM     12  N   UNL     1       3.552  -5.756  24.031  0.00  0.00    -0.220 N 
ATOM     13  N   UNL     1       2.529  -6.280  23.313  0.00  0.00    -0.154 NA
ATOM     14  C   UNL     1       2.524  -7.553  23.717  0.00  0.00    +0.246 A 
ATOM     15  N   UNL     1       3.463  -7.893  24.642  0.00  0.00    -0.215 NA
ATOM     16  C   UNL     1       4.045  -4.456  24.015  0.00  0.00    +0.123 A 
ENDBRANCH   5   8
ENDBRANCH   1   2
BRANCH   1  17
ATOM     17  C   UNL     1       6.158   2.180  23.280  0.00  0.00    +0.224 C 
ATOM     18  N   UNL     1       4.927   2.817  23.414  0.00  0.00    -0.307 N 
ATOM     19  C   UNL     1       4.336   3.453  22.243  0.00  0.00    +0.131 C 
ATOM     20  C   UNL     1       4.176   2.974  24.653  0.00  0.00    +0.131 C 
ATOM     21  O   UNL     1       6.721   2.141  22.177  0.00  0.00    -0.275 OA
ENDBRANCH   1  17
BRANCH   1  22
ATOM     22  C   UNL     1       8.356   1.751  24.426  0.00  0.00    +0.154 C 
BRANCH  22  23
ATOM     23  C   UNL     1       8.658   3.270  24.613  0.00  0.00    +0.234 C 
ATOM     24  N   UNL     1       9.767   3.887  24.066  0.00  0.00    -0.297 N 
ATOM     25  C   UNL     1       9.997   5.305  24.336  0.00  0.00    +0.144 C 
ATOM     26  C   UNL     1      11.310   5.668  23.653  0.00  0.00    +0.185 C 
ATOM     27  F   UNL     1      12.128   6.334  24.505  0.00  0.00    -0.244 F 
ATOM     28  C   UNL     1      11.942   4.337  23.292  0.00  0.00    +0.057 C 
ATOM     29  C   UNL     1      10.758   3.401  23.122  0.00  0.00    +0.111 C 
ATOM     30  O   UNL     1       7.850   3.966  25.245  0.00  0.00    -0.274 OA
ENDBRANCH  22  23
BRANCH  22  31
ATOM     31  N   UNL     1       9.146   0.853  25.306  0.00  0.00    -0.319 NA
ATOM     32  H   UNL     1       9.241   1.338  26.210  0.00  0.00    +0.119 HD
ATOM     33  H   UNL     1       8.551   0.064  25.555  0.00  0.00    +0.119 HD
ENDBRANCH  22  31
ENDBRANCH   1  22
TORSDOF 6
ENDMDL
