MODEL 1
REMARK VINA RESULT:      -3.7      0.000      0.000
REMARK  Name = 
REMARK  9 active torsions:
REMARK  status: ('A' for Active; 'I' for Inactive)
REMARK    1  A    between atoms: O_1  and  C_2
REMARK    2  A    between atoms: C_2  and  C_3
REMARK    3  A    between atoms: C_3  and  O_5
REMARK    4  A    between atoms: C_3  and  C_6
REMARK    5  A    between atoms: C_6  and  O_8
REMARK    6  A    between atoms: C_6  and  C_9
REMARK    7  A    between atoms: C_9  and  O_11
REMARK    8  A    between atoms: C_9  and  C_12
REMARK    9  A    between atoms: C_12  and  O_13
REMARK                            x       y       z     vdW  Elec       q    Type
REMARK                         _______ _______ _______ _____ _____    ______ ____
ROOT
ATOM      1  C   UNL     1      10.147   0.770  22.721  0.00  0.00    +0.176 C 
ENDROOT
BRANCH   1   2
ATOM      2  O   UNL     1       9.852   1.537  21.536  0.00  0.00    -0.387 OA
ATOM      3  H   UNL     1       8.906   1.773  21.603  0.00  0.00    +0.210 HD
ENDBRANCH   1   2
BRANCH   1   4
ATOM      4  C   UNL     1       8.980  -0.192  23.061  0.00  0.00    +0.171 C 
BRANCH   4   5
ATOM      5  O   UNL     1       7.717   0.475  22.924  0.00  0.00    -0.387 OA
ATOM      6  H   UNL     1       7.878   1.214  22.294  0.00  0.00    +0.210 HD
ENDBRANCH   4   5
BRANCH   4   7
ATOM      7  C   UNL     1       8.956  -1.420  22.152  0.00  0.00    +0.189 C 
BRANCH   7   8
ATOM      8  O   UNL     1      10.160  -1.503  21.387  0.00  0.00    -0.392 OA
ATOM      9  H   UNL     1      10.233  -0.629  20.950  0.00  0.00    +0.210 HD
ENDBRANCH   7   8
ENDBRANCH   4   7
ENDBRANCH   1   4
BRANCH   1  10
ATOM     10  C   UNL     1      10.444   1.719  23.910  0.00  0.00    +0.171 C 
BRANCH  10  11
ATOM     11  O   UNL     1       9.687   1.300  25.061  0.00  0.00    -0.387 OA
ATOM     12  H   UNL     1       9.729   0.324  25.088  0.00  0.00    +0.210 HD
ENDBRANCH  10  11
BRANCH  10  13
ATOM     13  C   UNL     1      10.154   3.190  23.583  0.00  0.00    +0.189 C 
BRANCH  13  14
ATOM     14  O   UNL     1      11.243   3.788  22.887  0.00  0.00    -0.392 OA
ATOM     15  H   UNL     1      11.222   4.743  23.125  0.00  0.00    +0.210 HD
ENDBRANCH  13  14
ENDBRANCH  10  13
ENDBRANCH   1  10
TORSDOF 9
ENDMDL
MODEL 2
REMARK VINA RESULT:      -3.7      1.524      2.536
REMARK  Name = 
REMARK  9 active torsions:
REMARK  status: ('A' for Active; 'I' for Inactive)
REMARK    1  A    between atoms: O_1  and  C_2
REMARK    2  A    between atoms: C_2  and  C_3
REMARK    3  A    between atoms: C_3  and  O_5
REMARK    4  A    between atoms: C_3  and  C_6
REMARK    5  A    between atoms: C_6  and  O_8
REMARK    6  A    between atoms: C_6  and  C_9
REMARK    7  A    between atoms: C_9  and  O_11
REMARK    8  A    between atoms: C_9  and  C_12
REMARK    9  A    between atoms: C_12  and  O_13
REMARK                            x       y       z     vdW  Elec       q    Type
REMARK                         _______ _______ _______ _____ _____    ______ ____
ROOT
ATOM      1  C   UNL     1       9.138  -0.119  23.108  0.00  0.00    +0.176 C 
ENDROOT
BRANCH   1   2
ATOM      2  O   UNL     1      10.481   0.085  23.592  0.00  0.00    -0.387 OA
ATOM      3  H   UNL     1      10.871   0.767  23.010  0.00  0.00    +0.210 HD
ENDBRANCH   1   2
BRANCH   1   4
ATOM      4  C   UNL     1       9.036  -1.439  22.302  0.00  0.00    +0.171 C 
BRANCH   4   5
ATOM      5  O   UNL     1      10.197  -1.622  21.478  0.00  0.00    -0.387 OA
ATOM      6  H   UNL     1       9.862  -1.628  20.552  0.00  0.00    +0.210 HD
ENDBRANCH   4   5
BRANCH   4   7
ATOM      7  C   UNL     1       8.914  -2.665  23.207  0.00  0.00    +0.189 C 
BRANCH   7   8
ATOM      8  O   UNL     1      10.170  -2.964  23.820  0.00  0.00    -0.392 OA
ATOM      9  H   UNL     1      10.106  -2.568  24.714  0.00  0.00    +0.210 HD
ENDBRANCH   7   8
ENDBRANCH   4   7
ENDBRANCH   1   4
BRANCH   1  10
ATOM     10  C   UNL     1       8.693   1.089  22.245  0.00  0.00    +0.171 C 
BRANCH  10  11
ATOM     11  O   UNL     1       8.878   0.780  20.851  0.00  0.00    -0.387 OA
ATOM     12  H   UNL     1       8.602  -0.150  20.729  0.00  0.00    +0.210 HD
ENDBRANCH  10  11
BRANCH  10  13
ATOM     13  C   UNL     1       9.432   2.384  22.610  0.00  0.00    +0.189 C 
BRANCH  13  14
ATOM     14  O   UNL     1      10.578   2.574  21.787  0.00  0.00    -0.392 OA
ATOM     15  H   UNL     1      11.357   2.441  22.373  0.00  0.00    +0.210 HD
ENDBRANCH  13  14
ENDBRANCH  10  13
ENDBRANCH   1  10
TORSDOF 9
ENDMDL
MODEL 3
REMARK VINA RESULT:      -3.7      2.092      4.266
REMARK  Name = 
REMARK  9 active torsions:
REMARK  status: ('A' for Active; 'I' for Inactive)
REMARK    1  A    between atoms: O_1  and  C_2
REMARK    2  A    between atoms: C_2  and  C_3
REMARK    3  A    between atoms: C_3  and  O_5
REMARK    4  A    between atoms: C_3  and  C_6
REMARK    5  A    between atoms: C_6  and  O_8
REMARK    6  A    between atoms: C_6  and  C_9
REMARK    7  A    between atoms: C_9  and  O_11
REMARK    8  A    between atoms: C_9  and  C_12
REMARK    9  A    between atoms: C_12  and  O_13
REMARK                            x       y       z     vdW  Elec       q    Type
REMARK                         _______ _______ _______ _____ _____    ______ ____
ROOT
ATOM      1  C   UNL     1       9.087  -0.620  23.431  0.00  0.00    +0.176 C 
ENDROOT
BRANCH   1   2
ATOM      2  O   UNL     1       7.686  -0.441  23.137  0.00  0.00    -0.387 OA
ATOM      3  H   UNL     1       7.619  -0.441  22.162  0.00  0.00    +0.210 HD
ENDBRANCH   1   2
BRANCH   1   4
ATOM      4  C   UNL     1       9.962  -0.212  22.219  0.00  0.00    +0.171 C 
BRANCH   4   5
ATOM      5  O   UNL     1       9.580  -0.947  21.046  0.00  0.00    -0.387 OA
ATOM      6  H   UNL     1       9.618  -0.297  20.307  0.00  0.00    +0.210 HD
ENDBRANCH   4   5
BRANCH   4   7
ATOM      7  C   UNL     1       9.843   1.277  21.891  0.00  0.00    +0.189 C 
BRANCH   7   8
ATOM      8  O   UNL     1       8.741   1.511  21.012  0.00  0.00    -0.392 OA
ATOM      9  H   UNL     1       7.964   1.161  21.497  0.00  0.00    +0.210 HD
ENDBRANCH   7   8
ENDBRANCH   4   7
ENDBRANCH   1   4
BRANCH   1  10
ATOM     10  C   UNL     1       9.362  -2.090  23.840  0.00  0.00    +0.171 C 
BRANCH  10  11
ATOM     11  O   UNL     1      10.515  -2.579  23.130  0.00  0.00    -0.387 OA
ATOM     12  H   UNL     1      11.294  -2.385  23.687  0.00  0.00    +0.210 HD
ENDBRANCH  10  11
BRANCH  10  13
ATOM     13  C   UNL     1       8.155  -3.008  23.602  0.00  0.00    +0.189 C 
BRANCH  13  14
ATOM     14  O   UNL     1       7.857  -3.120  22.214  0.00  0.00    -0.392 OA
ATOM     15  H   UNL     1       6.911  -2.869  22.121  0.00  0.00    +0.210 HD
ENDBRANCH  13  14
ENDBRANCH  10  13
ENDBRANCH   1  10
TORSDOF 9
ENDMDL
MODEL 4
REMARK VINA RESULT:      -3.6      1.321      4.159
REMARK  Name = 
REMARK  9 active torsions:
REMARK  status: ('A' for Active; 'I' for Inactive)
REMARK    1  A    between atoms: O_1  and  C_2
REMARK    2  A    between atoms: C_2  and  C_3
REMARK    3  A    between atoms: C_3  and  O_5
REMARK    4  A    between atoms: C_3  and  C_6
REMARK    5  A    between atoms: C_6  and  O_8
REMARK    6  A    between atoms: C_6  and  C_9
REMARK    7  A    between atoms: C_9  and  O_11
REMARK    8  A    between atoms: C_9  and  C_12
REMARK    9  A    between atoms: C_12  and  O_13
REMARK                            x       y       z     vdW  Elec       q    Type
REMARK                         _______ _______ _______ _____ _____    ______ ____
ROOT
ATOM      1  C   UNL     1       9.493   1.179  23.255  0.00  0.00    +0.176 C 
ENDROOT
BRANCH   1   2
ATOM      2  O   UNL     1       8.110   1.198  23.665  0.00  0.00    -0.387 OA
ATOM      3  H   UNL     1       7.662   1.818  23.055  0.00  0.00    +0.210 HD
ENDBRANCH   1   2
BRANCH   1   4
ATOM      4  C   UNL     1      10.127   2.587  23.386  0.00  0.00    +0.171 C 
BRANCH   4   5
ATOM      5  O   UNL     1      10.824   2.945  22.183  0.00  0.00    -0.387 OA
ATOM      6  H   UNL     1      11.712   3.250  22.477  0.00  0.00    +0.210 HD
ENDBRANCH   4   5
BRANCH   4   7
ATOM      7  C   UNL     1       9.084   3.672  23.656  0.00  0.00    +0.189 C 
BRANCH   7   8
ATOM      8  O   UNL     1       8.335   3.954  22.472  0.00  0.00    -0.392 OA
ATOM      9  H   UNL     1       8.981   4.380  21.871  0.00  0.00    +0.210 HD
ENDBRANCH   7   8
ENDBRANCH   4   7
ENDBRANCH   1   4
BRANCH   1  10
ATOM     10  C   UNL     1       9.610   0.655  21.801  0.00  0.00    +0.171 C 
BRANCH  10  11
ATOM     11  O   UNL     1       8.770   1.442  20.936  0.00  0.00    -0.387 OA
ATOM     12  H   UNL     1       8.209   1.996  21.513  0.00  0.00    +0.210 HD
ENDBRANCH  10  11
BRANCH  10  13
ATOM     13  C   UNL     1       9.262  -0.835  21.677  0.00  0.00    +0.189 C 
BRANCH  13  14
ATOM     14  O   UNL     1      10.436  -1.639  21.642  0.00  0.00    -0.392 OA
ATOM     15  H   UNL     1      10.164  -2.528  21.965  0.00  0.00    +0.210 HD
ENDBRANCH  13  14
ENDBRANCH  10  13
ENDBRANCH   1  10
TORSDOF 9
ENDMDL
MODEL 5
REMARK VINA RESULT:      -3.6      1.546      2.464
REMARK  Name = 
REMARK  9 active torsions:
REMARK  status: ('A' for Active; 'I' for Inactive)
REMARK    1  A    between atoms: O_1  and  C_2
REMARK    2  A    between atoms: C_2  and  C_3
REMARK    3  A    between atoms: C_3  and  O_5
REMARK    4  A    between atoms: C_3  and  C_6
REMARK    5  A    between atoms: C_6  and  O_8
REMARK    6  A    between atoms: C_6  and  C_9
REMARK    7  A    between atoms: C_9  and  O_11
REMARK    8  A    between atoms: C_9  and  C_12
REMARK    9  A    between atoms: C_12  and  O_13
REMARK                            x       y       z     vdW  Elec       q    Type
REMARK                         _______ _______ _______ _____ _____    ______ ____
ROOT
ATOM      1  C   UNL     1       8.932   1.917  23.493  0.00  0.00    +0.176 C 
ENDROOT
BRANCH   1   2
ATOM      2  O   UNL     1      10.060   1.893  24.393  0.00  0.00    -0.387 OA
ATOM      3  H   UNL     1       9.799   1.304  25.128  0.00  0.00    +0.210 HD
ENDBRANCH   1   2
BRANCH   1   4
ATOM      4  C   UNL     1       9.343   1.428  22.081  0.00  0.00    +0.171 C 
BRANCH   4   5
ATOM      5  O   UNL     1      10.348   2.284  21.519  0.00  0.00    -0.387 OA
ATOM      6  H   UNL     1      10.002   3.200  21.628  0.00  0.00    +0.210 HD
ENDBRANCH   4   5
BRANCH   4   7
ATOM      7  C   UNL     1       9.904   0.006  22.098  0.00  0.00    +0.189 C 
BRANCH   7   8
ATOM      8  O   UNL     1       9.475  -0.717  20.943  0.00  0.00    -0.392 OA
ATOM      9  H   UNL     1      10.283  -0.803  20.395  0.00  0.00    +0.210 HD
ENDBRANCH   7   8
ENDBRANCH   4   7
ENDBRANCH   1   4
BRANCH   1  10
ATOM     10  C   UNL     1       8.331   3.343  23.430  0.00  0.00    +0.171 C 
BRANCH  10  11
ATOM     11  O   UNL     1       8.064   3.693  22.059  0.00  0.00    -0.387 OA
ATOM     12  H   UNL     1       7.567   2.948  21.668  0.00  0.00    +0.210 HD
ENDBRANCH  10  11
BRANCH  10  13
ATOM     13  C   UNL     1       9.232   4.398  24.087  0.00  0.00    +0.189 C 
BRANCH  13  14
ATOM     14  O   UNL     1      10.403   4.632  23.312  0.00  0.00    -0.392 OA
ATOM     15  H   UNL     1      10.779   3.744  23.117  0.00  0.00    +0.210 HD
ENDBRANCH  13  14
ENDBRANCH  10  13
ENDBRANCH   1  10
TORSDOF 9
ENDMDL
MODEL 6
REMARK VINA RESULT:      -3.5      1.526      3.860
REMARK  Name = 
REMARK  9 active torsions:
REMARK  status: ('A' for Active; 'I' for Inactive)
REMARK    1  A    between atoms: O_1  and  C_2
REMARK    2  A    between atoms: C_2  and  C_3
REMARK    3  A    between atoms: C_3  and  O_5
REMARK    4  A    between atoms: C_3  and  C_6
REMARK    5  A    between atoms: C_6  and  O_8
REMARK    6  A    between atoms: C_6  and  C_9
REMARK    7  A    between atoms: C_9  and  O_11
REMARK    8  A    between atoms: C_9  and  C_12
REMARK    9  A    between atoms: C_12  and  O_13
REMARK                            x       y       z     vdW  Elec       q    Type
REMARK                         _______ _______ _______ _____ _____    ______ ____
ROOT
ATOM      1  C   UNL     1       8.997  -0.104  22.424  0.00  0.00    +0.176 C 
ENDROOT
BRANCH   1   2
ATOM      2  O   UNL     1       9.906  -0.694  21.473  0.00  0.00    -0.387 OA
ATOM      3  H   UNL     1      10.758  -0.230  21.598  0.00  0.00    +0.210 HD
ENDBRANCH   1   2
BRANCH   1   4
ATOM      4  C   UNL     1       9.752   0.836  23.399  0.00  0.00    +0.171 C 
BRANCH   4   5
ATOM      5  O   UNL     1      10.926   0.193  23.916  0.00  0.00    -0.387 OA
ATOM      6  H   UNL     1      10.618  -0.328  24.693  0.00  0.00    +0.210 HD
ENDBRANCH   4   5
BRANCH   4   7
ATOM      7  C   UNL     1      10.193   2.136  22.729  0.00  0.00    +0.189 C 
BRANCH   7   8
ATOM      8  O   UNL     1       9.775   2.164  21.362  0.00  0.00    -0.392 OA
ATOM      9  H   UNL     1       9.219   2.968  21.293  0.00  0.00    +0.210 HD
ENDBRANCH   7   8
ENDBRANCH   4   7
ENDBRANCH   1   4
BRANCH   1  10
ATOM     10  C   UNL     1       8.243  -1.213  23.200  0.00  0.00    +0.171 C 
BRANCH  10  11
ATOM     11  O   UNL     1       8.212  -0.885  24.601  0.00  0.00    -0.387 OA
ATOM     12  H   UNL     1       8.283   0.088  24.666  0.00  0.00    +0.210 HD
ENDBRANCH  10  11
BRANCH  10  13
ATOM     13  C   UNL     1       8.852  -2.606  22.988  0.00  0.00    +0.189 C 
BRANCH  13  14
ATOM     14  O   UNL     1      10.139  -2.703  23.589  0.00  0.00    -0.392 OA
ATOM     15  H   UNL     1      10.002  -3.174  24.443  0.00  0.00    +0.210 HD
ENDBRANCH  13  14
ENDBRANCH  10  13
ENDBRANCH   1  10
TORSDOF 9
ENDMDL
MODEL 7
REMARK VINA RESULT:      -3.5      1.920      3.634
REMARK  Name = 
REMARK  9 active torsions:
REMARK  status: ('A' for Active; 'I' for Inactive)
REMARK    1  A    between atoms: O_1  and  C_2
REMARK    2  A    between atoms: C_2  and  C_3
REMARK    3  A    between atoms: C_3  and  O_5
REMARK    4  A    between atoms: C_3  and  C_6
REMARK    5  A    between atoms: C_6  and  O_8
REMARK    6  A    between atoms: C_6  and  C_9
REMARK    7  A    between atoms: C_9  and  O_11
REMARK    8  A    between atoms: C_9  and  C_12
REMARK    9  A    between atoms: C_12  and  O_13
REMARK                            x       y       z     vdW  Elec       q    Type
REMARK                         _______ _______ _______ _____ _____    ______ ____
ROOT
ATOM      1  C   UNL     1       8.328   0.098  23.221  0.00  0.00    +0.176 C 
ENDROOT
BRANCH   1   2
ATOM      2  O   UNL     1       7.620  -0.934  22.503  0.00  0.00    -0.387 OA
ATOM      3  H   UNL     1       8.309  -1.536  22.158  0.00  0.00    +0.210 HD
ENDBRANCH   1   2
BRANCH   1   4
ATOM      4  C   UNL     1       8.507   1.360  22.338  0.00  0.00    +0.171 C 
BRANCH   4   5
ATOM      5  O   UNL     1       9.029   1.007  21.048  0.00  0.00    -0.387 OA
ATOM      6  H   UNL     1       9.438   0.119  21.166  0.00  0.00    +0.210 HD
ENDBRANCH   4   5
BRANCH   4   7
ATOM      7  C   UNL     1       7.192   2.107  22.117  0.00  0.00    +0.189 C 
BRANCH   7   8
ATOM      8  O   UNL     1       6.092   1.345  22.618  0.00  0.00    -0.392 OA
ATOM      9  H   UNL     1       6.380   1.056  23.509  0.00  0.00    +0.210 HD
ENDBRANCH   7   8
ENDBRANCH   4   7
ENDBRANCH   1   4
BRANCH   1  10
ATOM     10  C   UNL     1       9.700  -0.435  23.706  0.00  0.00    +0.171 C 
BRANCH  10  11
ATOM     11  O   UNL     1      10.714   0.559  23.469  0.00  0.00    -0.387 OA
ATOM     12  H   UNL     1      11.096   0.787  24.339  0.00  0.00    +0.210 HD
ENDBRANCH  10  11
BRANCH  10  13
ATOM     13  C   UNL     1      10.087  -1.765  23.047  0.00  0.00    +0.189 C 
BRANCH  13  14
ATOM     14  O   UNL     1      10.318  -1.602  21.651  0.00  0.00    -0.392 OA
ATOM     15  H   UNL     1      10.408  -0.633  21.505  0.00  0.00    +0.210 HD
ENDBRANCH  13  14
ENDBRANCH  10  13
ENDBRANCH   1  10
TORSDOF 9
ENDMDL
MODEL 8
REMARK VINA RESULT:      -3.5      3.872      5.478
REMARK  Name = 
REMARK  9 active torsions:
REMARK  status: ('A' for Active; 'I' for Inactive)
REMARK    1  A    between atoms: O_1  and  C_2
REMARK    2  A    between atoms: C_2  and  C_3
REMARK    3  A    between atoms: C_3  and  O_5
REMARK    4  A    between atoms: C_3  and  C_6
REMARK    5  A    between atoms: C_6  and  O_8
REMARK    6  A    between atoms: C_6  and  C_9
REMARK    7  A    between atoms: C_9  and  O_11
REMARK    8  A    between atoms: C_9  and  C_12
REMARK    9  A    between atoms: C_12  and  O_13
REMARK                            x       y       z     vdW  Elec       q    Type
REMARK                         _______ _______ _______ _____ _____    ______ ____
ROOT
ATOM      1  C   UNL     1       8.947  -2.980  24.340  0.00  0.00    +0.176 C 
ENDROOT
BRANCH   1   2
ATOM      2  O   UNL     1      10.312  -3.138  23.899  0.00  0.00    -0.387 OA
ATOM      3  H   UNL     1      10.322  -2.851  22.964  0.00  0.00    +0.210 HD
ENDBRANCH   1   2
BRANCH   1   4
ATOM      4  C   UNL     1       8.388  -4.316  24.892  0.00  0.00    +0.171 C 
BRANCH   4   5
ATOM      5  O   UNL     1       8.888  -5.427  24.134  0.00  0.00    -0.387 OA
ATOM      6  H   UNL     1       9.869  -5.346  24.166  0.00  0.00    +0.210 HD
ENDBRANCH   4   5
BRANCH   4   7
ATOM      7  C   UNL     1       8.767  -4.545  26.355  0.00  0.00    +0.189 C 
BRANCH   7   8
ATOM      8  O   UNL     1       8.302  -5.820  26.800  0.00  0.00    -0.392 OA
ATOM      9  H   UNL     1       8.265  -5.740  27.776  0.00  0.00    +0.210 HD
ENDBRANCH   7   8
ENDBRANCH   4   7
ENDBRANCH   1   4
BRANCH   1  10
ATOM     10  C   UNL     1       8.069  -2.452  23.177  0.00  0.00    +0.171 C 
BRANCH  10  11
ATOM     11  O   UNL     1       7.740  -3.538  22.291  0.00  0.00    -0.387 OA
ATOM     12  H   UNL     1       7.195  -3.163  21.573  0.00  0.00    +0.210 HD
ENDBRANCH  10  11
BRANCH  10  13
ATOM     13  C   UNL     1       8.736  -1.308  22.401  0.00  0.00    +0.189 C 
BRANCH  13  14
ATOM     14  O   UNL     1       9.788  -1.791  21.573  0.00  0.00    -0.392 OA
ATOM     15  H   UNL     1       9.831  -1.176  20.806  0.00  0.00    +0.210 HD
ENDBRANCH  13  14
ENDBRANCH  10  13
ENDBRANCH   1  10
TORSDOF 9
ENDMDL
MODEL 9
REMARK VINA RESULT:      -3.5      4.054      6.100
REMARK  Name = 
REMARK  9 active torsions:
REMARK  status: ('A' for Active; 'I' for Inactive)
REMARK    1  A    between atoms: O_1  and  C_2
REMARK    2  A    between atoms: C_2  and  C_3
REMARK    3  A    between atoms: C_3  and  O_5
REMARK    4  A    between atoms: C_3  and  C_6
REMARK    5  A    between atoms: C_6  and  O_8
REMARK    6  A    between atoms: C_6  and  C_9
REMARK    7  A    between atoms: C_9  and  O_11
REMARK    8  A    between atoms: C_9  and  C_12
REMARK    9  A    between atoms: C_12  and  O_13
REMARK                            x       y       z     vdW  Elec       q    Type
REMARK                         _______ _______ _______ _____ _____    ______ ____
ROOT
ATOM      1  C   UNL     1       8.217  -3.527  24.122  0.00  0.00    +0.176 C 
ENDROOT
BRANCH   1   2
ATOM      2  O   UNL     1       7.851  -4.420  23.049  0.00  0.00    -0.387 OA
ATOM      3  H   UNL     1       7.928  -3.893  22.229  0.00  0.00    +0.210 HD
ENDBRANCH   1   2
BRANCH   1   4
ATOM      4  C   UNL     1       9.111  -2.374  23.598  0.00  0.00    +0.171 C 
BRANCH   4   5
ATOM      5  O   UNL     1      10.494  -2.758  23.610  0.00  0.00    -0.387 OA
ATOM      6  H   UNL     1      10.542  -3.577  23.066  0.00  0.00    +0.210 HD
ENDBRANCH   4   5
BRANCH   4   7
ATOM      7  C   UNL     1       8.756  -1.966  22.169  0.00  0.00    +0.189 C 
BRANCH   7   8
ATOM      8  O   UNL     1       9.936  -1.643  21.431  0.00  0.00    -0.392 OA
ATOM      9  H   UNL     1       9.730  -0.787  21.001  0.00  0.00    +0.210 HD
ENDBRANCH   7   8
ENDBRANCH   4   7
ENDBRANCH   1   4
BRANCH   1  10
ATOM     10  C   UNL     1       8.934  -4.313  25.249  0.00  0.00    +0.171 C 
BRANCH  10  11
ATOM     11  O   UNL     1       9.556  -5.487  24.695  0.00  0.00    -0.387 OA
ATOM     12  H   UNL     1       8.838  -6.116  24.485  0.00  0.00    +0.210 HD
ENDBRANCH  10  11
BRANCH  10  13
ATOM     13  C   UNL     1       7.991  -4.695  26.398  0.00  0.00    +0.189 C 
BRANCH  13  14
ATOM     14  O   UNL     1       8.284  -5.996  26.895  0.00  0.00    -0.392 OA
ATOM     15  H   UNL     1       7.915  -6.626  26.235  0.00  0.00    +0.210 HD
ENDBRANCH  13  14
ENDBRANCH  10  13
ENDBRANCH   1  10
TORSDOF 9
ENDMDL
