MODEL 1
REMARK VINA RESULT:      -6.1      0.000      0.000
REMARK  Name = 
REMARK  5 active torsions:
REMARK  status: ('A' for Active; 'I' for Inactive)
REMARK    1  A    between atoms: C_2  and  C_3
REMARK    2  A    between atoms: C_2  and  C_5
REMARK    3  A    between atoms: C_2  and  C_12
REMARK    4  A    between atoms: C_3  and  S_4
REMARK    5  A    between atoms: C_5  and  C_6
REMARK                            x       y       z     vdW  Elec       q    Type
REMARK                         _______ _______ _______ _____ _____    ______ ____
ROOT
ATOM      1  C   UNL     1       8.405  -1.786  24.804  0.00  0.00    +0.069 C 
ENDROOT
BRANCH   1   2
ATOM      2  C   UNL     1       7.707  -2.990  24.212  0.00  0.00    +0.113 A 
ATOM      3  N   UNL     1       7.987  -3.483  22.962  0.00  0.00    -0.341 N 
ATOM      4  H   UNL     1       8.671  -3.101  22.323  0.00  0.00    +0.167 HD
ATOM      5  C   UNL     1       7.169  -4.557  22.728  0.00  0.00    +0.078 A 
ATOM      6  C   UNL     1       7.025  -5.398  21.636  0.00  0.00    +0.097 A 
ATOM      7  C   UNL     1       6.082  -6.398  21.806  0.00  0.00    +0.309 A 
ATOM      8  N   UNL     1       5.382  -6.509  22.945  0.00  0.00    -0.215 N 
ATOM      9  C   UNL     1       5.487  -5.709  24.015  0.00  0.00    +0.337 A 
ATOM     10  H   UNL     1       4.704  -7.271  23.005  0.00  0.00    +0.452 HD
ATOM     11  C   UNL     1       6.428  -4.691  23.891  0.00  0.00    +0.152 A 
ATOM     12  N   UNL     1       6.773  -3.719  24.795  0.00  0.00    -0.226 NA
ENDBRANCH   1   2
BRANCH   1  13
ATOM     13  C   UNL     1       8.405  -1.855  26.344  0.00  0.00    +0.077 C 
BRANCH  13  14
ATOM     14  S   UNL     1       7.834  -0.332  27.178  0.00  0.00    -0.178 S 
ATOM     15  H   UNL     1       8.664   0.516  26.548  0.00  0.00    +0.102 HD
ENDBRANCH  13  14
ENDBRANCH   1  13
BRANCH   1  16
ATOM     16  C   UNL     1       9.822  -1.543  24.227  0.00  0.00    +0.047 C 
BRANCH  16  17
ATOM     17  C   UNL     1      10.018  -0.159  23.647  0.00  0.00    -0.047 A 
ATOM     18  C   UNL     1       9.713   0.105  22.303  0.00  0.00    +0.003 A 
ATOM     19  C   UNL     1       9.866   1.391  21.780  0.00  0.00    +0.000 A 
ATOM     20  C   UNL     1      10.340   2.420  22.590  0.00  0.00    +0.000 A 
ATOM     21  C   UNL     1      10.668   2.165  23.919  0.00  0.00    +0.000 A 
ATOM     22  C   UNL     1      10.510   0.882  24.445  0.00  0.00    +0.003 A 
ENDBRANCH  16  17
ENDBRANCH   1  16
TORSDOF 5
ENDMDL
MODEL 2
REMARK VINA RESULT:      -6.0      2.208      6.679
REMARK  Name = 
REMARK  5 active torsions:
REMARK  status: ('A' for Active; 'I' for Inactive)
REMARK    1  A    between atoms: C_2  and  C_3
REMARK    2  A    between atoms: C_2  and  C_5
REMARK    3  A    between atoms: C_2  and  C_12
REMARK    4  A    between atoms: C_3  and  S_4
REMARK    5  A    between atoms: C_5  and  C_6
REMARK                            x       y       z     vdW  Elec       q    Type
REMARK                         _______ _______ _______ _____ _____    ______ ____
ROOT
ATOM      1  C   UNL     1       8.205  -2.668  24.502  0.00  0.00    +0.069 C 
ENDROOT
BRANCH   1   2
ATOM      2  C   UNL     1       8.742  -1.367  23.950  0.00  0.00    +0.113 A 
ATOM      3  N   UNL     1       9.425  -0.451  24.712  0.00  0.00    -0.341 N 
ATOM      4  H   UNL     1       9.631  -0.547  25.697  0.00  0.00    +0.167 HD
ATOM      5  C   UNL     1       9.751   0.616  23.916  0.00  0.00    +0.078 A 
ATOM      6  C   UNL     1      10.413   1.805  24.176  0.00  0.00    +0.097 A 
ATOM      7  C   UNL     1      10.562   2.629  23.074  0.00  0.00    +0.309 A 
ATOM      8  N   UNL     1      10.087   2.275  21.870  0.00  0.00    -0.215 N 
ATOM      9  C   UNL     1       9.433   1.140  21.584  0.00  0.00    +0.337 A 
ATOM     10  H   UNL     1      10.233   2.928  21.098  0.00  0.00    +0.452 HD
ATOM     11  C   UNL     1       9.264   0.277  22.663  0.00  0.00    +0.152 A 
ATOM     12  N   UNL     1       8.648  -0.947  22.701  0.00  0.00    -0.226 NA
ENDBRANCH   1   2
BRANCH   1  13
ATOM     13  C   UNL     1       8.580  -2.829  25.989  0.00  0.00    +0.077 C 
BRANCH  13  14
ATOM     14  S   UNL     1       8.804  -4.558  26.539  0.00  0.00    -0.178 S 
ATOM     15  H   UNL     1       9.618  -4.291  27.574  0.00  0.00    +0.102 HD
ENDBRANCH  13  14
ENDBRANCH   1  13
BRANCH   1  16
ATOM     16  C   UNL     1       6.690  -2.871  24.252  0.00  0.00    +0.047 C 
BRANCH  16  17
ATOM     17  C   UNL     1       6.368  -4.055  23.366  0.00  0.00    -0.047 A 
ATOM     18  C   UNL     1       5.103  -4.660  23.411  0.00  0.00    +0.003 A 
ATOM     19  C   UNL     1       4.799  -5.732  22.569  0.00  0.00    +0.000 A 
ATOM     20  C   UNL     1       5.760  -6.219  21.686  0.00  0.00    +0.000 A 
ATOM     21  C   UNL     1       7.027  -5.641  21.650  0.00  0.00    +0.000 A 
ATOM     22  C   UNL     1       7.330  -4.566  22.486  0.00  0.00    +0.003 A 
ENDBRANCH  16  17
ENDBRANCH   1  16
TORSDOF 5
ENDMDL
MODEL 3
REMARK VINA RESULT:      -6.0      1.260      1.750
REMARK  Name = 
REMARK  5 active torsions:
REMARK  status: ('A' for Active; 'I' for Inactive)
REMARK    1  A    between atoms: C_2  and  C_3
REMARK    2  A    between atoms: C_2  and  C_5
REMARK    3  A    between atoms: C_2  and  C_12
REMARK    4  A    between atoms: C_3  and  S_4
REMARK    5  A    between atoms: C_5  and  C_6
REMARK                            x       y       z     vdW  Elec       q    Type
REMARK                         _______ _______ _______ _____ _____    ______ ____
ROOT
ATOM      1  C   UNL     1       8.488  -2.272  24.723  0.00  0.00    +0.069 C 
ENDROOT
BRANCH   1   2
ATOM      2  C   UNL     1       7.520  -3.264  24.118  0.00  0.00    +0.113 A 
ATOM      3  N   UNL     1       6.206  -3.364  24.504  0.00  0.00    -0.341 N 
ATOM      4  H   UNL     1       5.761  -2.801  25.216  0.00  0.00    +0.167 HD
ATOM      5  C   UNL     1       5.619  -4.367  23.778  0.00  0.00    +0.078 A 
ATOM      6  C   UNL     1       4.335  -4.890  23.781  0.00  0.00    +0.097 A 
ATOM      7  C   UNL     1       4.131  -5.906  22.863  0.00  0.00    +0.309 A 
ATOM      8  N   UNL     1       5.118  -6.327  22.058  0.00  0.00    -0.215 N 
ATOM      9  C   UNL     1       6.372  -5.852  22.035  0.00  0.00    +0.337 A 
ATOM     10  H   UNL     1       4.899  -7.079  21.402  0.00  0.00    +0.452 HD
ATOM     11  C   UNL     1       6.622  -4.824  22.939  0.00  0.00    +0.152 A 
ATOM     12  N   UNL     1       7.785  -4.133  23.160  0.00  0.00    -0.226 NA
ENDBRANCH   1   2
BRANCH   1  13
ATOM     13  C   UNL     1       8.825  -2.653  26.178  0.00  0.00    +0.077 C 
BRANCH  13  14
ATOM     14  S   UNL     1       8.956  -4.449  26.489  0.00  0.00    -0.178 S 
ATOM     15  H   UNL     1       8.211  -4.472  27.606  0.00  0.00    +0.102 HD
ENDBRANCH  13  14
ENDBRANCH   1  13
BRANCH   1  16
ATOM     16  C   UNL     1       9.757  -2.040  23.866  0.00  0.00    +0.047 C 
BRANCH  16  17
ATOM     17  C   UNL     1       9.968  -0.597  23.460  0.00  0.00    -0.047 A 
ATOM     18  C   UNL     1       9.659  -0.165  22.162  0.00  0.00    +0.003 A 
ATOM     19  C   UNL     1       9.825   1.174  21.801  0.00  0.00    +0.000 A 
ATOM     20  C   UNL     1      10.317   2.089  22.728  0.00  0.00    +0.000 A 
ATOM     21  C   UNL     1      10.649   1.667  24.013  0.00  0.00    +0.000 A 
ATOM     22  C   UNL     1      10.477   0.331  24.378  0.00  0.00    +0.003 A 
ENDBRANCH  16  17
ENDBRANCH   1  16
TORSDOF 5
ENDMDL
MODEL 4
REMARK VINA RESULT:      -5.8      3.036      6.840
REMARK  Name = 
REMARK  5 active torsions:
REMARK  status: ('A' for Active; 'I' for Inactive)
REMARK    1  A    between atoms: C_2  and  C_3
REMARK    2  A    between atoms: C_2  and  C_5
REMARK    3  A    between atoms: C_2  and  C_12
REMARK    4  A    between atoms: C_3  and  S_4
REMARK    5  A    between atoms: C_5  and  C_6
REMARK                            x       y       z     vdW  Elec       q    Type
REMARK                         _______ _______ _______ _____ _____    ______ ____
ROOT
ATOM      1  C   UNL     1       6.626  -3.475  22.965  0.00  0.00    +0.069 C 
ENDROOT
BRANCH   1   2
ATOM      2  C   UNL     1       7.264  -2.134  22.682  0.00  0.00    +0.113 A 
ATOM      3  N   UNL     1       6.636  -0.936  22.921  0.00  0.00    -0.341 N 
ATOM      4  H   UNL     1       5.705  -0.830  23.300  0.00  0.00    +0.167 HD
ATOM      5  C   UNL     1       7.476   0.076  22.538  0.00  0.00    +0.078 A 
ATOM      6  C   UNL     1       7.337   1.455  22.544  0.00  0.00    +0.097 A 
ATOM      7  C   UNL     1       8.447   2.143  22.084  0.00  0.00    +0.309 A 
ATOM      8  N   UNL     1       9.546   1.494  21.668  0.00  0.00    -0.215 N 
ATOM      9  C   UNL     1       9.711   0.164  21.638  0.00  0.00    +0.337 A 
ATOM     10  H   UNL     1      10.330   2.062  21.343  0.00  0.00    +0.452 HD
ATOM     11  C   UNL     1       8.621  -0.569  22.097  0.00  0.00    +0.152 A 
ATOM     12  N   UNL     1       8.474  -1.929  22.195  0.00  0.00    -0.226 NA
ENDBRANCH   1   2
BRANCH   1  13
ATOM     13  C   UNL     1       6.054  -4.094  21.675  0.00  0.00    +0.077 C 
BRANCH  13  14
ATOM     14  S   UNL     1       6.610  -5.801  21.332  0.00  0.00    -0.178 S 
ATOM     15  H   UNL     1       6.530  -6.251  22.595  0.00  0.00    +0.102 HD
ENDBRANCH  13  14
ENDBRANCH   1  13
BRANCH   1  16
ATOM     16  C   UNL     1       7.552  -4.455  23.728  0.00  0.00    +0.047 C 
BRANCH  16  17
ATOM     17  C   UNL     1       6.957  -4.988  25.013  0.00  0.00    -0.047 A 
ATOM     18  C   UNL     1       5.695  -5.603  25.018  0.00  0.00    +0.003 A 
ATOM     19  C   UNL     1       5.164  -6.121  26.200  0.00  0.00    +0.000 A 
ATOM     20  C   UNL     1       5.879  -6.017  27.390  0.00  0.00    +0.000 A 
ATOM     21  C   UNL     1       7.121  -5.387  27.402  0.00  0.00    +0.000 A 
ATOM     22  C   UNL     1       7.657  -4.875  26.221  0.00  0.00    +0.003 A 
ENDBRANCH  16  17
ENDBRANCH   1  16
TORSDOF 5
ENDMDL
MODEL 5
REMARK VINA RESULT:      -5.8      2.290      6.731
REMARK  Name = 
REMARK  5 active torsions:
REMARK  status: ('A' for Active; 'I' for Inactive)
REMARK    1  A    between atoms: C_2  and  C_3
REMARK    2  A    between atoms: C_2  and  C_5
REMARK    3  A    between atoms: C_2  and  C_12
REMARK    4  A    between atoms: C_3  and  S_4
REMARK    5  A    between atoms: C_5  and  C_6
REMARK                            x       y       z     vdW  Elec       q    Type
REMARK                         _______ _______ _______ _____ _____    ______ ____
ROOT
ATOM      1  C   UNL     1       8.334  -3.157  23.973  0.00  0.00    +0.069 C 
ENDROOT
BRANCH   1   2
ATOM      2  C   UNL     1       8.790  -1.789  23.517  0.00  0.00    +0.113 A 
ATOM      3  N   UNL     1       9.513  -0.934  24.312  0.00  0.00    -0.341 N 
ATOM      4  H   UNL     1       9.806  -1.124  25.260  0.00  0.00    +0.167 HD
ATOM      5  C   UNL     1       9.743   0.218  23.607  0.00  0.00    +0.078 A 
ATOM      6  C   UNL     1      10.396   1.396  23.934  0.00  0.00    +0.097 A 
ATOM      7  C   UNL     1      10.430   2.333  22.916  0.00  0.00    +0.309 A 
ATOM      8  N   UNL     1       9.862   2.088  21.725  0.00  0.00    -0.215 N 
ATOM      9  C   UNL     1       9.214   0.967  21.377  0.00  0.00    +0.337 A 
ATOM     10  H   UNL     1       9.925   2.821  21.016  0.00  0.00    +0.452 HD
ATOM     11  C   UNL     1       9.159  -0.006  22.370  0.00  0.00    +0.152 A 
ATOM     12  N   UNL     1       8.579  -1.248  22.331  0.00  0.00    -0.226 NA
ENDBRANCH   1   2
BRANCH   1  13
ATOM     13  C   UNL     1       9.433  -3.854  24.798  0.00  0.00    +0.077 C 
BRANCH  13  14
ATOM     14  S   UNL     1       8.890  -4.470  26.432  0.00  0.00    -0.178 S 
ATOM     15  H   UNL     1       9.325  -5.732  26.279  0.00  0.00    +0.102 HD
ENDBRANCH  13  14
ENDBRANCH   1  13
BRANCH   1  16
ATOM     16  C   UNL     1       6.968  -3.146  24.703  0.00  0.00    +0.047 C 
BRANCH  16  17
ATOM     17  C   UNL     1       5.934  -4.061  24.083  0.00  0.00    -0.047 A 
ATOM     18  C   UNL     1       6.324  -5.156  23.297  0.00  0.00    +0.003 A 
ATOM     19  C   UNL     1       5.368  -6.016  22.754  0.00  0.00    +0.000 A 
ATOM     20  C   UNL     1       4.014  -5.782  22.976  0.00  0.00    +0.000 A 
ATOM     21  C   UNL     1       3.613  -4.685  23.736  0.00  0.00    +0.000 A 
ATOM     22  C   UNL     1       4.567  -3.828  24.285  0.00  0.00    +0.003 A 
ENDBRANCH  16  17
ENDBRANCH   1  16
TORSDOF 5
ENDMDL
MODEL 6
REMARK VINA RESULT:      -5.8      2.507      4.022
REMARK  Name = 
REMARK  5 active torsions:
REMARK  status: ('A' for Active; 'I' for Inactive)
REMARK    1  A    between atoms: C_2  and  C_3
REMARK    2  A    between atoms: C_2  and  C_5
REMARK    3  A    between atoms: C_2  and  C_12
REMARK    4  A    between atoms: C_3  and  S_4
REMARK    5  A    between atoms: C_5  and  C_6
REMARK                            x       y       z     vdW  Elec       q    Type
REMARK                         _______ _______ _______ _____ _____    ______ ____
ROOT
ATOM      1  C   UNL     1       9.088   1.319  22.690  0.00  0.00    +0.069 C 
ENDROOT
BRANCH   1   2
ATOM      2  C   UNL     1       8.838  -0.148  22.957  0.00  0.00    +0.113 A 
ATOM      3  N   UNL     1       9.443  -0.842  23.975  0.00  0.00    -0.341 N 
ATOM      4  H   UNL     1      10.104  -0.454  24.634  0.00  0.00    +0.167 HD
ATOM      5  C   UNL     1       9.015  -2.142  23.925  0.00  0.00    +0.078 A 
ATOM      6  C   UNL     1       9.320  -3.254  24.694  0.00  0.00    +0.097 A 
ATOM      7  C   UNL     1       8.646  -4.406  24.326  0.00  0.00    +0.309 A 
ATOM      8  N   UNL     1       7.781  -4.409  23.301  0.00  0.00    -0.215 N 
ATOM      9  C   UNL     1       7.469  -3.358  22.529  0.00  0.00    +0.337 A 
ATOM     10  H   UNL     1       7.315  -5.292  23.083  0.00  0.00    +0.452 HD
ATOM     11  C   UNL     1       8.121  -2.175  22.867  0.00  0.00    +0.152 A 
ATOM     12  N   UNL     1       8.022  -0.938  22.283  0.00  0.00    -0.226 NA
ENDBRANCH   1   2
BRANCH   1  13
ATOM     13  C   UNL     1       8.097   1.864  21.643  0.00  0.00    +0.077 C 
BRANCH  13  14
ATOM     14  S   UNL     1       6.607   2.661  22.341  0.00  0.00    -0.178 S 
ATOM     15  H   UNL     1       7.249   3.595  23.062  0.00  0.00    +0.102 HD
ENDBRANCH  13  14
ENDBRANCH   1  13
BRANCH   1  16
ATOM     16  C   UNL     1       9.124   2.187  23.973  0.00  0.00    +0.047 C 
BRANCH  16  17
ATOM     17  C   UNL     1       9.949   3.448  23.838  0.00  0.00    -0.047 A 
ATOM     18  C   UNL     1       9.408   4.699  24.174  0.00  0.00    +0.003 A 
ATOM     19  C   UNL     1      10.182   5.856  24.078  0.00  0.00    +0.000 A 
ATOM     20  C   UNL     1      11.499   5.778  23.630  0.00  0.00    +0.000 A 
ATOM     21  C   UNL     1      12.040   4.546  23.272  0.00  0.00    +0.000 A 
ATOM     22  C   UNL     1      11.269   3.387  23.373  0.00  0.00    +0.003 A 
ENDBRANCH  16  17
ENDBRANCH   1  16
TORSDOF 5
ENDMDL
MODEL 7
REMARK VINA RESULT:      -5.7      2.109      6.561
REMARK  Name = 
REMARK  5 active torsions:
REMARK  status: ('A' for Active; 'I' for Inactive)
REMARK    1  A    between atoms: C_2  and  C_3
REMARK    2  A    between atoms: C_2  and  C_5
REMARK    3  A    between atoms: C_2  and  C_12
REMARK    4  A    between atoms: C_3  and  S_4
REMARK    5  A    between atoms: C_5  and  C_6
REMARK                            x       y       z     vdW  Elec       q    Type
REMARK                         _______ _______ _______ _____ _____    ______ ____
ROOT
ATOM      1  C   UNL     1       7.440  -2.207  24.905  0.00  0.00    +0.069 C 
ENDROOT
BRANCH   1   2
ATOM      2  C   UNL     1       8.138  -1.063  24.205  0.00  0.00    +0.113 A 
ATOM      3  N   UNL     1       8.956  -0.171  24.855  0.00  0.00    -0.341 N 
ATOM      4  H   UNL     1       9.168  -0.185  25.843  0.00  0.00    +0.167 HD
ATOM      5  C   UNL     1       9.408   0.745  23.941  0.00  0.00    +0.078 A 
ATOM      6  C   UNL     1      10.232   1.852  24.061  0.00  0.00    +0.097 A 
ATOM      7  C   UNL     1      10.469   2.520  22.871  0.00  0.00    +0.309 A 
ATOM      8  N   UNL     1       9.924   2.103  21.718  0.00  0.00    -0.215 N 
ATOM      9  C   UNL     1       9.115   1.044  21.566  0.00  0.00    +0.337 A 
ATOM     10  H   UNL     1      10.142   2.639  20.876  0.00  0.00    +0.452 HD
ATOM     11  C   UNL     1       8.853   0.339  22.737  0.00  0.00    +0.152 A 
ATOM     12  N   UNL     1       8.076  -0.776  22.918  0.00  0.00    -0.226 NA
ENDBRANCH   1   2
BRANCH   1  13
ATOM     13  C   UNL     1       7.274  -1.911  26.408  0.00  0.00    +0.077 C 
BRANCH  13  14
ATOM     14  S   UNL     1       5.541  -1.786  26.977  0.00  0.00    -0.178 S 
ATOM     15  H   UNL     1       4.993  -1.565  25.770  0.00  0.00    +0.102 HD
ENDBRANCH  13  14
ENDBRANCH   1  13
BRANCH   1  16
ATOM     16  C   UNL     1       6.107  -2.624  24.236  0.00  0.00    +0.047 C 
BRANCH  16  17
ATOM     17  C   UNL     1       6.191  -3.915  23.450  0.00  0.00    -0.047 A 
ATOM     18  C   UNL     1       7.436  -4.482  23.135  0.00  0.00    +0.003 A 
ATOM     19  C   UNL     1       7.509  -5.689  22.438  0.00  0.00    +0.000 A 
ATOM     20  C   UNL     1       6.341  -6.333  22.035  0.00  0.00    +0.000 A 
ATOM     21  C   UNL     1       5.101  -5.768  22.322  0.00  0.00    +0.000 A 
ATOM     22  C   UNL     1       5.026  -4.565  23.024  0.00  0.00    +0.003 A 
ENDBRANCH  16  17
ENDBRANCH   1  16
TORSDOF 5
ENDMDL
MODEL 8
REMARK VINA RESULT:      -5.7      2.893      7.017
REMARK  Name = 
REMARK  5 active torsions:
REMARK  status: ('A' for Active; 'I' for Inactive)
REMARK    1  A    between atoms: C_2  and  C_3
REMARK    2  A    between atoms: C_2  and  C_5
REMARK    3  A    between atoms: C_2  and  C_12
REMARK    4  A    between atoms: C_3  and  S_4
REMARK    5  A    between atoms: C_5  and  C_6
REMARK                            x       y       z     vdW  Elec       q    Type
REMARK                         _______ _______ _______ _____ _____    ______ ____
ROOT
ATOM      1  C   UNL     1       7.247  -3.645  23.447  0.00  0.00    +0.069 C 
ENDROOT
BRANCH   1   2
ATOM      2  C   UNL     1       8.089  -2.389  23.470  0.00  0.00    +0.113 A 
ATOM      3  N   UNL     1       8.744  -1.944  24.592  0.00  0.00    -0.341 N 
ATOM      4  H   UNL     1       8.730  -2.396  25.495  0.00  0.00    +0.167 HD
ATOM      5  C   UNL     1       9.393  -0.779  24.277  0.00  0.00    +0.078 A 
ATOM      6  C   UNL     1      10.175   0.085  25.029  0.00  0.00    +0.097 A 
ATOM      7  C   UNL     1      10.675   1.165  24.322  0.00  0.00    +0.309 A 
ATOM      8  N   UNL     1      10.400   1.332  23.019  0.00  0.00    -0.215 N 
ATOM      9  C   UNL     1       9.641   0.525  22.264  0.00  0.00    +0.337 A 
ATOM     10  H   UNL     1      10.803   2.149  22.557  0.00  0.00    +0.452 HD
ATOM     11  C   UNL     1       9.120  -0.578  22.933  0.00  0.00    +0.152 A 
ATOM     12  N   UNL     1       8.318  -1.581  22.452  0.00  0.00    -0.226 NA
ENDBRANCH   1   2
BRANCH   1  13
ATOM     13  C   UNL     1       6.873  -4.028  22.001  0.00  0.00    +0.077 C 
BRANCH  13  14
ATOM     14  S   UNL     1       6.891  -5.822  21.654  0.00  0.00    -0.178 S 
ATOM     15  H   UNL     1       6.128  -6.193  22.696  0.00  0.00    +0.102 HD
ENDBRANCH  13  14
ENDBRANCH   1  13
BRANCH   1  16
ATOM     16  C   UNL     1       7.874  -4.829  24.225  0.00  0.00    +0.047 C 
BRANCH  16  17
ATOM     17  C   UNL     1       7.065  -5.271  25.425  0.00  0.00    -0.047 A 
ATOM     18  C   UNL     1       7.598  -5.182  26.721  0.00  0.00    +0.003 A 
ATOM     19  C   UNL     1       6.837  -5.561  27.828  0.00  0.00    +0.000 A 
ATOM     20  C   UNL     1       5.544  -6.047  27.652  0.00  0.00    +0.000 A 
ATOM     21  C   UNL     1       5.013  -6.162  26.369  0.00  0.00    +0.000 A 
ATOM     22  C   UNL     1       5.769  -5.777  25.261  0.00  0.00    +0.003 A 
ENDBRANCH  16  17
ENDBRANCH   1  16
TORSDOF 5
ENDMDL
MODEL 9
REMARK VINA RESULT:      -5.5      2.754      7.132
REMARK  Name = 
REMARK  5 active torsions:
REMARK  status: ('A' for Active; 'I' for Inactive)
REMARK    1  A    between atoms: C_2  and  C_3
REMARK    2  A    between atoms: C_2  and  C_5
REMARK    3  A    between atoms: C_2  and  C_12
REMARK    4  A    between atoms: C_3  and  S_4
REMARK    5  A    between atoms: C_5  and  C_6
REMARK                            x       y       z     vdW  Elec       q    Type
REMARK                         _______ _______ _______ _____ _____    ______ ____
ROOT
ATOM      1  C   UNL     1       7.007  -3.074  23.134  0.00  0.00    +0.069 C 
ENDROOT
BRANCH   1   2
ATOM      2  C   UNL     1       7.417  -1.654  22.816  0.00  0.00    +0.113 A 
ATOM      3  N   UNL     1       6.583  -0.576  22.981  0.00  0.00    -0.341 N 
ATOM      4  H   UNL     1       5.632  -0.618  23.321  0.00  0.00    +0.167 HD
ATOM      5  C   UNL     1       7.253   0.552  22.584  0.00  0.00    +0.078 A 
ATOM      6  C   UNL     1       6.880   1.886  22.527  0.00  0.00    +0.097 A 
ATOM      7  C   UNL     1       7.874   2.738  22.077  0.00  0.00    +0.309 A 
ATOM      8  N   UNL     1       9.085   2.275  21.730  0.00  0.00    -0.215 N 
ATOM      9  C   UNL     1       9.477   0.993  21.763  0.00  0.00    +0.337 A 
ATOM     10  H   UNL     1       9.773   2.958  21.410  0.00  0.00    +0.452 HD
ATOM     11  C   UNL     1       8.509   0.100  22.214  0.00  0.00    +0.152 A 
ATOM     12  N   UNL     1       8.594  -1.261  22.364  0.00  0.00    -0.226 NA
ENDBRANCH   1   2
BRANCH   1  13
ATOM     13  C   UNL     1       8.244  -3.956  23.395  0.00  0.00    +0.077 C 
BRANCH  13  14
ATOM     14  S   UNL     1       8.954  -3.802  25.072  0.00  0.00    -0.178 S 
ATOM     15  H   UNL     1       8.115  -2.851  25.514  0.00  0.00    +0.102 HD
ENDBRANCH  13  14
ENDBRANCH   1  13
BRANCH   1  16
ATOM     16  C   UNL     1       5.959  -3.180  24.270  0.00  0.00    +0.047 C 
BRANCH  16  17
ATOM     17  C   UNL     1       5.233  -4.507  24.313  0.00  0.00    -0.047 A 
ATOM     18  C   UNL     1       5.428  -5.396  25.381  0.00  0.00    +0.003 A 
ATOM     19  C   UNL     1       4.732  -6.605  25.433  0.00  0.00    +0.000 A 
ATOM     20  C   UNL     1       3.847  -6.945  24.413  0.00  0.00    +0.000 A 
ATOM     21  C   UNL     1       3.662  -6.080  23.337  0.00  0.00    +0.000 A 
ATOM     22  C   UNL     1       4.351  -4.868  23.286  0.00  0.00    +0.003 A 
ENDBRANCH  16  17
ENDBRANCH   1  16
TORSDOF 5
ENDMDL
