MODEL 1
REMARK VINA RESULT:      -6.7      0.000      0.000
REMARK  Name = 
REMARK  22 active torsions:
REMARK  status: ('A' for Active; 'I' for Inactive)
REMARK    1  A    between atoms: C_1  and  C_2
REMARK    2  A    between atoms: C_2  and  C_3
REMARK    3  A    between atoms: C_2  and  O_5
REMARK    4  A    between atoms: C_2  and  C_10
REMARK    5  A    between atoms: C_3  and  O_4
REMARK    6  A    between atoms: O_5  and  P_6
REMARK    7  A    between atoms: P_6  and  O_7
REMARK    8  A    between atoms: P_6  and  O_8
REMARK    9  A    between atoms: C_10  and  O_12
REMARK   10  A    between atoms: C_10  and  C_13
REMARK   11  A    between atoms: C_13  and  O_14
REMARK   12  A    between atoms: O_14  and  P_15
REMARK   13  A    between atoms: P_15  and  O_16
REMARK   14  A    between atoms: P_15  and  O_18
REMARK   15  A    between atoms: O_18  and  P_19
REMARK   16  A    between atoms: P_19  and  O_20
REMARK   17  A    between atoms: P_19  and  O_22
REMARK   18  A    between atoms: O_22  and  C_23
REMARK   19  A    between atoms: C_23  and  C_24
REMARK   20  A    between atoms: C_27  and  N_35
REMARK   21  A    between atoms: C_29  and  O_31
REMARK   22  A    between atoms: C_32  and  O_34
REMARK                            x       y       z     vdW  Elec       q    Type
REMARK                         _______ _______ _______ _____ _____    ______ ____
ROOT
ATOM      1  P   UNL     1       9.378  -0.784  24.424  0.00  0.00    +0.483 P 
ATOM      2  O   UNL     1       7.854  -0.826  24.353  0.00  0.00    -0.227 OA
ENDROOT
BRANCH   1   3
ATOM      3  O   UNL     1       9.775  -0.030  25.817  0.00  0.00    -0.302 OA
ATOM      4  H   UNL     1       9.233   0.747  26.002  0.00  0.00    +0.222 HD
ENDBRANCH   1   3
BRANCH   1   5
ATOM      5  O   UNL     1       9.401  -2.303  25.253  0.00  0.00    -0.284 OA
BRANCH   5   6
ATOM      6  C   UNL     1       9.628  -3.518  24.508  0.00  0.00    +0.206 C 
BRANCH   6   7
ATOM      7  C   UNL     1       8.982  -4.764  25.180  0.00  0.00    +0.178 C 
ATOM      8  C   UNL     1       8.221  -4.461  26.475  0.00  0.00    +0.178 C 
ATOM      9  C   UNL     1       6.773  -4.213  26.039  0.00  0.00    +0.195 C 
ATOM     10  C   UNL     1       6.757  -4.646  24.566  0.00  0.00    +0.255 C 
ATOM     11  O   UNL     1       7.964  -5.410  24.346  0.00  0.00    -0.346 OA
BRANCH  10  12
ATOM     12  N   UNL     1       5.532  -5.333  24.183  0.00  0.00    -0.270 N 
ATOM     13  C   UNL     1       4.737  -4.665  23.233  0.00  0.00    +0.352 A 
ATOM     14  O   UNL     1       5.012  -3.514  22.892  0.00  0.00    -0.244 OA
ATOM     15  N   UNL     1       3.646  -5.308  22.711  0.00  0.00    -0.178 NA
ATOM     16  C   UNL     1       3.197  -6.371  23.299  0.00  0.00    +0.123 A 
ATOM     17  N   UNL     1       2.133  -6.993  22.707  0.00  0.00    -0.343 N 
ATOM     18  H   UNL     1       1.768  -6.457  21.924  0.00  0.00    +0.144 HD
ATOM     19  H   UNL     1       1.401  -7.344  23.312  0.00  0.00    +0.144 HD
ATOM     20  C   UNL     1       3.789  -6.896  24.551  0.00  0.00    +0.061 A 
ATOM     21  C   UNL     1       4.979  -6.385  24.889  0.00  0.00    +0.096 A 
ENDBRANCH  10  12
BRANCH   8  22
ATOM     22  O   UNL     1       8.261  -5.638  27.308  0.00  0.00    -0.386 OA
ATOM     23  H   UNL     1       7.670  -6.305  26.910  0.00  0.00    +0.210 HD
ENDBRANCH   8  22
BRANCH   9  24
ATOM     24  O   UNL     1       6.395  -2.846  26.185  0.00  0.00    -0.385 OA
ATOM     25  H   UNL     1       5.509  -2.738  25.777  0.00  0.00    +0.210 HD
ENDBRANCH   9  24
ENDBRANCH   6   7
ENDBRANCH   5   6
ENDBRANCH   1   5
BRANCH   1  26
ATOM     26  O   UNL     1       9.356   0.733  23.596  0.00  0.00    -0.186 OA
BRANCH  26  27
ATOM     27  P   UNL     1       9.072   1.082  22.075  0.00  0.00    +0.483 P 
ATOM     28  O   UNL     1       9.270   0.012  21.051  0.00  0.00    -0.227 OA
BRANCH  27  29
ATOM     29  O   UNL     1       9.952   2.384  21.750  0.00  0.00    -0.302 OA
ATOM     30  H   UNL     1       9.498   3.155  22.149  0.00  0.00    +0.222 HD
ENDBRANCH  27  29
BRANCH  27  31
ATOM     31  O   UNL     1       7.536   1.661  22.032  0.00  0.00    -0.284 OA
BRANCH  31  32
ATOM     32  C   UNL     1       7.501   3.079  21.877  0.00  0.00    +0.206 C 
BRANCH  32  33
ATOM     33  C   UNL     1       6.594   3.947  22.809  0.00  0.00    +0.175 C 
BRANCH  33  34
ATOM     34  O   UNL     1       6.273   5.222  22.226  0.00  0.00    -0.387 OA
ATOM     35  H   UNL     1       6.166   5.850  22.976  0.00  0.00    +0.210 HD
ENDBRANCH  33  34
BRANCH  33  37
ATOM     36  C   UNL     1       6.918   5.499  24.857  0.00  0.00    +0.047 C 
ATOM     37  C   UNL     1       7.326   4.172  24.194  0.00  0.00    +0.129 C 
BRANCH  37  38
ATOM     38  O   UNL     1       8.756   4.135  24.120  0.00  0.00    -0.275 OA
BRANCH  38  39
ATOM     39  P   UNL     1       9.681   5.410  23.906  0.00  0.00    +0.473 P 
ATOM     40  O   UNL     1       9.999   6.236  25.102  0.00  0.00    -0.228 OA
BRANCH  39  41
ATOM     41  O   UNL     1      10.985   4.771  23.236  0.00  0.00    -0.303 OA
ATOM     42  H   UNL     1      11.207   3.912  23.638  0.00  0.00    +0.222 HD
ENDBRANCH  39  41
BRANCH  39  43
ATOM     43  O   UNL     1       9.028   6.199  22.691  0.00  0.00    -0.303 OA
ATOM     44  H   UNL     1       9.313   5.829  21.834  0.00  0.00    +0.222 HD
ENDBRANCH  39  43
ENDBRANCH  38  39
ENDBRANCH  37  38
BRANCH  37  45
ATOM     45  C   UNL     1       7.029   3.006  25.177  0.00  0.00    +0.193 C 
BRANCH  45  46
ATOM     46  O   UNL     1       8.253   2.446  25.672  0.00  0.00    -0.392 OA
ATOM     47  H   UNL     1       8.498   2.970  26.460  0.00  0.00    +0.210 HD
ENDBRANCH  45  46
ENDBRANCH  37  45
ENDBRANCH  33  37
ENDBRANCH  32  33
ENDBRANCH  31  32
ENDBRANCH  27  31
ENDBRANCH  26  27
ENDBRANCH   1  26
TORSDOF 21
ENDMDL
MODEL 2
REMARK VINA RESULT:      -6.6      1.425      2.435
REMARK  Name = 
REMARK  22 active torsions:
REMARK  status: ('A' for Active; 'I' for Inactive)
REMARK    1  A    between atoms: C_1  and  C_2
REMARK    2  A    between atoms: C_2  and  C_3
REMARK    3  A    between atoms: C_2  and  O_5
REMARK    4  A    between atoms: C_2  and  C_10
REMARK    5  A    between atoms: C_3  and  O_4
REMARK    6  A    between atoms: O_5  and  P_6
REMARK    7  A    between atoms: P_6  and  O_7
REMARK    8  A    between atoms: P_6  and  O_8
REMARK    9  A    between atoms: C_10  and  O_12
REMARK   10  A    between atoms: C_10  and  C_13
REMARK   11  A    between atoms: C_13  and  O_14
REMARK   12  A    between atoms: O_14  and  P_15
REMARK   13  A    between atoms: P_15  and  O_16
REMARK   14  A    between atoms: P_15  and  O_18
REMARK   15  A    between atoms: O_18  and  P_19
REMARK   16  A    between atoms: P_19  and  O_20
REMARK   17  A    between atoms: P_19  and  O_22
REMARK   18  A    between atoms: O_22  and  C_23
REMARK   19  A    between atoms: C_23  and  C_24
REMARK   20  A    between atoms: C_27  and  N_35
REMARK   21  A    between atoms: C_29  and  O_31
REMARK   22  A    between atoms: C_32  and  O_34
REMARK                            x       y       z     vdW  Elec       q    Type
REMARK                         _______ _______ _______ _____ _____    ______ ____
ROOT
ATOM      1  P   UNL     1       8.585  -1.283  24.190  0.00  0.00    +0.483 P 
ATOM      2  O   UNL     1       7.865  -0.505  25.290  0.00  0.00    -0.227 OA
ENDROOT
BRANCH   1   3
ATOM      3  O   UNL     1      10.149  -0.817  24.216  0.00  0.00    -0.302 OA
ATOM      4  H   UNL     1      10.706  -1.303  23.595  0.00  0.00    +0.222 HD
ENDBRANCH   1   3
BRANCH   1   5
ATOM      5  O   UNL     1       8.956  -2.554  25.304  0.00  0.00    -0.284 OA
BRANCH   5   6
ATOM      6  C   UNL     1       9.442  -3.818  24.806  0.00  0.00    +0.206 C 
BRANCH   6   7
ATOM      7  C   UNL     1       8.704  -5.035  25.435  0.00  0.00    +0.178 C 
ATOM      8  C   UNL     1       7.895  -4.703  26.694  0.00  0.00    +0.178 C 
ATOM      9  C   UNL     1       6.485  -4.381  26.190  0.00  0.00    +0.195 C 
ATOM     10  C   UNL     1       6.520  -4.804  24.713  0.00  0.00    +0.255 C 
ATOM     11  O   UNL     1       7.697  -5.625  24.546  0.00  0.00    -0.346 OA
BRANCH  10  12
ATOM     12  N   UNL     1       5.284  -5.427  24.265  0.00  0.00    -0.270 N 
ATOM     13  C   UNL     1       4.416  -4.592  23.536  0.00  0.00    +0.352 A 
ATOM     14  O   UNL     1       4.650  -3.387  23.440  0.00  0.00    -0.244 OA
ATOM     15  N   UNL     1       3.304  -5.139  22.954  0.00  0.00    -0.178 NA
ATOM     16  C   UNL     1       2.911  -6.317  23.321  0.00  0.00    +0.123 A 
ATOM     17  N   UNL     1       1.820  -6.826  22.673  0.00  0.00    -0.343 N 
ATOM     18  H   UNL     1       1.395  -6.144  22.051  0.00  0.00    +0.144 HD
ATOM     19  H   UNL     1       1.135  -7.323  23.230  0.00  0.00    +0.144 HD
ATOM     20  C   UNL     1       3.593  -7.083  24.388  0.00  0.00    +0.061 A 
ATOM     21  C   UNL     1       4.795  -6.623  24.756  0.00  0.00    +0.096 A 
ENDBRANCH  10  12
BRANCH   8  22
ATOM     22  O   UNL     1       7.837  -5.886  27.517  0.00  0.00    -0.386 OA
ATOM     23  H   UNL     1       7.370  -5.653  28.341  0.00  0.00    +0.210 HD
ENDBRANCH   8  22
BRANCH   9  24
ATOM     24  O   UNL     1       6.167  -2.998  26.329  0.00  0.00    -0.385 OA
ATOM     25  H   UNL     1       6.484  -2.708  27.212  0.00  0.00    +0.210 HD
ENDBRANCH   9  24
ENDBRANCH   6   7
ENDBRANCH   5   6
ENDBRANCH   1   5
BRANCH   1  26
ATOM     26  O   UNL     1       8.214  -0.013  23.077  0.00  0.00    -0.186 OA
BRANCH  26  27
ATOM     27  P   UNL     1       9.011   0.530  21.818  0.00  0.00    +0.483 P 
ATOM     28  O   UNL     1       8.317   1.470  20.888  0.00  0.00    -0.227 OA
BRANCH  27  29
ATOM     29  O   UNL     1       9.558  -0.769  21.051  0.00  0.00    -0.302 OA
ATOM     30  H   UNL     1      10.121  -0.461  20.310  0.00  0.00    +0.222 HD
ENDBRANCH  27  29
BRANCH  27  31
ATOM     31  O   UNL     1      10.383   1.202  22.419  0.00  0.00    -0.284 OA
BRANCH  31  32
ATOM     32  C   UNL     1      10.219   2.588  22.713  0.00  0.00    +0.206 C 
BRANCH  32  33
ATOM     33  C   UNL     1       9.953   3.051  24.182  0.00  0.00    +0.175 C 
BRANCH  33  34
ATOM     34  O   UNL     1       9.408   1.998  24.997  0.00  0.00    -0.387 OA
ATOM     35  H   UNL     1      10.031   1.881  25.750  0.00  0.00    +0.210 HD
ENDBRANCH  33  34
BRANCH  33  37
ATOM     36  C   UNL     1       8.232   4.449  25.522  0.00  0.00    +0.047 C 
ATOM     37  C   UNL     1       8.954   4.280  24.174  0.00  0.00    +0.129 C 
BRANCH  37  38
ATOM     38  O   UNL     1       7.961   4.227  23.143  0.00  0.00    -0.275 OA
BRANCH  38  39
ATOM     39  P   UNL     1       6.491   3.655  23.337  0.00  0.00    +0.473 P 
ATOM     40  O   UNL     1       5.502   4.524  24.031  0.00  0.00    -0.228 OA
BRANCH  39  41
ATOM     41  O   UNL     1       6.061   3.316  21.833  0.00  0.00    -0.303 OA
ATOM     42  H   UNL     1       5.094   3.242  21.748  0.00  0.00    +0.222 HD
ENDBRANCH  39  41
BRANCH  39  43
ATOM     43  O   UNL     1       6.685   2.210  23.968  0.00  0.00    -0.303 OA
ATOM     44  H   UNL     1       6.312   2.164  24.870  0.00  0.00    +0.222 HD
ENDBRANCH  39  43
ENDBRANCH  38  39
ENDBRANCH  37  38
BRANCH  37  45
ATOM     45  C   UNL     1       9.698   5.599  23.832  0.00  0.00    +0.193 C 
BRANCH  45  46
ATOM     46  O   UNL     1       9.096   6.231  22.693  0.00  0.00    -0.392 OA
ATOM     47  H   UNL     1       9.319   5.677  21.919  0.00  0.00    +0.210 HD
ENDBRANCH  45  46
ENDBRANCH  37  45
ENDBRANCH  33  37
ENDBRANCH  32  33
ENDBRANCH  31  32
ENDBRANCH  27  31
ENDBRANCH  26  27
ENDBRANCH   1  26
TORSDOF 21
ENDMDL
MODEL 3
REMARK VINA RESULT:      -6.6      3.451      8.465
REMARK  Name = 
REMARK  22 active torsions:
REMARK  status: ('A' for Active; 'I' for Inactive)
REMARK    1  A    between atoms: C_1  and  C_2
REMARK    2  A    between atoms: C_2  and  C_3
REMARK    3  A    between atoms: C_2  and  O_5
REMARK    4  A    between atoms: C_2  and  C_10
REMARK    5  A    between atoms: C_3  and  O_4
REMARK    6  A    between atoms: O_5  and  P_6
REMARK    7  A    between atoms: P_6  and  O_7
REMARK    8  A    between atoms: P_6  and  O_8
REMARK    9  A    between atoms: C_10  and  O_12
REMARK   10  A    between atoms: C_10  and  C_13
REMARK   11  A    between atoms: C_13  and  O_14
REMARK   12  A    between atoms: O_14  and  P_15
REMARK   13  A    between atoms: P_15  and  O_16
REMARK   14  A    between atoms: P_15  and  O_18
REMARK   15  A    between atoms: O_18  and  P_19
REMARK   16  A    between atoms: P_19  and  O_20
REMARK   17  A    between atoms: P_19  and  O_22
REMARK   18  A    between atoms: O_22  and  C_23
REMARK   19  A    between atoms: C_23  and  C_24
REMARK   20  A    between atoms: C_27  and  N_35
REMARK   21  A    between atoms: C_29  and  O_31
REMARK   22  A    between atoms: C_32  and  O_34
REMARK                            x       y       z     vdW  Elec       q    Type
REMARK                         _______ _______ _______ _____ _____    ______ ____
ROOT
ATOM      1  P   UNL     1       8.801  -2.287  23.602  0.00  0.00    +0.483 P 
ATOM      2  O   UNL     1       9.734  -3.424  24.009  0.00  0.00    -0.227 OA
ENDROOT
BRANCH   1   3
ATOM      3  O   UNL     1       7.704  -2.112  24.799  0.00  0.00    -0.302 OA
ATOM      4  H   UNL     1       7.058  -2.829  24.837  0.00  0.00    +0.222 HD
ENDBRANCH   1   3
BRANCH   1   5
ATOM      5  O   UNL     1       9.827  -1.137  24.390  0.00  0.00    -0.284 OA
BRANCH   5   6
ATOM      6  C   UNL     1      10.629  -0.237  23.596  0.00  0.00    +0.206 C 
BRANCH   6   7
ATOM      7  C   UNL     1      10.286   1.259  23.854  0.00  0.00    +0.178 C 
ATOM      8  C   UNL     1      10.298   2.135  22.597  0.00  0.00    +0.178 C 
ATOM      9  C   UNL     1       8.855   2.117  22.082  0.00  0.00    +0.195 C 
ATOM     10  C   UNL     1       8.071   1.447  23.221  0.00  0.00    +0.255 C 
ATOM     11  O   UNL     1       8.933   1.461  24.381  0.00  0.00    -0.346 OA
BRANCH  10  12
ATOM     12  N   UNL     1       6.759   2.038  23.439  0.00  0.00    -0.270 N 
ATOM     13  C   UNL     1       5.867   1.261  24.202  0.00  0.00    +0.352 A 
ATOM     14  O   UNL     1       6.159   0.106  24.513  0.00  0.00    -0.244 OA
ATOM     15  N   UNL     1       4.668   1.806  24.577  0.00  0.00    -0.178 NA
ATOM     16  C   UNL     1       4.250   2.882  23.989  0.00  0.00    +0.123 A 
ATOM     17  N   UNL     1       3.067   3.402  24.436  0.00  0.00    -0.343 N 
ATOM     18  H   UNL     1       2.616   2.793  25.114  0.00  0.00    +0.144 HD
ATOM     19  H   UNL     1       2.419   3.755  23.741  0.00  0.00    +0.144 HD
ATOM     20  C   UNL     1       4.999   3.525  22.886  0.00  0.00    +0.061 A 
ATOM     21  C   UNL     1       6.258   3.105  22.717  0.00  0.00    +0.096 A 
ENDBRANCH  10  12
BRANCH   8  22
ATOM     22  O   UNL     1      10.634   3.483  22.990  0.00  0.00    -0.386 OA
ATOM     23  H   UNL     1       9.845   4.039  22.850  0.00  0.00    +0.210 HD
ENDBRANCH   8  22
BRANCH   9  24
ATOM     24  O   UNL     1       8.730   1.388  20.863  0.00  0.00    -0.385 OA
ATOM     25  H   UNL     1       8.478   0.467  21.093  0.00  0.00    +0.210 HD
ENDBRANCH   9  24
ENDBRANCH   6   7
ENDBRANCH   5   6
ENDBRANCH   1   5
BRANCH   1  26
ATOM     26  O   UNL     1       7.776  -3.436  22.815  0.00  0.00    -0.186 OA
BRANCH  26  27
ATOM     27  P   UNL     1       6.249  -3.349  22.396  0.00  0.00    +0.483 P 
ATOM     28  O   UNL     1       5.803  -4.086  21.176  0.00  0.00    -0.227 OA
BRANCH  27  29
ATOM     29  O   UNL     1       5.907  -1.784  22.303  0.00  0.00    -0.302 OA
ATOM     30  H   UNL     1       5.146  -1.610  22.894  0.00  0.00    +0.222 HD
ENDBRANCH  27  29
BRANCH  27  31
ATOM     31  O   UNL     1       5.400  -3.827  23.717  0.00  0.00    -0.284 OA
BRANCH  31  32
ATOM     32  C   UNL     1       4.606  -4.984  23.456  0.00  0.00    +0.206 C 
BRANCH  32  33
ATOM     33  C   UNL     1       4.923  -6.331  24.184  0.00  0.00    +0.175 C 
BRANCH  33  34
ATOM     34  O   UNL     1       4.143  -7.425  23.670  0.00  0.00    -0.387 OA
ATOM     35  H   UNL     1       3.428  -7.024  23.126  0.00  0.00    +0.210 HD
ENDBRANCH  33  34
BRANCH  33  37
ATOM     36  C   UNL     1       3.960  -4.834  26.065  0.00  0.00    +0.047 C 
ATOM     37  C   UNL     1       4.645  -6.170  25.734  0.00  0.00    +0.129 C 
BRANCH  37  38
ATOM     38  O   UNL     1       5.811  -6.287  26.558  0.00  0.00    -0.275 OA
BRANCH  38  39
ATOM     39  P   UNL     1       6.971  -5.204  26.637  0.00  0.00    +0.473 P 
ATOM     40  O   UNL     1       6.612  -3.847  27.131  0.00  0.00    -0.228 OA
BRANCH  39  41
ATOM     41  O   UNL     1       8.048  -5.931  27.570  0.00  0.00    -0.303 OA
ATOM     42  H   UNL     1       8.821  -6.228  27.056  0.00  0.00    +0.222 HD
ENDBRANCH  39  41
BRANCH  39  43
ATOM     43  O   UNL     1       7.676  -5.243  25.213  0.00  0.00    -0.303 OA
ATOM     44  H   UNL     1       7.028  -5.412  24.502  0.00  0.00    +0.222 HD
ENDBRANCH  39  43
ENDBRANCH  38  39
ENDBRANCH  37  38
BRANCH  37  45
ATOM     45  C   UNL     1       3.763  -7.334  26.265  0.00  0.00    +0.193 C 
BRANCH  45  46
ATOM     46  O   UNL     1       2.384  -7.096  25.954  0.00  0.00    -0.392 OA
ATOM     47  H   UNL     1       2.330  -6.182  25.614  0.00  0.00    +0.210 HD
ENDBRANCH  45  46
ENDBRANCH  37  45
ENDBRANCH  33  37
ENDBRANCH  32  33
ENDBRANCH  31  32
ENDBRANCH  27  31
ENDBRANCH  26  27
ENDBRANCH   1  26
TORSDOF 21
ENDMDL
MODEL 4
REMARK VINA RESULT:      -6.6      3.515      8.332
REMARK  Name = 
REMARK  22 active torsions:
REMARK  status: ('A' for Active; 'I' for Inactive)
REMARK    1  A    between atoms: C_1  and  C_2
REMARK    2  A    between atoms: C_2  and  C_3
REMARK    3  A    between atoms: C_2  and  O_5
REMARK    4  A    between atoms: C_2  and  C_10
REMARK    5  A    between atoms: C_3  and  O_4
REMARK    6  A    between atoms: O_5  and  P_6
REMARK    7  A    between atoms: P_6  and  O_7
REMARK    8  A    between atoms: P_6  and  O_8
REMARK    9  A    between atoms: C_10  and  O_12
REMARK   10  A    between atoms: C_10  and  C_13
REMARK   11  A    between atoms: C_13  and  O_14
REMARK   12  A    between atoms: O_14  and  P_15
REMARK   13  A    between atoms: P_15  and  O_16
REMARK   14  A    between atoms: P_15  and  O_18
REMARK   15  A    between atoms: O_18  and  P_19
REMARK   16  A    between atoms: P_19  and  O_20
REMARK   17  A    between atoms: P_19  and  O_22
REMARK   18  A    between atoms: O_22  and  C_23
REMARK   19  A    between atoms: C_23  and  C_24
REMARK   20  A    between atoms: C_27  and  N_35
REMARK   21  A    between atoms: C_29  and  O_31
REMARK   22  A    between atoms: C_32  and  O_34
REMARK                            x       y       z     vdW  Elec       q    Type
REMARK                         _______ _______ _______ _____ _____    ______ ____
ROOT
ATOM      1  P   UNL     1       9.412  -2.129  24.689  0.00  0.00    +0.483 P 
ATOM      2  O   UNL     1       8.372  -1.173  25.268  0.00  0.00    -0.227 OA
ENDROOT
BRANCH   1   3
ATOM      3  O   UNL     1       8.898  -2.555  23.199  0.00  0.00    -0.302 OA
ATOM      4  H   UNL     1       9.599  -2.906  22.635  0.00  0.00    +0.222 HD
ENDBRANCH   1   3
BRANCH   1   5
ATOM      5  O   UNL     1      10.279  -0.801  23.999  0.00  0.00    -0.284 OA
BRANCH   5   6
ATOM      6  C   UNL     1      10.343   0.454  24.709  0.00  0.00    +0.206 C 
BRANCH   6   7
ATOM      7  C   UNL     1       9.966   1.671  23.814  0.00  0.00    +0.178 C 
ATOM      8  C   UNL     1       9.500   1.296  22.403  0.00  0.00    +0.178 C 
ATOM      9  C   UNL     1       7.976   1.172  22.503  0.00  0.00    +0.195 C 
ATOM     10  C   UNL     1       7.656   1.736  23.896  0.00  0.00    +0.255 C 
ATOM     11  O   UNL     1       8.836   2.446  24.336  0.00  0.00    -0.346 OA
BRANCH  10  12
ATOM     12  N   UNL     1       6.433   2.524  23.929  0.00  0.00    -0.270 N 
ATOM     13  C   UNL     1       5.295   1.852  24.414  0.00  0.00    +0.352 A 
ATOM     14  O   UNL     1       5.338   0.641  24.638  0.00  0.00    -0.244 OA
ATOM     15  N   UNL     1       4.142   2.562  24.616  0.00  0.00    -0.178 NA
ATOM     16  C   UNL     1       4.023   3.739  24.089  0.00  0.00    +0.123 A 
ATOM     17  N   UNL     1       2.866   4.415  24.362  0.00  0.00    -0.343 N 
ATOM     18  H   UNL     1       2.199   3.839  24.866  0.00  0.00    +0.144 HD
ATOM     19  H   UNL     1       2.437   4.932  23.603  0.00  0.00    +0.144 HD
ATOM     20  C   UNL     1       5.072   4.333  23.230  0.00  0.00    +0.061 A 
ATOM     21  C   UNL     1       6.260   3.718  23.255  0.00  0.00    +0.096 A 
ENDBRANCH  10  12
BRANCH   8  22
ATOM     22  O   UNL     1       9.820   2.391  21.518  0.00  0.00    -0.386 OA
ATOM     23  H   UNL     1       9.600   3.221  21.979  0.00  0.00    +0.210 HD
ENDBRANCH   8  22
BRANCH   9  24
ATOM     24  O   UNL     1       7.538  -0.178  22.374  0.00  0.00    -0.385 OA
ATOM     25  H   UNL     1       7.701  -0.627  23.232  0.00  0.00    +0.210 HD
ENDBRANCH   9  24
ENDBRANCH   6   7
ENDBRANCH   5   6
ENDBRANCH   1   5
BRANCH   1  26
ATOM     26  O   UNL     1       8.545  -3.457  25.379  0.00  0.00    -0.186 OA
BRANCH  26  27
ATOM     27  P   UNL     1       8.951  -4.979  25.561  0.00  0.00    +0.483 P 
ATOM     28  O   UNL     1      10.225  -5.295  26.274  0.00  0.00    -0.227 OA
BRANCH  27  29
ATOM     29  O   UNL     1       8.917  -5.622  24.091  0.00  0.00    -0.302 OA
ATOM     30  H   UNL     1       8.113  -6.177  24.029  0.00  0.00    +0.222 HD
ENDBRANCH  27  29
BRANCH  27  31
ATOM     31  O   UNL     1       7.670  -5.694  26.300  0.00  0.00    -0.284 OA
BRANCH  31  32
ATOM     32  C   UNL     1       6.524  -4.845  26.327  0.00  0.00    +0.206 C 
BRANCH  32  33
ATOM     33  C   UNL     1       5.254  -5.217  25.494  0.00  0.00    +0.175 C 
BRANCH  33  34
ATOM     34  O   UNL     1       5.265  -6.589  25.064  0.00  0.00    -0.387 OA
ATOM     35  H   UNL     1       5.858  -6.628  24.279  0.00  0.00    +0.210 HD
ENDBRANCH  33  34
BRANCH  33  37
ATOM     36  C   UNL     1       3.849  -4.475  23.449  0.00  0.00    +0.047 C 
ATOM     37  C   UNL     1       5.158  -4.270  24.229  0.00  0.00    +0.129 C 
BRANCH  37  38
ATOM     38  O   UNL     1       6.248  -4.402  23.308  0.00  0.00    -0.275 OA
BRANCH  38  39
ATOM     39  P   UNL     1       6.141  -5.090  21.879  0.00  0.00    +0.473 P 
ATOM     40  O   UNL     1       5.682  -4.245  20.743  0.00  0.00    -0.228 OA
BRANCH  39  41
ATOM     41  O   UNL     1       7.624  -5.653  21.666  0.00  0.00    -0.303 OA
ATOM     42  H   UNL     1       8.030  -5.287  20.860  0.00  0.00    +0.222 HD
ENDBRANCH  39  41
BRANCH  39  43
ATOM     43  O   UNL     1       5.305  -6.420  22.117  0.00  0.00    -0.303 OA
ATOM     44  H   UNL     1       5.487  -7.082  21.423  0.00  0.00    +0.222 HD
ENDBRANCH  39  43
ENDBRANCH  38  39
ENDBRANCH  37  38
BRANCH  37  45
ATOM     45  C   UNL     1       5.271  -2.777  24.642  0.00  0.00    +0.193 C 
BRANCH  45  46
ATOM     46  O   UNL     1       5.928  -2.023  23.614  0.00  0.00    -0.392 OA
ATOM     47  H   UNL     1       6.872  -1.981  23.862  0.00  0.00    +0.210 HD
ENDBRANCH  45  46
ENDBRANCH  37  45
ENDBRANCH  33  37
ENDBRANCH  32  33
ENDBRANCH  31  32
ENDBRANCH  27  31
ENDBRANCH  26  27
ENDBRANCH   1  26
TORSDOF 21
ENDMDL
MODEL 5
REMARK VINA RESULT:      -6.5      4.078      9.503
REMARK  Name = 
REMARK  22 active torsions:
REMARK  status: ('A' for Active; 'I' for Inactive)
REMARK    1  A    between atoms: C_1  and  C_2
REMARK    2  A    between atoms: C_2  and  C_3
REMARK    3  A    between atoms: C_2  and  O_5
REMARK    4  A    between atoms: C_2  and  C_10
REMARK    5  A    between atoms: C_3  and  O_4
REMARK    6  A    between atoms: O_5  and  P_6
REMARK    7  A    between atoms: P_6  and  O_7
REMARK    8  A    between atoms: P_6  and  O_8
REMARK    9  A    between atoms: C_10  and  O_12
REMARK   10  A    between atoms: C_10  and  C_13
REMARK   11  A    between atoms: C_13  and  O_14
REMARK   12  A    between atoms: O_14  and  P_15
REMARK   13  A    between atoms: P_15  and  O_16
REMARK   14  A    between atoms: P_15  and  O_18
REMARK   15  A    between atoms: O_18  and  P_19
REMARK   16  A    between atoms: P_19  and  O_20
REMARK   17  A    between atoms: P_19  and  O_22
REMARK   18  A    between atoms: O_22  and  C_23
REMARK   19  A    between atoms: C_23  and  C_24
REMARK   20  A    between atoms: C_27  and  N_35
REMARK   21  A    between atoms: C_29  and  O_31
REMARK   22  A    between atoms: C_32  and  O_34
REMARK                            x       y       z     vdW  Elec       q    Type
REMARK                         _______ _______ _______ _____ _____    ______ ____
ROOT
ATOM      1  P   UNL     1       6.735   0.060  24.448  0.00  0.00    +0.483 P 
ATOM      2  O   UNL     1       5.473  -0.690  24.868  0.00  0.00    -0.227 OA
ENDROOT
BRANCH   1   3
ATOM      3  O   UNL     1       6.758   0.087  22.816  0.00  0.00    -0.302 OA
ATOM      4  H   UNL     1       7.114   0.906  22.449  0.00  0.00    +0.222 HD
ENDBRANCH   1   3
BRANCH   1   5
ATOM      5  O   UNL     1       5.869   1.558  24.449  0.00  0.00    -0.284 OA
BRANCH   5   6
ATOM      6  C   UNL     1       5.738   2.306  23.222  0.00  0.00    +0.206 C 
BRANCH   6   7
ATOM      7  C   UNL     1       6.114   3.807  23.390  0.00  0.00    +0.178 C 
ATOM      8  C   UNL     1       6.214   4.274  24.846  0.00  0.00    +0.178 C 
ATOM      9  C   UNL     1       7.686   4.084  25.227  0.00  0.00    +0.195 C 
ATOM     10  C   UNL     1       8.371   3.769  23.889  0.00  0.00    +0.255 C 
ATOM     11  O   UNL     1       7.437   4.137  22.849  0.00  0.00    -0.346 OA
BRANCH  10  12
ATOM     12  N   UNL     1       9.686   4.380  23.759  0.00  0.00    -0.270 N 
ATOM     13  C   UNL     1      10.740   3.490  23.480  0.00  0.00    +0.352 A 
ATOM     14  O   UNL     1      10.549   2.274  23.505  0.00  0.00    -0.244 OA
ATOM     15  N   UNL     1      11.980   3.999  23.197  0.00  0.00    -0.178 NA
ATOM     16  C   UNL     1      12.235   5.237  23.479  0.00  0.00    +0.123 A 
ATOM     17  N   UNL     1      13.475   5.698  23.135  0.00  0.00    -0.343 N 
ATOM     18  H   UNL     1      14.076   4.953  22.793  0.00  0.00    +0.144 HD
ATOM     19  H   UNL     1      13.948   6.305  23.794  0.00  0.00    +0.144 HD
ATOM     20  C   UNL     1      11.249   6.119  24.144  0.00  0.00    +0.061 A 
ATOM     21  C   UNL     1       9.993   5.659  24.184  0.00  0.00    +0.096 A 
ENDBRANCH  10  12
BRANCH   8  22
ATOM     22  O   UNL     1       5.900   5.682  24.890  0.00  0.00    -0.386 OA
ATOM     23  H   UNL     1       6.464   6.134  24.235  0.00  0.00    +0.210 HD
ENDBRANCH   8  22
BRANCH   9  24
ATOM     24  O   UNL     1       7.865   3.027  26.166  0.00  0.00    -0.385 OA
ATOM     25  H   UNL     1       8.602   2.464  25.843  0.00  0.00    +0.210 HD
ENDBRANCH   9  24
ENDBRANCH   6   7
ENDBRANCH   5   6
ENDBRANCH   1   5
BRANCH   1  26
ATOM     26  O   UNL     1       7.600  -1.437  24.446  0.00  0.00    -0.186 OA
BRANCH  26  27
ATOM     27  P   UNL     1       8.821  -1.930  23.562  0.00  0.00    +0.483 P 
ATOM     28  O   UNL     1       9.823  -2.848  24.182  0.00  0.00    -0.227 OA
BRANCH  27  29
ATOM     29  O   UNL     1       9.510  -0.601  22.985  0.00  0.00    -0.302 OA
ATOM     30  H   UNL     1       8.964   0.163  23.265  0.00  0.00    +0.222 HD
ENDBRANCH  27  29
BRANCH  27  31
ATOM     31  O   UNL     1       8.153  -2.604  22.222  0.00  0.00    -0.284 OA
BRANCH  31  32
ATOM     32  C   UNL     1       7.062  -3.465  22.540  0.00  0.00    +0.206 C 
BRANCH  32  33
ATOM     33  C   UNL     1       7.329  -4.850  23.215  0.00  0.00    +0.175 C 
BRANCH  33  34
ATOM     34  O   UNL     1       7.495  -5.905  22.251  0.00  0.00    -0.387 OA
ATOM     35  H   UNL     1       6.641  -5.973  21.766  0.00  0.00    +0.210 HD
ENDBRANCH  33  34
BRANCH  33  37
ATOM     36  C   UNL     1       5.202  -4.000  24.424  0.00  0.00    +0.047 C 
ATOM     37  C   UNL     1       6.126  -5.206  24.181  0.00  0.00    +0.129 C 
BRANCH  37  38
ATOM     38  O   UNL     1       6.525  -5.722  25.456  0.00  0.00    -0.275 OA
BRANCH  38  39
ATOM     39  P   UNL     1       7.687  -5.111  26.353  0.00  0.00    +0.473 P 
ATOM     40  O   UNL     1       7.630  -3.655  26.652  0.00  0.00    -0.228 OA
BRANCH  39  41
ATOM     41  O   UNL     1       7.603  -6.012  27.672  0.00  0.00    -0.303 OA
ATOM     42  H   UNL     1       6.682  -6.252  27.881  0.00  0.00    +0.222 HD
ENDBRANCH  39  41
BRANCH  39  43
ATOM     43  O   UNL     1       9.038  -5.614  25.684  0.00  0.00    -0.303 OA
ATOM     44  H   UNL     1       9.755  -5.684  26.344  0.00  0.00    +0.222 HD
ENDBRANCH  39  43
ENDBRANCH  38  39
ENDBRANCH  37  38
BRANCH  37  45
ATOM     45  C   UNL     1       5.284  -6.380  23.612  0.00  0.00    +0.193 C 
BRANCH  45  46
ATOM     46  O   UNL     1       4.588  -5.968  22.429  0.00  0.00    -0.392 OA
ATOM     47  H   UNL     1       5.260  -5.894  21.723  0.00  0.00    +0.210 HD
ENDBRANCH  45  46
ENDBRANCH  37  45
ENDBRANCH  33  37
ENDBRANCH  32  33
ENDBRANCH  31  32
ENDBRANCH  27  31
ENDBRANCH  26  27
ENDBRANCH   1  26
TORSDOF 21
ENDMDL
MODEL 6
REMARK VINA RESULT:      -6.4      3.930      8.444
REMARK  Name = 
REMARK  22 active torsions:
REMARK  status: ('A' for Active; 'I' for Inactive)
REMARK    1  A    between atoms: C_1  and  C_2
REMARK    2  A    between atoms: C_2  and  C_3
REMARK    3  A    between atoms: C_2  and  O_5
REMARK    4  A    between atoms: C_2  and  C_10
REMARK    5  A    between atoms: C_3  and  O_4
REMARK    6  A    between atoms: O_5  and  P_6
REMARK    7  A    between atoms: P_6  and  O_7
REMARK    8  A    between atoms: P_6  and  O_8
REMARK    9  A    between atoms: C_10  and  O_12
REMARK   10  A    between atoms: C_10  and  C_13
REMARK   11  A    between atoms: C_13  and  O_14
REMARK   12  A    between atoms: O_14  and  P_15
REMARK   13  A    between atoms: P_15  and  O_16
REMARK   14  A    between atoms: P_15  and  O_18
REMARK   15  A    between atoms: O_18  and  P_19
REMARK   16  A    between atoms: P_19  and  O_20
REMARK   17  A    between atoms: P_19  and  O_22
REMARK   18  A    between atoms: O_22  and  C_23
REMARK   19  A    between atoms: C_23  and  C_24
REMARK   20  A    between atoms: C_27  and  N_35
REMARK   21  A    between atoms: C_29  and  O_31
REMARK   22  A    between atoms: C_32  and  O_34
REMARK                            x       y       z     vdW  Elec       q    Type
REMARK                         _______ _______ _______ _____ _____    ______ ____
ROOT
ATOM      1  P   UNL     1       7.928  -3.358  22.646  0.00  0.00    +0.483 P 
ATOM      2  O   UNL     1       8.030  -2.815  24.069  0.00  0.00    -0.227 OA
ENDROOT
BRANCH   1   3
ATOM      3  O   UNL     1       6.645  -2.634  21.944  0.00  0.00    -0.302 OA
ATOM      4  H   UNL     1       6.185  -3.196  21.308  0.00  0.00    +0.222 HD
ENDBRANCH   1   3
BRANCH   1   5
ATOM      5  O   UNL     1       8.949  -2.087  22.066  0.00  0.00    -0.284 OA
BRANCH   5   6
ATOM      6  C   UNL     1      10.005  -1.581  22.910  0.00  0.00    +0.206 C 
BRANCH   6   7
ATOM      7  C   UNL     1      10.124  -0.030  22.858  0.00  0.00    +0.178 C 
ATOM      8  C   UNL     1       9.079   0.655  21.971  0.00  0.00    +0.178 C 
ATOM      9  C   UNL     1       7.915   0.990  22.909  0.00  0.00    +0.195 C 
ATOM     10  C   UNL     1       8.483   0.709  24.309  0.00  0.00    +0.255 C 
ATOM     11  O   UNL     1       9.917   0.610  24.161  0.00  0.00    -0.346 OA
BRANCH  10  12
ATOM     12  N   UNL     1       8.046   1.672  25.309  0.00  0.00    -0.270 N 
ATOM     13  C   UNL     1       7.298   1.137  26.375  0.00  0.00    +0.352 A 
ATOM     14  O   UNL     1       6.928  -0.037  26.346  0.00  0.00    -0.244 OA
ATOM     15  N   UNL     1       6.976   1.948  27.430  0.00  0.00    -0.178 NA
ATOM     16  C   UNL     1       7.095   3.231  27.302  0.00  0.00    +0.123 A 
ATOM     17  N   UNL     1       6.799   3.984  28.405  0.00  0.00    -0.343 N 
ATOM     18  H   UNL     1       6.414   3.421  29.158  0.00  0.00    +0.144 HD
ATOM     19  H   UNL     1       6.281   4.843  28.259  0.00  0.00    +0.144 HD
ATOM     20  C   UNL     1       7.523   3.866  26.035  0.00  0.00    +0.061 A 
ATOM     21  C   UNL     1       8.048   3.041  25.121  0.00  0.00    +0.096 A 
ENDBRANCH  10  12
BRANCH   8  22
ATOM     22  O   UNL     1       9.646   1.885  21.475  0.00  0.00    -0.386 OA
ATOM     23  H   UNL     1       9.007   2.277  20.850  0.00  0.00    +0.210 HD
ENDBRANCH   8  22
BRANCH   9  24
ATOM     24  O   UNL     1       6.764   0.191  22.643  0.00  0.00    -0.385 OA
ATOM     25  H   UNL     1       7.077  -0.690  22.344  0.00  0.00    +0.210 HD
ENDBRANCH   9  24
ENDBRANCH   6   7
ENDBRANCH   5   6
ENDBRANCH   1   5
BRANCH   1  26
ATOM     26  O   UNL     1       6.909  -4.629  23.225  0.00  0.00    -0.186 OA
BRANCH  26  27
ATOM     27  P   UNL     1       5.635  -5.316  22.576  0.00  0.00    +0.483 P 
ATOM     28  O   UNL     1       5.675  -5.659  21.122  0.00  0.00    -0.227 OA
BRANCH  27  29
ATOM     29  O   UNL     1       4.394  -4.361  22.926  0.00  0.00    -0.302 OA
ATOM     30  H   UNL     1       4.193  -4.474  23.878  0.00  0.00    +0.222 HD
ENDBRANCH  27  29
BRANCH  27  31
ATOM     31  O   UNL     1       5.337  -6.648  23.487  0.00  0.00    -0.284 OA
BRANCH  31  32
ATOM     32  C   UNL     1       4.623  -6.334  24.681  0.00  0.00    +0.206 C 
BRANCH  32  33
ATOM     33  C   UNL     1       5.367  -6.316  26.057  0.00  0.00    +0.175 C 
BRANCH  33  34
ATOM     34  O   UNL     1       4.921  -7.367  26.933  0.00  0.00    -0.387 OA
ATOM     35  H   UNL     1       5.516  -8.134  26.769  0.00  0.00    +0.210 HD
ENDBRANCH  33  34
BRANCH  33  37
ATOM     36  C   UNL     1       3.691  -4.732  27.236  0.00  0.00    +0.047 C 
ATOM     37  C   UNL     1       5.141  -4.915  26.759  0.00  0.00    +0.129 C 
BRANCH  37  38
ATOM     38  O   UNL     1       5.487  -3.786  25.949  0.00  0.00    -0.275 OA
BRANCH  38  39
ATOM     39  P   UNL     1       4.504  -2.582  25.614  0.00  0.00    +0.473 P 
ATOM     40  O   UNL     1       3.093  -2.920  25.284  0.00  0.00    -0.228 OA
BRANCH  39  41
ATOM     41  O   UNL     1       4.627  -1.673  26.924  0.00  0.00    -0.303 OA
ATOM     42  H   UNL     1       5.321  -2.003  27.522  0.00  0.00    +0.222 HD
ENDBRANCH  39  41
BRANCH  39  43
ATOM     43  O   UNL     1       5.266  -1.712  24.524  0.00  0.00    -0.303 OA
ATOM     44  H   UNL     1       5.636  -2.275  23.818  0.00  0.00    +0.222 HD
ENDBRANCH  39  43
ENDBRANCH  38  39
ENDBRANCH  37  38
BRANCH  37  45
ATOM     45  C   UNL     1       6.097  -4.741  27.971  0.00  0.00    +0.193 C 
BRANCH  45  46
ATOM     46  O   UNL     1       7.186  -5.669  27.886  0.00  0.00    -0.392 OA
ATOM     47  H   UNL     1       7.329  -6.013  28.790  0.00  0.00    +0.210 HD
ENDBRANCH  45  46
ENDBRANCH  37  45
ENDBRANCH  33  37
ENDBRANCH  32  33
ENDBRANCH  31  32
ENDBRANCH  27  31
ENDBRANCH  26  27
ENDBRANCH   1  26
TORSDOF 21
ENDMDL
MODEL 7
REMARK VINA RESULT:      -6.4      4.361      8.404
REMARK  Name = 
REMARK  22 active torsions:
REMARK  status: ('A' for Active; 'I' for Inactive)
REMARK    1  A    between atoms: C_1  and  C_2
REMARK    2  A    between atoms: C_2  and  C_3
REMARK    3  A    between atoms: C_2  and  O_5
REMARK    4  A    between atoms: C_2  and  C_10
REMARK    5  A    between atoms: C_3  and  O_4
REMARK    6  A    between atoms: O_5  and  P_6
REMARK    7  A    between atoms: P_6  and  O_7
REMARK    8  A    between atoms: P_6  and  O_8
REMARK    9  A    between atoms: C_10  and  O_12
REMARK   10  A    between atoms: C_10  and  C_13
REMARK   11  A    between atoms: C_13  and  O_14
REMARK   12  A    between atoms: O_14  and  P_15
REMARK   13  A    between atoms: P_15  and  O_16
REMARK   14  A    between atoms: P_15  and  O_18
REMARK   15  A    between atoms: O_18  and  P_19
REMARK   16  A    between atoms: P_19  and  O_20
REMARK   17  A    between atoms: P_19  and  O_22
REMARK   18  A    between atoms: O_22  and  C_23
REMARK   19  A    between atoms: C_23  and  C_24
REMARK   20  A    between atoms: C_27  and  N_35
REMARK   21  A    between atoms: C_29  and  O_31
REMARK   22  A    between atoms: C_32  and  O_34
REMARK                            x       y       z     vdW  Elec       q    Type
REMARK                         _______ _______ _______ _____ _____    ______ ____
ROOT
ATOM      1  P   UNL     1       3.841  -2.212  27.135  0.00  0.00    +0.483 P 
ATOM      2  O   UNL     1       4.153  -1.527  25.806  0.00  0.00    -0.227 OA
ENDROOT
BRANCH   1   3
ATOM      3  O   UNL     1       5.239  -2.843  27.692  0.00  0.00    -0.302 OA
ATOM      4  H   UNL     1       5.918  -2.936  27.011  0.00  0.00    +0.222 HD
ENDBRANCH   1   3
BRANCH   1   5
ATOM      5  O   UNL     1       4.175  -0.746  27.991  0.00  0.00    -0.284 OA
BRANCH   5   6
ATOM      6  C   UNL     1       4.247   0.501  27.268  0.00  0.00    +0.206 C 
BRANCH   6   7
ATOM      7  C   UNL     1       5.592   1.251  27.495  0.00  0.00    +0.178 C 
ATOM      8  C   UNL     1       6.736   0.359  27.990  0.00  0.00    +0.178 C 
ATOM      9  C   UNL     1       7.458  -0.107  26.721  0.00  0.00    +0.195 C 
ATOM     10  C   UNL     1       6.837   0.756  25.612  0.00  0.00    +0.255 C 
ATOM     11  O   UNL     1       6.142   1.839  26.270  0.00  0.00    -0.346 OA
BRANCH  10  12
ATOM     12  N   UNL     1       7.802   1.183  24.609  0.00  0.00    -0.270 N 
ATOM     13  C   UNL     1       7.614   0.644  23.322  0.00  0.00    +0.352 A 
ATOM     14  O   UNL     1       6.777  -0.240  23.136  0.00  0.00    -0.244 OA
ATOM     15  N   UNL     1       8.386   1.107  22.291  0.00  0.00    -0.178 NA
ATOM     16  C   UNL     1       9.453   1.792  22.556  0.00  0.00    +0.123 A 
ATOM     17  N   UNL     1      10.158   2.263  21.484  0.00  0.00    -0.343 N 
ATOM     18  H   UNL     1       9.794   1.908  20.604  0.00  0.00    +0.144 HD
ATOM     19  H   UNL     1      11.169   2.216  21.532  0.00  0.00    +0.144 HD
ATOM     20  C   UNL     1       9.902   2.056  23.942  0.00  0.00    +0.061 A 
ATOM     21  C   UNL     1       9.006   1.796  24.902  0.00  0.00    +0.096 A 
ENDBRANCH  10  12
BRANCH   8  22
ATOM     22  O   UNL     1       7.639   1.174  28.766  0.00  0.00    -0.386 OA
ATOM     23  H   UNL     1       7.325   2.097  28.716  0.00  0.00    +0.210 HD
ENDBRANCH   8  22
BRANCH   9  24
ATOM     24  O   UNL     1       7.262  -1.496  26.472  0.00  0.00    -0.385 OA
ATOM     25  H   UNL     1       6.598  -1.579  25.753  0.00  0.00    +0.210 HD
ENDBRANCH   9  24
ENDBRANCH   6   7
ENDBRANCH   5   6
ENDBRANCH   1   5
BRANCH   1  26
ATOM     26  O   UNL     1       3.507  -3.677  26.279  0.00  0.00    -0.186 OA
BRANCH  26  27
ATOM     27  P   UNL     1       3.611  -5.192  26.735  0.00  0.00    +0.483 P 
ATOM     28  O   UNL     1       2.467  -6.105  26.438  0.00  0.00    -0.227 OA
BRANCH  27  29
ATOM     29  O   UNL     1       3.951  -5.157  28.303  0.00  0.00    -0.302 OA
ATOM     30  H   UNL     1       3.915  -4.222  28.593  0.00  0.00    +0.222 HD
ENDBRANCH  27  29
BRANCH  27  31
ATOM     31  O   UNL     1       5.003  -5.758  26.074  0.00  0.00    -0.284 OA
BRANCH  31  32
ATOM     32  C   UNL     1       5.227  -5.238  24.765  0.00  0.00    +0.206 C 
BRANCH  32  33
ATOM     33  C   UNL     1       6.343  -4.168  24.527  0.00  0.00    +0.175 C 
BRANCH  33  34
ATOM     34  O   UNL     1       5.808  -2.911  24.080  0.00  0.00    -0.387 OA
ATOM     35  H   UNL     1       6.420  -2.215  24.412  0.00  0.00    +0.210 HD
ENDBRANCH  33  34
BRANCH  33  37
ATOM     36  C   UNL     1       6.771  -5.824  22.582  0.00  0.00    +0.047 C 
ATOM     37  C   UNL     1       7.374  -4.712  23.456  0.00  0.00    +0.129 C 
BRANCH  37  38
ATOM     38  O   UNL     1       8.601  -5.201  24.012  0.00  0.00    -0.275 OA
BRANCH  38  39
ATOM     39  P   UNL     1       9.070  -4.961  25.511  0.00  0.00    +0.473 P 
ATOM     40  O   UNL     1       8.960  -3.579  26.052  0.00  0.00    -0.228 OA
BRANCH  39  41
ATOM     41  O   UNL     1       8.170  -6.009  26.317  0.00  0.00    -0.303 OA
ATOM     42  H   UNL     1       7.362  -5.591  26.664  0.00  0.00    +0.222 HD
ENDBRANCH  39  41
BRANCH  39  43
ATOM     43  O   UNL     1      10.516  -5.613  25.605  0.00  0.00    -0.303 OA
ATOM     44  H   UNL     1      10.748  -6.080  24.779  0.00  0.00    +0.222 HD
ENDBRANCH  39  43
ENDBRANCH  38  39
ENDBRANCH  37  38
BRANCH  37  45
ATOM     45  C   UNL     1       7.877  -3.565  22.537  0.00  0.00    +0.193 C 
BRANCH  45  46
ATOM     46  O   UNL     1       8.589  -2.585  23.304  0.00  0.00    -0.392 OA
ATOM     47  H   UNL     1       9.094  -2.045  22.665  0.00  0.00    +0.210 HD
ENDBRANCH  45  46
ENDBRANCH  37  45
ENDBRANCH  33  37
ENDBRANCH  32  33
ENDBRANCH  31  32
ENDBRANCH  27  31
ENDBRANCH  26  27
ENDBRANCH   1  26
TORSDOF 21
ENDMDL
MODEL 8
REMARK VINA RESULT:      -6.4      2.237      3.748
REMARK  Name = 
REMARK  22 active torsions:
REMARK  status: ('A' for Active; 'I' for Inactive)
REMARK    1  A    between atoms: C_1  and  C_2
REMARK    2  A    between atoms: C_2  and  C_3
REMARK    3  A    between atoms: C_2  and  O_5
REMARK    4  A    between atoms: C_2  and  C_10
REMARK    5  A    between atoms: C_3  and  O_4
REMARK    6  A    between atoms: O_5  and  P_6
REMARK    7  A    between atoms: P_6  and  O_7
REMARK    8  A    between atoms: P_6  and  O_8
REMARK    9  A    between atoms: C_10  and  O_12
REMARK   10  A    between atoms: C_10  and  C_13
REMARK   11  A    between atoms: C_13  and  O_14
REMARK   12  A    between atoms: O_14  and  P_15
REMARK   13  A    between atoms: P_15  and  O_16
REMARK   14  A    between atoms: P_15  and  O_18
REMARK   15  A    between atoms: O_18  and  P_19
REMARK   16  A    between atoms: P_19  and  O_20
REMARK   17  A    between atoms: P_19  and  O_22
REMARK   18  A    between atoms: O_22  and  C_23
REMARK   19  A    between atoms: C_23  and  C_24
REMARK   20  A    between atoms: C_27  and  N_35
REMARK   21  A    between atoms: C_29  and  O_31
REMARK   22  A    between atoms: C_32  and  O_34
REMARK                            x       y       z     vdW  Elec       q    Type
REMARK                         _______ _______ _______ _____ _____    ______ ____
ROOT
ATOM      1  P   UNL     1       9.205  -1.233  22.647  0.00  0.00    +0.483 P 
ATOM      2  O   UNL     1       7.984  -0.609  23.317  0.00  0.00    -0.227 OA
ENDROOT
BRANCH   1   3
ATOM      3  O   UNL     1      10.046  -2.014  23.809  0.00  0.00    -0.302 OA
ATOM      4  H   UNL     1       9.584  -2.056  24.656  0.00  0.00    +0.222 HD
ENDBRANCH   1   3
BRANCH   1   5
ATOM      5  O   UNL     1       8.316  -2.684  22.331  0.00  0.00    -0.284 OA
BRANCH   5   6
ATOM      6  C   UNL     1       6.876  -2.670  22.423  0.00  0.00    +0.206 C 
BRANCH   6   7
ATOM      7  C   UNL     1       6.272  -4.093  22.602  0.00  0.00    +0.178 C 
ATOM      8  C   UNL     1       7.302  -5.227  22.559  0.00  0.00    +0.178 C 
ATOM      9  C   UNL     1       7.711  -5.451  24.019  0.00  0.00    +0.195 C 
ATOM     10  C   UNL     1       6.699  -4.612  24.813  0.00  0.00    +0.255 C 
ATOM     11  O   UNL     1       5.624  -4.288  23.903  0.00  0.00    -0.346 OA
BRANCH  10  12
ATOM     12  N   UNL     1       6.269  -5.251  26.048  0.00  0.00    -0.270 N 
ATOM     13  C   UNL     1       7.103  -5.037  27.161  0.00  0.00    +0.352 A 
ATOM     14  O   UNL     1       8.190  -4.474  27.023  0.00  0.00    -0.244 OA
ATOM     15  N   UNL     1       6.694  -5.478  28.391  0.00  0.00    -0.178 NA
ATOM     16  C   UNL     1       5.720  -6.328  28.467  0.00  0.00    +0.123 A 
ATOM     17  N   UNL     1       5.329  -6.698  29.724  0.00  0.00    -0.343 N 
ATOM     18  H   UNL     1       5.947  -6.325  30.439  0.00  0.00    +0.144 HD
ATOM     19  H   UNL     1       5.106  -7.675  29.875  0.00  0.00    +0.144 HD
ATOM     20  C   UNL     1       5.056  -6.883  27.266  0.00  0.00    +0.061 A 
ATOM     21  C   UNL     1       5.321  -6.255  26.114  0.00  0.00    +0.096 A 
ENDBRANCH  10  12
BRANCH   8  22
ATOM     22  O   UNL     1       6.644  -6.415  22.072  0.00  0.00    -0.386 OA
ATOM     23  H   UNL     1       5.810  -6.142  21.647  0.00  0.00    +0.210 HD
ENDBRANCH   8  22
BRANCH   9  24
ATOM     24  O   UNL     1       9.050  -5.030  24.271  0.00  0.00    -0.385 OA
ATOM     25  H   UNL     1       9.121  -4.827  25.229  0.00  0.00    +0.210 HD
ENDBRANCH   9  24
ENDBRANCH   6   7
ENDBRANCH   5   6
ENDBRANCH   1   5
BRANCH   1  26
ATOM     26  O   UNL     1      10.094   0.216  22.962  0.00  0.00    -0.186 OA
BRANCH  26  27
ATOM     27  P   UNL     1      10.625   0.833  24.323  0.00  0.00    +0.483 P 
ATOM     28  O   UNL     1      11.960   0.394  24.830  0.00  0.00    -0.227 OA
BRANCH  27  29
ATOM     29  O   UNL     1       9.466   0.577  25.404  0.00  0.00    -0.302 OA
ATOM     30  H   UNL     1       9.844   0.022  26.118  0.00  0.00    +0.222 HD
ENDBRANCH  27  29
BRANCH  27  31
ATOM     31  O   UNL     1      10.579   2.461  24.120  0.00  0.00    -0.284 OA
BRANCH  31  32
ATOM     32  C   UNL     1       9.598   2.856  23.162  0.00  0.00    +0.206 C 
BRANCH  32  33
ATOM     33  C   UNL     1       8.274   3.542  23.634  0.00  0.00    +0.175 C 
BRANCH  33  34
ATOM     34  O   UNL     1       7.866   3.101  24.941  0.00  0.00    -0.387 OA
ATOM     35  H   UNL     1       8.361   3.654  25.586  0.00  0.00    +0.210 HD
ENDBRANCH  33  34
BRANCH  33  37
ATOM     36  C   UNL     1       7.560   2.217  21.526  0.00  0.00    +0.047 C 
ATOM     37  C   UNL     1       7.122   3.235  22.592  0.00  0.00    +0.129 C 
BRANCH  37  38
ATOM     38  O   UNL     1       6.613   4.392  21.917  0.00  0.00    -0.275 OA
BRANCH  38  39
ATOM     39  P   UNL     1       6.468   5.830  22.578  0.00  0.00    +0.473 P 
ATOM     40  O   UNL     1       6.593   5.922  24.058  0.00  0.00    -0.228 OA
BRANCH  39  41
ATOM     41  O   UNL     1       7.598   6.666  21.813  0.00  0.00    -0.303 OA
ATOM     42  H   UNL     1       8.366   6.833  22.388  0.00  0.00    +0.222 HD
ENDBRANCH  39  41
BRANCH  39  43
ATOM     43  O   UNL     1       5.130   6.435  21.971  0.00  0.00    -0.303 OA
ATOM     44  H   UNL     1       5.300   7.281  21.512  0.00  0.00    +0.222 HD
ENDBRANCH  39  43
ENDBRANCH  38  39
ENDBRANCH  37  38
BRANCH  37  45
ATOM     45  C   UNL     1       5.852   2.701  23.309  0.00  0.00    +0.193 C 
BRANCH  45  46
ATOM     46  O   UNL     1       5.913   1.274  23.435  0.00  0.00    -0.392 OA
ATOM     47  H   UNL     1       5.427   1.046  24.252  0.00  0.00    +0.210 HD
ENDBRANCH  45  46
ENDBRANCH  37  45
ENDBRANCH  33  37
ENDBRANCH  32  33
ENDBRANCH  31  32
ENDBRANCH  27  31
ENDBRANCH  26  27
ENDBRANCH   1  26
TORSDOF 21
ENDMDL
MODEL 9
REMARK VINA RESULT:      -6.3      4.260      9.649
REMARK  Name = 
REMARK  22 active torsions:
REMARK  status: ('A' for Active; 'I' for Inactive)
REMARK    1  A    between atoms: C_1  and  C_2
REMARK    2  A    between atoms: C_2  and  C_3
REMARK    3  A    between atoms: C_2  and  O_5
REMARK    4  A    between atoms: C_2  and  C_10
REMARK    5  A    between atoms: C_3  and  O_4
REMARK    6  A    between atoms: O_5  and  P_6
REMARK    7  A    between atoms: P_6  and  O_7
REMARK    8  A    between atoms: P_6  and  O_8
REMARK    9  A    between atoms: C_10  and  O_12
REMARK   10  A    between atoms: C_10  and  C_13
REMARK   11  A    between atoms: C_13  and  O_14
REMARK   12  A    between atoms: O_14  and  P_15
REMARK   13  A    between atoms: P_15  and  O_16
REMARK   14  A    between atoms: P_15  and  O_18
REMARK   15  A    between atoms: O_18  and  P_19
REMARK   16  A    between atoms: P_19  and  O_20
REMARK   17  A    between atoms: P_19  and  O_22
REMARK   18  A    between atoms: O_22  and  C_23
REMARK   19  A    between atoms: C_23  and  C_24
REMARK   20  A    between atoms: C_27  and  N_35
REMARK   21  A    between atoms: C_29  and  O_31
REMARK   22  A    between atoms: C_32  and  O_34
REMARK                            x       y       z     vdW  Elec       q    Type
REMARK                         _______ _______ _______ _____ _____    ______ ____
ROOT
ATOM      1  P   UNL     1       6.856   1.028  23.789  0.00  0.00    +0.483 P 
ATOM      2  O   UNL     1       5.791   0.339  24.639  0.00  0.00    -0.227 OA
ENDROOT
BRANCH   1   3
ATOM      3  O   UNL     1       6.669   0.493  22.258  0.00  0.00    -0.302 OA
ATOM      4  H   UNL     1       5.756   0.527  21.946  0.00  0.00    +0.222 HD
ENDBRANCH   1   3
BRANCH   1   5
ATOM      5  O   UNL     1       5.772   2.334  23.453  0.00  0.00    -0.284 OA
BRANCH   5   6
ATOM      6  C   UNL     1       5.590   3.379  24.431  0.00  0.00    +0.206 C 
BRANCH   6   7
ATOM      7  C   UNL     1       6.177   4.744  23.968  0.00  0.00    +0.178 C 
ATOM      8  C   UNL     1       6.403   5.751  25.101  0.00  0.00    +0.178 C 
ATOM      9  C   UNL     1       7.850   5.527  25.553  0.00  0.00    +0.195 C 
ATOM     10  C   UNL     1       8.426   4.593  24.479  0.00  0.00    +0.255 C 
ATOM     11  O   UNL     1       7.508   4.628  23.364  0.00  0.00    -0.346 OA
BRANCH  10  12
ATOM     12  N   UNL     1       9.806   4.901  24.132  0.00  0.00    -0.270 N 
ATOM     13  C   UNL     1      10.588   3.800  23.736  0.00  0.00    +0.352 A 
ATOM     14  O   UNL     1      10.146   2.655  23.838  0.00  0.00    -0.244 OA
ATOM     15  N   UNL     1      11.850   4.023  23.253  0.00  0.00    -0.178 NA
ATOM     16  C   UNL     1      12.406   5.177  23.444  0.00  0.00    +0.123 A 
ATOM     17  N   UNL     1      13.649   5.353  22.901  0.00  0.00    -0.343 N 
ATOM     18  H   UNL     1      14.016   4.493  22.504  0.00  0.00    +0.144 HD
ATOM     19  H   UNL     1      14.336   5.847  23.458  0.00  0.00    +0.144 HD
ATOM     20  C   UNL     1      11.747   6.258  24.212  0.00  0.00    +0.061 A 
ATOM     21  C   UNL     1      10.442   6.084  24.455  0.00  0.00    +0.096 A 
ENDBRANCH  10  12
BRANCH   8  22
ATOM     22  O   UNL     1       6.288   7.081  24.552  0.00  0.00    -0.386 OA
ATOM     23  H   UNL     1       5.400   7.419  24.773  0.00  0.00    +0.210 HD
ENDBRANCH   8  22
BRANCH   9  24
ATOM     24  O   UNL     1       7.921   4.939  26.850  0.00  0.00    -0.385 OA
ATOM     25  H   UNL     1       8.871   4.852  27.084  0.00  0.00    +0.210 HD
ENDBRANCH   9  24
ENDBRANCH   6   7
ENDBRANCH   5   6
ENDBRANCH   1   5
BRANCH   1  26
ATOM     26  O   UNL     1       7.939  -0.278  24.124  0.00  0.00    -0.186 OA
BRANCH  26  27
ATOM     27  P   UNL     1       9.099  -0.915  23.251  0.00  0.00    +0.483 P 
ATOM     28  O   UNL     1      10.137  -1.739  23.939  0.00  0.00    -0.227 OA
BRANCH  27  29
ATOM     29  O   UNL     1       9.752   0.301  22.433  0.00  0.00    -0.302 OA
ATOM     30  H   UNL     1       9.343   1.130  22.756  0.00  0.00    +0.222 HD
ENDBRANCH  27  29
BRANCH  27  31
ATOM     31  O   UNL     1       8.345  -1.779  22.076  0.00  0.00    -0.284 OA
BRANCH  31  32
ATOM     32  C   UNL     1       7.978  -3.084  22.520  0.00  0.00    +0.206 C 
BRANCH  32  33
ATOM     33  C   UNL     1       6.504  -3.380  22.948  0.00  0.00    +0.175 C 
BRANCH  33  34
ATOM     34  O   UNL     1       5.704  -2.187  23.015  0.00  0.00    -0.387 OA
ATOM     35  H   UNL     1       6.321  -1.452  23.234  0.00  0.00    +0.210 HD
ENDBRANCH  33  34
BRANCH  33  37
ATOM     36  C   UNL     1       7.923  -4.394  24.864  0.00  0.00    +0.047 C 
ATOM     37  C   UNL     1       6.500  -4.096  24.361  0.00  0.00    +0.129 C 
BRANCH  37  38
ATOM     38  O   UNL     1       5.750  -5.315  24.403  0.00  0.00    -0.275 OA
BRANCH  38  39
ATOM     39  P   UNL     1       5.079  -6.005  23.138  0.00  0.00    +0.473 P 
ATOM     40  O   UNL     1       5.938  -6.237  21.946  0.00  0.00    -0.228 OA
BRANCH  39  41
ATOM     41  O   UNL     1       4.511  -7.366  23.759  0.00  0.00    -0.303 OA
ATOM     42  H   UNL     1       3.650  -7.602  23.369  0.00  0.00    +0.222 HD
ENDBRANCH  39  41
BRANCH  39  43
ATOM     43  O   UNL     1       3.750  -5.176  22.867  0.00  0.00    -0.303 OA
ATOM     44  H   UNL     1       3.675  -4.926  21.926  0.00  0.00    +0.222 HD
ENDBRANCH  39  43
ENDBRANCH  38  39
ENDBRANCH  37  38
BRANCH  37  45
ATOM     45  C   UNL     1       5.762  -3.232  25.420  0.00  0.00    +0.193 C 
BRANCH  45  46
ATOM     46  O   UNL     1       6.605  -2.162  25.867  0.00  0.00    -0.392 OA
ATOM     47  H   UNL     1       7.302  -2.057  25.190  0.00  0.00    +0.210 HD
ENDBRANCH  45  46
ENDBRANCH  37  45
ENDBRANCH  33  37
ENDBRANCH  32  33
ENDBRANCH  31  32
ENDBRANCH  27  31
ENDBRANCH  26  27
ENDBRANCH   1  26
TORSDOF 21
ENDMDL
