MODEL 1
REMARK VINA RESULT:      -7.1      0.000      0.000
REMARK  Name = 
REMARK  7 active torsions:
REMARK  status: ('A' for Active; 'I' for Inactive)
REMARK    1  A    between atoms: C_1  and  N_2
REMARK    2  A    between atoms: C_6  and  C_8
REMARK    3  A    between atoms: C_8  and  C_9
REMARK    4  A    between atoms: C_15  and  C_16
REMARK    5  A    between atoms: C_16  and  C_17
REMARK    6  A    between atoms: C_17  and  S_18
REMARK    7  A    between atoms: S_18  and  C_21
REMARK                            x       y       z     vdW  Elec       q    Type
REMARK                         _______ _______ _______ _____ _____    ______ ____
ROOT
ATOM      1  C   UNL     1       9.711  -0.281  24.146  0.00  0.00    -0.021 A 
ATOM      2  C   UNL     1       8.509  -1.012  24.400  0.00  0.00    +0.003 A 
ATOM      3  C   UNL     1       7.642  -1.757  23.580  0.00  0.00    +0.014 A 
ATOM      4  C   UNL     1       6.408  -2.216  24.063  0.00  0.00    -0.045 A 
ATOM      5  C   UNL     1       6.083  -1.977  25.405  0.00  0.00    +0.006 A 
ATOM      6  C   UNL     1       6.965  -1.312  26.272  0.00  0.00    +0.026 A 
ATOM      7  C   UNL     1       8.164  -0.830  25.735  0.00  0.00    +0.047 A 
ATOM      8  N   UNL     1       9.187  -0.113  26.312  0.00  0.00    -0.360 N 
ATOM      9  H   UNL     1       9.219   0.159  27.285  0.00  0.00    +0.165 HD
ATOM     10  C   UNL     1      10.114   0.236  25.364  0.00  0.00    +0.087 A 
ENDROOT
BRANCH   1  11
ATOM     11  C   UNL     1      10.369  -0.063  22.809  0.00  0.00    +0.056 C 
BRANCH  11  14
ATOM     12  C   UNL     1      10.745   3.281  23.292  0.00  0.00    +0.105 C 
ATOM     13  N   UNL     1       9.671   2.303  23.142  0.00  0.00    -0.302 NA
ATOM     14  C   UNL     1       9.973   1.270  22.121  0.00  0.00    +0.061 C 
ATOM     15  C   UNL     1       8.705   1.150  21.266  0.00  0.00    +0.020 C 
ATOM     16  C   UNL     1       7.636   1.880  22.050  0.00  0.00    +0.017 C 
ATOM     17  C   UNL     1       8.416   2.962  22.762  0.00  0.00    +0.084 C 
ENDBRANCH  11  14
ENDBRANCH   1  11
BRANCH   4  18
ATOM     18  C   UNL     1       5.386  -2.833  23.127  0.00  0.00    +0.058 C 
BRANCH  18  19
ATOM     19  C   UNL     1       4.713  -4.085  23.680  0.00  0.00    +0.176 C 
BRANCH  19  20
ATOM     20  S   UNL     1       5.684  -5.546  23.410  0.00  0.00    -0.003 S 
ATOM     21  O   UNL     1       6.291  -5.463  22.096  0.00  0.00    -0.169 OA
ATOM     22  O   UNL     1       4.900  -6.701  23.803  0.00  0.00    -0.169 OA
BRANCH  20  23
ATOM     23  C   UNL     1       6.981  -5.337  24.612  0.00  0.00    +0.088 A 
ATOM     24  C   UNL     1       8.290  -5.098  24.184  0.00  0.00    +0.027 A 
ATOM     25  C   UNL     1       9.289  -4.882  25.135  0.00  0.00    +0.002 A 
ATOM     26  C   UNL     1       8.979  -4.915  26.495  0.00  0.00    +0.000 A 
ATOM     27  C   UNL     1       7.672  -5.171  26.914  0.00  0.00    +0.002 A 
ATOM     28  C   UNL     1       6.667  -5.388  25.973  0.00  0.00    +0.027 A 
ENDBRANCH  20  23
ENDBRANCH  19  20
ENDBRANCH  18  19
ENDBRANCH   4  18
TORSDOF 6
ENDMDL
MODEL 2
REMARK VINA RESULT:      -7.0      3.855      6.637
REMARK  Name = 
REMARK  7 active torsions:
REMARK  status: ('A' for Active; 'I' for Inactive)
REMARK    1  A    between atoms: C_1  and  N_2
REMARK    2  A    between atoms: C_6  and  C_8
REMARK    3  A    between atoms: C_8  and  C_9
REMARK    4  A    between atoms: C_15  and  C_16
REMARK    5  A    between atoms: C_16  and  C_17
REMARK    6  A    between atoms: C_17  and  S_18
REMARK    7  A    between atoms: S_18  and  C_21
REMARK                            x       y       z     vdW  Elec       q    Type
REMARK                         _______ _______ _______ _____ _____    ______ ____
ROOT
ATOM      1  C   UNL     1       7.733  -2.967  23.675  0.00  0.00    -0.021 A 
ATOM      2  C   UNL     1       7.606  -1.829  24.529  0.00  0.00    +0.003 A 
ATOM      3  C   UNL     1       7.036  -0.554  24.357  0.00  0.00    +0.014 A 
ATOM      4  C   UNL     1       7.226   0.457  25.311  0.00  0.00    -0.045 A 
ATOM      5  C   UNL     1       7.942   0.151  26.477  0.00  0.00    +0.006 A 
ATOM      6  C   UNL     1       8.448  -1.137  26.717  0.00  0.00    +0.026 A 
ATOM      7  C   UNL     1       8.276  -2.100  25.717  0.00  0.00    +0.047 A 
ATOM      8  N   UNL     1       8.695  -3.408  25.644  0.00  0.00    -0.360 N 
ATOM      9  H   UNL     1       9.201  -3.891  26.373  0.00  0.00    +0.165 HD
ATOM     10  C   UNL     1       8.388  -3.935  24.415  0.00  0.00    +0.087 A 
ENDROOT
BRANCH   1  11
ATOM     11  C   UNL     1       7.301  -3.070  22.236  0.00  0.00    +0.056 C 
BRANCH  11  14
ATOM     12  C   UNL     1       4.332  -3.823  23.711  0.00  0.00    +0.105 C 
ATOM     13  N   UNL     1       5.565  -4.496  23.307  0.00  0.00    -0.302 NA
ATOM     14  C   UNL     1       6.086  -4.007  22.007  0.00  0.00    +0.061 C 
ATOM     15  C   UNL     1       6.443  -5.266  21.206  0.00  0.00    +0.020 C 
ATOM     16  C   UNL     1       6.417  -6.392  22.217  0.00  0.00    +0.017 C 
ATOM     17  C   UNL     1       5.356  -5.943  23.197  0.00  0.00    +0.084 C 
ENDBRANCH  11  14
ENDBRANCH   1  11
BRANCH   4  18
ATOM     18  C   UNL     1       6.794   1.883  25.033  0.00  0.00    +0.058 C 
BRANCH  18  19
ATOM     19  C   UNL     1       7.909   2.912  25.180  0.00  0.00    +0.176 C 
BRANCH  19  20
ATOM     20  S   UNL     1       8.619   3.364  23.617  0.00  0.00    -0.003 S 
ATOM     21  O   UNL     1       9.711   4.287  23.854  0.00  0.00    -0.169 OA
ATOM     22  O   UNL     1       7.545   3.691  22.699  0.00  0.00    -0.169 OA
BRANCH  20  23
ATOM     23  C   UNL     1       9.330   1.819  23.090  0.00  0.00    +0.088 A 
ATOM     24  C   UNL     1      10.257   1.167  23.908  0.00  0.00    +0.027 A 
ATOM     25  C   UNL     1      10.767  -0.070  23.511  0.00  0.00    +0.002 A 
ATOM     26  C   UNL     1      10.358  -0.640  22.304  0.00  0.00    +0.000 A 
ATOM     27  C   UNL     1       9.443   0.025  21.485  0.00  0.00    +0.002 A 
ATOM     28  C   UNL     1       8.928   1.261  21.874  0.00  0.00    +0.027 A 
ENDBRANCH  20  23
ENDBRANCH  19  20
ENDBRANCH  18  19
ENDBRANCH   4  18
TORSDOF 6
ENDMDL
MODEL 3
REMARK VINA RESULT:      -6.9      2.160      3.785
REMARK  Name = 
REMARK  7 active torsions:
REMARK  status: ('A' for Active; 'I' for Inactive)
REMARK    1  A    between atoms: C_1  and  N_2
REMARK    2  A    between atoms: C_6  and  C_8
REMARK    3  A    between atoms: C_8  and  C_9
REMARK    4  A    between atoms: C_15  and  C_16
REMARK    5  A    between atoms: C_16  and  C_17
REMARK    6  A    between atoms: C_17  and  S_18
REMARK    7  A    between atoms: S_18  and  C_21
REMARK                            x       y       z     vdW  Elec       q    Type
REMARK                         _______ _______ _______ _____ _____    ______ ____
ROOT
ATOM      1  C   UNL     1       7.637   1.020  22.416  0.00  0.00    -0.021 A 
ATOM      2  C   UNL     1       8.165  -0.107  23.118  0.00  0.00    +0.003 A 
ATOM      3  C   UNL     1       7.811  -0.745  24.321  0.00  0.00    +0.014 A 
ATOM      4  C   UNL     1       8.636  -1.730  24.886  0.00  0.00    -0.045 A 
ATOM      5  C   UNL     1       9.790  -2.116  24.192  0.00  0.00    +0.006 A 
ATOM      6  C   UNL     1      10.124  -1.559  22.947  0.00  0.00    +0.026 A 
ATOM      7  C   UNL     1       9.299  -0.547  22.444  0.00  0.00    +0.047 A 
ATOM      8  N   UNL     1       9.393   0.207  21.297  0.00  0.00    -0.360 N 
ATOM      9  H   UNL     1      10.116   0.102  20.599  0.00  0.00    +0.165 HD
ATOM     10  C   UNL     1       8.409   1.162  21.277  0.00  0.00    +0.087 A 
ENDROOT
BRANCH   1  11
ATOM     11  C   UNL     1       6.509   1.914  22.860  0.00  0.00    +0.056 C 
BRANCH  11  14
ATOM     12  C   UNL     1       7.153   5.202  22.290  0.00  0.00    +0.105 C 
ATOM     13  N   UNL     1       7.840   4.016  22.795  0.00  0.00    -0.302 NA
ATOM     14  C   UNL     1       6.970   3.168  23.647  0.00  0.00    +0.061 C 
ATOM     15  C   UNL     1       7.811   2.825  24.883  0.00  0.00    +0.020 C 
ATOM     16  C   UNL     1       9.225   3.219  24.515  0.00  0.00    +0.017 C 
ATOM     17  C   UNL     1       9.019   4.392  23.583  0.00  0.00    +0.084 C 
ENDBRANCH  11  14
ENDBRANCH   1  11
BRANCH   4  18
ATOM     18  C   UNL     1       8.366  -2.266  26.279  0.00  0.00    +0.058 C 
BRANCH  18  19
ATOM     19  C   UNL     1       8.522  -3.778  26.404  0.00  0.00    +0.176 C 
BRANCH  19  20
ATOM     20  S   UNL     1       6.973  -4.629  26.242  0.00  0.00    -0.003 S 
ATOM     21  O   UNL     1       5.964  -3.903  26.988  0.00  0.00    -0.169 OA
ATOM     22  O   UNL     1       7.198  -6.045  26.467  0.00  0.00    -0.169 OA
BRANCH  20  23
ATOM     23  C   UNL     1       6.623  -4.406  24.511  0.00  0.00    +0.088 A 
ATOM     24  C   UNL     1       5.521  -3.639  24.120  0.00  0.00    +0.027 A 
ATOM     25  C   UNL     1       5.287  -3.425  22.761  0.00  0.00    +0.002 A 
ATOM     26  C   UNL     1       6.143  -3.980  21.808  0.00  0.00    +0.000 A 
ATOM     27  C   UNL     1       7.232  -4.758  22.207  0.00  0.00    +0.002 A 
ATOM     28  C   UNL     1       7.474  -4.978  23.562  0.00  0.00    +0.027 A 
ENDBRANCH  20  23
ENDBRANCH  19  20
ENDBRANCH  18  19
ENDBRANCH   4  18
TORSDOF 6
ENDMDL
MODEL 4
REMARK VINA RESULT:      -6.9      2.075      3.746
REMARK  Name = 
REMARK  7 active torsions:
REMARK  status: ('A' for Active; 'I' for Inactive)
REMARK    1  A    between atoms: C_1  and  N_2
REMARK    2  A    between atoms: C_6  and  C_8
REMARK    3  A    between atoms: C_8  and  C_9
REMARK    4  A    between atoms: C_15  and  C_16
REMARK    5  A    between atoms: C_16  and  C_17
REMARK    6  A    between atoms: C_17  and  S_18
REMARK    7  A    between atoms: S_18  and  C_21
REMARK                            x       y       z     vdW  Elec       q    Type
REMARK                         _______ _______ _______ _____ _____    ______ ____
ROOT
ATOM      1  C   UNL     1       9.366   1.737  23.589  0.00  0.00    -0.021 A 
ATOM      2  C   UNL     1       9.226   0.346  23.887  0.00  0.00    +0.003 A 
ATOM      3  C   UNL     1       8.761  -0.356  25.014  0.00  0.00    +0.014 A 
ATOM      4  C   UNL     1       8.917  -1.747  25.114  0.00  0.00    -0.045 A 
ATOM      5  C   UNL     1       9.486  -2.435  24.034  0.00  0.00    +0.006 A 
ATOM      6  C   UNL     1       9.880  -1.773  22.860  0.00  0.00    +0.026 A 
ATOM      7  C   UNL     1       9.750  -0.381  22.824  0.00  0.00    +0.047 A 
ATOM      8  N   UNL     1      10.088   0.532  21.851  0.00  0.00    -0.360 N 
ATOM      9  H   UNL     1      10.483   0.292  20.952  0.00  0.00    +0.165 HD
ATOM     10  C   UNL     1       9.876   1.808  22.306  0.00  0.00    +0.087 A 
ENDROOT
BRANCH   1  11
ATOM     11  C   UNL     1       9.079   2.892  24.513  0.00  0.00    +0.056 C 
BRANCH  11  14
ATOM     12  C   UNL     1       5.819   2.002  24.877  0.00  0.00    +0.105 C 
ATOM     13  N   UNL     1       6.719   2.486  23.833  0.00  0.00    -0.302 NA
ATOM     14  C   UNL     1       7.670   3.513  24.327  0.00  0.00    +0.061 C 
ATOM     15  C   UNL     1       7.643   4.637  23.284  0.00  0.00    +0.020 C 
ATOM     16  C   UNL     1       6.930   4.042  22.088  0.00  0.00    +0.017 C 
ATOM     17  C   UNL     1       5.961   3.068  22.720  0.00  0.00    +0.084 C 
ENDBRANCH  11  14
ENDBRANCH   1  11
BRANCH   4  18
ATOM     18  C   UNL     1       8.610  -2.475  26.408  0.00  0.00    +0.058 C 
BRANCH  18  19
ATOM     19  C   UNL     1       8.528  -3.990  26.265  0.00  0.00    +0.176 C 
BRANCH  19  20
ATOM     20  S   UNL     1       6.854  -4.563  26.126  0.00  0.00    -0.003 S 
ATOM     21  O   UNL     1       5.988  -3.641  26.833  0.00  0.00    -0.169 OA
ATOM     22  O   UNL     1       6.827  -5.986  26.411  0.00  0.00    -0.169 OA
BRANCH  20  23
ATOM     23  C   UNL     1       6.550  -4.355  24.385  0.00  0.00    +0.088 A 
ATOM     24  C   UNL     1       5.754  -3.294  23.942  0.00  0.00    +0.027 A 
ATOM     25  C   UNL     1       5.567  -3.107  22.572  0.00  0.00    +0.002 A 
ATOM     26  C   UNL     1       6.163  -3.979  21.659  0.00  0.00    +0.000 A 
ATOM     27  C   UNL     1       6.943  -5.046  22.110  0.00  0.00    +0.002 A 
ATOM     28  C   UNL     1       7.136  -5.241  23.477  0.00  0.00    +0.027 A 
ENDBRANCH  20  23
ENDBRANCH  19  20
ENDBRANCH  18  19
ENDBRANCH   4  18
TORSDOF 6
ENDMDL
MODEL 5
REMARK VINA RESULT:      -6.7      2.055      3.363
REMARK  Name = 
REMARK  7 active torsions:
REMARK  status: ('A' for Active; 'I' for Inactive)
REMARK    1  A    between atoms: C_1  and  N_2
REMARK    2  A    between atoms: C_6  and  C_8
REMARK    3  A    between atoms: C_8  and  C_9
REMARK    4  A    between atoms: C_15  and  C_16
REMARK    5  A    between atoms: C_16  and  C_17
REMARK    6  A    between atoms: C_17  and  S_18
REMARK    7  A    between atoms: S_18  and  C_21
REMARK                            x       y       z     vdW  Elec       q    Type
REMARK                         _______ _______ _______ _____ _____    ______ ____
ROOT
ATOM      1  C   UNL     1       9.324  -0.772  24.594  0.00  0.00    -0.021 A 
ATOM      2  C   UNL     1       8.558  -1.943  24.884  0.00  0.00    +0.003 A 
ATOM      3  C   UNL     1       7.387  -2.169  25.631  0.00  0.00    +0.014 A 
ATOM      4  C   UNL     1       6.953  -3.472  25.917  0.00  0.00    -0.045 A 
ATOM      5  C   UNL     1       7.673  -4.549  25.383  0.00  0.00    +0.006 A 
ATOM      6  C   UNL     1       8.794  -4.355  24.560  0.00  0.00    +0.026 A 
ATOM      7  C   UNL     1       9.219  -3.040  24.342  0.00  0.00    +0.047 A 
ATOM      8  N   UNL     1      10.291  -2.544  23.636  0.00  0.00    -0.360 N 
ATOM      9  H   UNL     1      10.950  -3.111  23.120  0.00  0.00    +0.165 HD
ATOM     10  C   UNL     1      10.373  -1.184  23.793  0.00  0.00    +0.087 A 
ENDROOT
BRANCH   1  11
ATOM     11  C   UNL     1       9.075   0.621  25.111  0.00  0.00    +0.056 C 
BRANCH  11  14
ATOM     12  C   UNL     1       6.567   1.080  22.863  0.00  0.00    +0.105 C 
ATOM     13  N   UNL     1       8.020   0.929  22.878  0.00  0.00    -0.302 NA
ATOM     14  C   UNL     1       8.659   1.637  24.015  0.00  0.00    +0.061 C 
ATOM     15  C   UNL     1       9.851   2.392  23.414  0.00  0.00    +0.020 C 
ATOM     16  C   UNL     1      10.023   1.810  22.028  0.00  0.00    +0.017 C 
ATOM     17  C   UNL     1       8.609   1.441  21.636  0.00  0.00    +0.084 C 
ENDBRANCH  11  14
ENDBRANCH   1  11
BRANCH   4  18
ATOM     18  C   UNL     1       5.818  -3.719  26.892  0.00  0.00    +0.058 C 
BRANCH  18  19
ATOM     19  C   UNL     1       4.732  -4.646  26.360  0.00  0.00    +0.176 C 
BRANCH  19  20
ATOM     20  S   UNL     1       3.754  -3.878  25.092  0.00  0.00    -0.003 S 
ATOM     21  O   UNL     1       3.809  -2.441  25.271  0.00  0.00    -0.169 OA
ATOM     22  O   UNL     1       2.485  -4.576  25.001  0.00  0.00    -0.169 OA
BRANCH  20  23
ATOM     23  C   UNL     1       4.693  -4.272  23.632  0.00  0.00    +0.088 A 
ATOM     24  C   UNL     1       5.247  -3.242  22.865  0.00  0.00    +0.027 A 
ATOM     25  C   UNL     1       6.026  -3.564  21.753  0.00  0.00    +0.002 A 
ATOM     26  C   UNL     1       6.240  -4.900  21.411  0.00  0.00    +0.000 A 
ATOM     27  C   UNL     1       5.670  -5.922  22.172  0.00  0.00    +0.002 A 
ATOM     28  C   UNL     1       4.890  -5.611  23.285  0.00  0.00    +0.027 A 
ENDBRANCH  20  23
ENDBRANCH  19  20
ENDBRANCH  18  19
ENDBRANCH   4  18
TORSDOF 6
ENDMDL
MODEL 6
REMARK VINA RESULT:      -6.7      1.744      2.731
REMARK  Name = 
REMARK  7 active torsions:
REMARK  status: ('A' for Active; 'I' for Inactive)
REMARK    1  A    between atoms: C_1  and  N_2
REMARK    2  A    between atoms: C_6  and  C_8
REMARK    3  A    between atoms: C_8  and  C_9
REMARK    4  A    between atoms: C_15  and  C_16
REMARK    5  A    between atoms: C_16  and  C_17
REMARK    6  A    between atoms: C_17  and  S_18
REMARK    7  A    between atoms: S_18  and  C_21
REMARK                            x       y       z     vdW  Elec       q    Type
REMARK                         _______ _______ _______ _____ _____    ______ ____
ROOT
ATOM      1  C   UNL     1       8.834   1.274  24.610  0.00  0.00    -0.021 A 
ATOM      2  C   UNL     1       8.491   0.174  23.765  0.00  0.00    +0.003 A 
ATOM      3  C   UNL     1       7.283  -0.499  23.501  0.00  0.00    +0.014 A 
ATOM      4  C   UNL     1       7.268  -1.691  22.762  0.00  0.00    -0.045 A 
ATOM      5  C   UNL     1       8.475  -2.165  22.231  0.00  0.00    +0.006 A 
ATOM      6  C   UNL     1       9.682  -1.469  22.402  0.00  0.00    +0.026 A 
ATOM      7  C   UNL     1       9.659  -0.310  23.186  0.00  0.00    +0.047 A 
ATOM      8  N   UNL     1      10.670   0.541  23.567  0.00  0.00    -0.360 N 
ATOM      9  H   UNL     1      11.636   0.447  23.285  0.00  0.00    +0.165 HD
ATOM     10  C   UNL     1      10.189   1.489  24.434  0.00  0.00    +0.087 A 
ENDROOT
BRANCH   1  11
ATOM     11  C   UNL     1       7.917   2.010  25.552  0.00  0.00    +0.056 C 
BRANCH  11  14
ATOM     12  C   UNL     1       6.209   3.224  22.876  0.00  0.00    +0.105 C 
ATOM     13  N   UNL     1       7.506   3.396  23.527  0.00  0.00    -0.302 NA
ATOM     14  C   UNL     1       7.413   3.372  25.007  0.00  0.00    +0.061 C 
ATOM     15  C   UNL     1       8.252   4.560  25.494  0.00  0.00    +0.020 C 
ATOM     16  C   UNL     1       9.046   4.999  24.282  0.00  0.00    +0.017 C 
ATOM     17  C   UNL     1       8.122   4.668  23.132  0.00  0.00    +0.084 C 
ENDBRANCH  11  14
ENDBRANCH   1  11
BRANCH   4  18
ATOM     18  C   UNL     1       6.006  -2.526  22.656  0.00  0.00    +0.058 C 
BRANCH  18  19
ATOM     19  C   UNL     1       6.087  -3.648  21.628  0.00  0.00    +0.176 C 
BRANCH  19  20
ATOM     20  S   UNL     1       5.651  -5.225  22.318  0.00  0.00    -0.003 S 
ATOM     21  O   UNL     1       6.162  -6.268  21.452  0.00  0.00    -0.169 OA
ATOM     22  O   UNL     1       4.252  -5.189  22.705  0.00  0.00    -0.169 OA
BRANCH  20  23
ATOM     23  C   UNL     1       6.624  -5.242  23.809  0.00  0.00    +0.088 A 
ATOM     24  C   UNL     1       8.019  -5.239  23.725  0.00  0.00    +0.027 A 
ATOM     25  C   UNL     1       8.772  -5.197  24.900  0.00  0.00    +0.002 A 
ATOM     26  C   UNL     1       8.133  -5.169  26.140  0.00  0.00    +0.000 A 
ATOM     27  C   UNL     1       6.739  -5.190  26.215  0.00  0.00    +0.002 A 
ATOM     28  C   UNL     1       5.978  -5.231  25.048  0.00  0.00    +0.027 A 
ENDBRANCH  20  23
ENDBRANCH  19  20
ENDBRANCH  18  19
ENDBRANCH   4  18
TORSDOF 6
ENDMDL
MODEL 7
REMARK VINA RESULT:      -6.5      3.724      6.812
REMARK  Name = 
REMARK  7 active torsions:
REMARK  status: ('A' for Active; 'I' for Inactive)
REMARK    1  A    between atoms: C_1  and  N_2
REMARK    2  A    between atoms: C_6  and  C_8
REMARK    3  A    between atoms: C_8  and  C_9
REMARK    4  A    between atoms: C_15  and  C_16
REMARK    5  A    between atoms: C_16  and  C_17
REMARK    6  A    between atoms: C_17  and  S_18
REMARK    7  A    between atoms: S_18  and  C_21
REMARK                            x       y       z     vdW  Elec       q    Type
REMARK                         _______ _______ _______ _____ _____    ______ ____
ROOT
ATOM      1  C   UNL     1       5.990  -4.680  26.534  0.00  0.00    -0.021 A 
ATOM      2  C   UNL     1       7.181  -4.289  25.848  0.00  0.00    +0.003 A 
ATOM      3  C   UNL     1       7.442  -3.362  24.823  0.00  0.00    +0.014 A 
ATOM      4  C   UNL     1       8.694  -3.318  24.191  0.00  0.00    -0.045 A 
ATOM      5  C   UNL     1       9.706  -4.172  24.649  0.00  0.00    +0.006 A 
ATOM      6  C   UNL     1       9.502  -5.047  25.728  0.00  0.00    +0.026 A 
ATOM      7  C   UNL     1       8.224  -5.091  26.297  0.00  0.00    +0.047 A 
ATOM      8  N   UNL     1       7.716  -5.866  27.314  0.00  0.00    -0.360 N 
ATOM      9  H   UNL     1       8.251  -6.541  27.843  0.00  0.00    +0.165 HD
ATOM     10  C   UNL     1       6.371  -5.639  27.455  0.00  0.00    +0.087 A 
ENDROOT
BRANCH   1  11
ATOM     11  C   UNL     1       4.590  -4.195  26.262  0.00  0.00    +0.056 C 
BRANCH  11  14
ATOM     12  C   UNL     1       3.668  -7.369  25.469  0.00  0.00    +0.105 C 
ATOM     13  N   UNL     1       4.484  -6.288  24.920  0.00  0.00    -0.302 NA
ATOM     14  C   UNL     1       3.871  -4.951  25.114  0.00  0.00    +0.061 C 
ATOM     15  C   UNL     1       3.992  -4.240  23.761  0.00  0.00    +0.020 C 
ATOM     16  C   UNL     1       4.962  -5.084  22.962  0.00  0.00    +0.017 C 
ATOM     17  C   UNL     1       4.706  -6.481  23.483  0.00  0.00    +0.084 C 
ENDBRANCH  11  14
ENDBRANCH   1  11
BRANCH   4  18
ATOM     18  C   UNL     1       8.912  -2.471  22.952  0.00  0.00    +0.058 C 
BRANCH  18  19
ATOM     19  C   UNL     1      10.061  -1.476  23.073  0.00  0.00    +0.176 C 
BRANCH  19  20
ATOM     20  S   UNL     1       9.488   0.190  23.290  0.00  0.00    -0.003 S 
ATOM     21  O   UNL     1       8.574   0.510  22.212  0.00  0.00    -0.169 OA
ATOM     22  O   UNL     1      10.629   1.037  23.583  0.00  0.00    -0.169 OA
BRANCH  20  23
ATOM     23  C   UNL     1       8.526   0.044  24.781  0.00  0.00    +0.088 A 
ATOM     24  C   UNL     1       7.152   0.299  24.748  0.00  0.00    +0.027 A 
ATOM     25  C   UNL     1       6.398   0.129  25.910  0.00  0.00    +0.002 A 
ATOM     26  C   UNL     1       7.017  -0.283  27.091  0.00  0.00    +0.000 A 
ATOM     27  C   UNL     1       8.393  -0.520  27.120  0.00  0.00    +0.002 A 
ATOM     28  C   UNL     1       9.155  -0.353  25.965  0.00  0.00    +0.027 A 
ENDBRANCH  20  23
ENDBRANCH  19  20
ENDBRANCH  18  19
ENDBRANCH   4  18
TORSDOF 6
ENDMDL
MODEL 8
REMARK VINA RESULT:      -6.5      1.414      2.132
REMARK  Name = 
REMARK  7 active torsions:
REMARK  status: ('A' for Active; 'I' for Inactive)
REMARK    1  A    between atoms: C_1  and  N_2
REMARK    2  A    between atoms: C_6  and  C_8
REMARK    3  A    between atoms: C_8  and  C_9
REMARK    4  A    between atoms: C_15  and  C_16
REMARK    5  A    between atoms: C_16  and  C_17
REMARK    6  A    between atoms: C_17  and  S_18
REMARK    7  A    between atoms: S_18  and  C_21
REMARK                            x       y       z     vdW  Elec       q    Type
REMARK                         _______ _______ _______ _____ _____    ______ ____
ROOT
ATOM      1  C   UNL     1       7.131   0.804  23.878  0.00  0.00    -0.021 A 
ATOM      2  C   UNL     1       6.419  -0.295  24.451  0.00  0.00    +0.003 A 
ATOM      3  C   UNL     1       5.986  -1.533  23.942  0.00  0.00    +0.014 A 
ATOM      4  C   UNL     1       5.122  -2.355  24.681  0.00  0.00    -0.045 A 
ATOM      5  C   UNL     1       4.752  -1.950  25.971  0.00  0.00    +0.006 A 
ATOM      6  C   UNL     1       5.238  -0.762  26.540  0.00  0.00    +0.026 A 
ATOM      7  C   UNL     1       6.058   0.050  25.749  0.00  0.00    +0.047 A 
ATOM      8  N   UNL     1       6.637   1.272  26.007  0.00  0.00    -0.360 N 
ATOM      9  H   UNL     1       6.558   1.770  26.883  0.00  0.00    +0.165 HD
ATOM     10  C   UNL     1       7.271   1.741  24.885  0.00  0.00    +0.087 A 
ENDROOT
BRANCH   1  11
ATOM     11  C   UNL     1       7.581   0.941  22.447  0.00  0.00    +0.056 C 
BRANCH  11  14
ATOM     12  C   UNL     1       9.925  -1.512  22.645  0.00  0.00    +0.105 C 
ATOM     13  N   UNL     1       9.646  -0.204  23.232  0.00  0.00    -0.302 NA
ATOM     14  C   UNL     1       9.109   0.765  22.246  0.00  0.00    +0.061 C 
ATOM     15  C   UNL     1       9.896   2.062  22.470  0.00  0.00    +0.020 C 
ATOM     16  C   UNL     1      10.608   1.863  23.791  0.00  0.00    +0.017 C 
ATOM     17  C   UNL     1      10.861   0.373  23.819  0.00  0.00    +0.084 C 
ENDBRANCH  11  14
ENDBRANCH   1  11
BRANCH   4  18
ATOM     18  C   UNL     1       4.490  -3.583  24.055  0.00  0.00    +0.058 C 
BRANCH  18  19
ATOM     19  C   UNL     1       5.237  -4.115  22.838  0.00  0.00    +0.176 C 
BRANCH  19  20
ATOM     20  S   UNL     1       6.053  -5.656  23.169  0.00  0.00    -0.003 S 
ATOM     21  O   UNL     1       6.860  -6.010  22.019  0.00  0.00    -0.169 OA
ATOM     22  O   UNL     1       5.083  -6.584  23.720  0.00  0.00    -0.169 OA
BRANCH  20  23
ATOM     23  C   UNL     1       7.165  -5.194  24.481  0.00  0.00    +0.088 A 
ATOM     24  C   UNL     1       8.342  -4.502  24.180  0.00  0.00    +0.027 A 
ATOM     25  C   UNL     1       9.179  -4.097  25.221  0.00  0.00    +0.002 A 
ATOM     26  C   UNL     1       8.844  -4.391  26.543  0.00  0.00    +0.000 A 
ATOM     27  C   UNL     1       7.675  -5.097  26.833  0.00  0.00    +0.002 A 
ATOM     28  C   UNL     1       6.832  -5.506  25.802  0.00  0.00    +0.027 A 
ENDBRANCH  20  23
ENDBRANCH  19  20
ENDBRANCH  18  19
ENDBRANCH   4  18
TORSDOF 6
ENDMDL
MODEL 9
REMARK VINA RESULT:      -6.4      3.954      6.779
REMARK  Name = 
REMARK  7 active torsions:
REMARK  status: ('A' for Active; 'I' for Inactive)
REMARK    1  A    between atoms: C_1  and  N_2
REMARK    2  A    between atoms: C_6  and  C_8
REMARK    3  A    between atoms: C_8  and  C_9
REMARK    4  A    between atoms: C_15  and  C_16
REMARK    5  A    between atoms: C_16  and  C_17
REMARK    6  A    between atoms: C_17  and  S_18
REMARK    7  A    between atoms: S_18  and  C_21
REMARK                            x       y       z     vdW  Elec       q    Type
REMARK                         _______ _______ _______ _____ _____    ______ ____
ROOT
ATOM      1  C   UNL     1       9.451  -1.582  23.607  0.00  0.00    -0.021 A 
ATOM      2  C   UNL     1       9.546  -0.164  23.461  0.00  0.00    +0.003 A 
ATOM      3  C   UNL     1       9.441   0.908  24.366  0.00  0.00    +0.014 A 
ATOM      4  C   UNL     1       9.380   2.234  23.912  0.00  0.00    -0.045 A 
ATOM      5  C   UNL     1       9.497   2.476  22.537  0.00  0.00    +0.006 A 
ATOM      6  C   UNL     1       9.691   1.434  21.616  0.00  0.00    +0.026 A 
ATOM      7  C   UNL     1       9.697   0.124  22.108  0.00  0.00    +0.047 A 
ATOM      8  N   UNL     1       9.816  -1.083  21.459  0.00  0.00    -0.360 N 
ATOM      9  H   UNL     1       9.951  -1.188  20.463  0.00  0.00    +0.165 HD
ATOM     10  C   UNL     1       9.655  -2.115  22.347  0.00  0.00    +0.087 A 
ENDROOT
BRANCH   1  11
ATOM     11  C   UNL     1       9.130  -2.340  24.868  0.00  0.00    +0.056 C 
BRANCH  11  14
ATOM     12  C   UNL     1       6.727  -4.260  23.420  0.00  0.00    +0.105 C 
ATOM     13  N   UNL     1       7.351  -4.075  24.728  0.00  0.00    -0.302 NA
ATOM     14  C   UNL     1       8.813  -3.842  24.639  0.00  0.00    +0.061 C 
ATOM     15  C   UNL     1       9.443  -4.755  25.698  0.00  0.00    +0.020 C 
ATOM     16  C   UNL     1       8.284  -5.213  26.557  0.00  0.00    +0.017 C 
ATOM     17  C   UNL     1       7.130  -5.249  25.580  0.00  0.00    +0.084 C 
ENDBRANCH  11  14
ENDBRANCH   1  11
BRANCH   4  18
ATOM     18  C   UNL     1       9.057   3.370  24.863  0.00  0.00    +0.058 C 
BRANCH  18  19
ATOM     19  C   UNL     1       7.651   3.936  24.701  0.00  0.00    +0.176 C 
BRANCH  19  20
ATOM     20  S   UNL     1       6.641   3.650  26.133  0.00  0.00    -0.003 S 
ATOM     21  O   UNL     1       5.345   4.260  25.915  0.00  0.00    -0.169 OA
ATOM     22  O   UNL     1       7.423   3.950  27.318  0.00  0.00    -0.169 OA
BRANCH  20  23
ATOM     23  C   UNL     1       6.420   1.884  26.064  0.00  0.00    +0.088 A 
ATOM     24  C   UNL     1       5.853   1.301  24.926  0.00  0.00    +0.027 A 
ATOM     25  C   UNL     1       5.734  -0.088  24.860  0.00  0.00    +0.002 A 
ATOM     26  C   UNL     1       6.169  -0.879  25.925  0.00  0.00    +0.000 A 
ATOM     27  C   UNL     1       6.718  -0.287  27.064  0.00  0.00    +0.002 A 
ATOM     28  C   UNL     1       6.842   1.099  27.139  0.00  0.00    +0.027 A 
ENDBRANCH  20  23
ENDBRANCH  19  20
ENDBRANCH  18  19
ENDBRANCH   4  18
TORSDOF 6
ENDMDL
