MODEL 1
REMARK VINA RESULT:      -4.6      0.000      0.000
REMARK  Name = 
REMARK  5 active torsions:
REMARK  status: ('A' for Active; 'I' for Inactive)
REMARK    1  A    between atoms: O_1  and  C_2
REMARK    2  A    between atoms: C_2  and  C_3
REMARK    3  A    between atoms: C_8  and  O_10
REMARK    4  A    between atoms: C_11  and  O_13
REMARK    5  A    between atoms: C_14  and  O_16
REMARK                            x       y       z     vdW  Elec       q    Type
REMARK                         _______ _______ _______ _____ _____    ______ ____
ROOT
ATOM      1  C   UNL     1       8.724  -1.995  23.195  0.00  0.00    +0.147 C 
ATOM      2  C   UNL     1       9.024  -1.241  21.931  0.00  0.00    +0.182 C 
ATOM      3  C   UNL     1       8.884   0.264  22.232  0.00  0.00    +0.174 C 
ATOM      4  C   UNL     1       9.969   0.738  23.236  0.00  0.00    +0.148 C 
ATOM      5  C   UNL     1      10.330  -0.278  24.333  0.00  0.00    +0.068 C 
ATOM      6  C   UNL     1       9.357  -1.420  24.445  0.00  0.00    +0.158 C 
ATOM      7  O   UNL     1       9.842  -2.628  23.841  0.00  0.00    -0.360 OA
ENDROOT
BRANCH   2   8
ATOM      8  O   UNL     1      10.363  -1.504  21.470  0.00  0.00    -0.386 OA
ATOM      9  H   UNL     1      10.855  -1.838  22.245  0.00  0.00    +0.210 HD
ENDBRANCH   2   8
BRANCH   3  10
ATOM     10  O   UNL     1       9.007   1.017  21.013  0.00  0.00    -0.387 OA
ATOM     11  H   UNL     1       9.683   0.556  20.483  0.00  0.00    +0.210 HD
ENDBRANCH   3  10
BRANCH   4  12
ATOM     12  O   UNL     1       9.521   1.947  23.869  0.00  0.00    -0.389 OA
ATOM     13  H   UNL     1       9.833   1.919  24.790  0.00  0.00    +0.210 HD
ENDBRANCH   4  12
BRANCH   1  14
ATOM     14  C   UNL     1       7.477  -2.817  23.253  0.00  0.00    +0.196 C 
BRANCH  14  15
ATOM     15  O   UNL     1       7.537  -3.853  22.284  0.00  0.00    -0.392 OA
ATOM     16  H   UNL     1       8.478  -4.078  22.167  0.00  0.00    +0.210 HD
ENDBRANCH  14  15
ENDBRANCH   1  14
TORSDOF 5
ENDMDL
MODEL 2
REMARK VINA RESULT:      -4.5      1.411      3.979
REMARK  Name = 
REMARK  5 active torsions:
REMARK  status: ('A' for Active; 'I' for Inactive)
REMARK    1  A    between atoms: O_1  and  C_2
REMARK    2  A    between atoms: C_2  and  C_3
REMARK    3  A    between atoms: C_8  and  O_10
REMARK    4  A    between atoms: C_11  and  O_13
REMARK    5  A    between atoms: C_14  and  O_16
REMARK                            x       y       z     vdW  Elec       q    Type
REMARK                         _______ _______ _______ _____ _____    ______ ____
ROOT
ATOM      1  C   UNL     1       9.402   0.444  22.570  0.00  0.00    +0.147 C 
ATOM      2  C   UNL     1      10.095  -0.889  22.536  0.00  0.00    +0.182 C 
ATOM      3  C   UNL     1       9.574  -1.725  23.721  0.00  0.00    +0.174 C 
ATOM      4  C   UNL     1       8.070  -2.064  23.549  0.00  0.00    +0.148 C 
ATOM      5  C   UNL     1       7.220  -0.954  22.905  0.00  0.00    +0.068 C 
ATOM      6  C   UNL     1       7.913   0.380  22.844  0.00  0.00    +0.158 C 
ATOM      7  O   UNL     1       8.427   0.683  21.539  0.00  0.00    -0.360 OA
ENDROOT
BRANCH   2   8
ATOM      8  O   UNL     1       9.819  -1.590  21.309  0.00  0.00    -0.386 OA
ATOM      9  H   UNL     1       9.684  -0.903  20.628  0.00  0.00    +0.210 HD
ENDBRANCH   2   8
BRANCH   3  10
ATOM     10  O   UNL     1      10.326  -2.947  23.821  0.00  0.00    -0.387 OA
ATOM     11  H   UNL     1       9.672  -3.646  24.009  0.00  0.00    +0.210 HD
ENDBRANCH   3  10
BRANCH   4  12
ATOM     12  O   UNL     1       7.511  -2.371  24.837  0.00  0.00    -0.389 OA
ATOM     13  H   UNL     1       7.620  -1.579  25.390  0.00  0.00    +0.210 HD
ENDBRANCH   4  12
BRANCH   1  14
ATOM     14  C   UNL     1      10.210   1.657  22.900  0.00  0.00    +0.196 C 
BRANCH  14  15
ATOM     15  O   UNL     1      10.415   2.432  21.728  0.00  0.00    -0.392 OA
ATOM     16  H   UNL     1      11.374   2.437  21.555  0.00  0.00    +0.210 HD
ENDBRANCH  14  15
ENDBRANCH   1  14
TORSDOF 5
ENDMDL
MODEL 3
REMARK VINA RESULT:      -4.5      2.963      5.320
REMARK  Name = 
REMARK  5 active torsions:
REMARK  status: ('A' for Active; 'I' for Inactive)
REMARK    1  A    between atoms: O_1  and  C_2
REMARK    2  A    between atoms: C_2  and  C_3
REMARK    3  A    between atoms: C_8  and  O_10
REMARK    4  A    between atoms: C_11  and  O_13
REMARK    5  A    between atoms: C_14  and  O_16
REMARK                            x       y       z     vdW  Elec       q    Type
REMARK                         _______ _______ _______ _____ _____    ______ ____
ROOT
ATOM      1  C   UNL     1       8.297  -2.585  25.022  0.00  0.00    +0.147 C 
ATOM      2  C   UNL     1       9.102  -3.760  24.543  0.00  0.00    +0.182 C 
ATOM      3  C   UNL     1       9.265  -4.736  25.726  0.00  0.00    +0.174 C 
ATOM      4  C   UNL     1       7.900  -5.344  26.142  0.00  0.00    +0.148 C 
ATOM      5  C   UNL     1       6.701  -4.384  26.044  0.00  0.00    +0.068 C 
ATOM      6  C   UNL     1       7.092  -2.942  25.870  0.00  0.00    +0.158 C 
ATOM      7  O   UNL     1       6.953  -2.484  24.517  0.00  0.00    -0.360 OA
ENDROOT
BRANCH   2   8
ATOM      8  O   UNL     1       8.442  -4.441  23.460  0.00  0.00    -0.386 OA
ATOM      9  H   UNL     1       7.890  -5.134  23.873  0.00  0.00    +0.210 HD
ENDBRANCH   2   8
BRANCH   3  10
ATOM     10  O   UNL     1      10.163  -5.798  25.358  0.00  0.00    -0.387 OA
ATOM     11  H   UNL     1       9.596  -6.535  25.066  0.00  0.00    +0.210 HD
ENDBRANCH   3  10
BRANCH   4  12
ATOM     12  O   UNL     1       7.993  -5.812  27.497  0.00  0.00    -0.389 OA
ATOM     13  H   UNL     1       8.204  -5.041  28.051  0.00  0.00    +0.210 HD
ENDBRANCH   4  12
BRANCH   1  14
ATOM     14  C   UNL     1       8.975  -1.259  25.140  0.00  0.00    +0.196 C 
BRANCH  14  15
ATOM     15  O   UNL     1      10.076  -1.200  24.245  0.00  0.00    -0.392 OA
ATOM     16  H   UNL     1       9.877  -1.806  23.509  0.00  0.00    +0.210 HD
ENDBRANCH  14  15
ENDBRANCH   1  14
TORSDOF 5
ENDMDL
MODEL 4
REMARK VINA RESULT:      -4.4      1.829      2.724
REMARK  Name = 
REMARK  5 active torsions:
REMARK  status: ('A' for Active; 'I' for Inactive)
REMARK    1  A    between atoms: O_1  and  C_2
REMARK    2  A    between atoms: C_2  and  C_3
REMARK    3  A    between atoms: C_8  and  O_10
REMARK    4  A    between atoms: C_11  and  O_13
REMARK    5  A    between atoms: C_14  and  O_16
REMARK                            x       y       z     vdW  Elec       q    Type
REMARK                         _______ _______ _______ _____ _____    ______ ____
ROOT
ATOM      1  C   UNL     1       9.474  -0.576  23.565  0.00  0.00    +0.147 C 
ATOM      2  C   UNL     1      10.314   0.630  23.254  0.00  0.00    +0.182 C 
ATOM      3  C   UNL     1       9.596   1.437  22.155  0.00  0.00    +0.174 C 
ATOM      4  C   UNL     1       8.255   2.020  22.673  0.00  0.00    +0.148 C 
ATOM      5  C   UNL     1       7.483   1.114  23.647  0.00  0.00    +0.068 C 
ATOM      6  C   UNL     1       7.988  -0.303  23.686  0.00  0.00    +0.158 C 
ATOM      7  O   UNL     1       8.801  -0.574  24.837  0.00  0.00    -0.360 OA
ENDROOT
BRANCH   2   8
ATOM      8  O   UNL     1      10.481   1.465  24.415  0.00  0.00    -0.386 OA
ATOM      9  H   UNL     1      10.561   0.857  25.177  0.00  0.00    +0.210 HD
ENDBRANCH   2   8
BRANCH   3  10
ATOM     10  O   UNL     1      10.441   2.515  21.713  0.00  0.00    -0.387 OA
ATOM     11  H   UNL     1       9.922   3.330  21.846  0.00  0.00    +0.210 HD
ENDBRANCH   3  10
BRANCH   4  12
ATOM     12  O   UNL     1       7.405   2.304  21.550  0.00  0.00    -0.389 OA
ATOM     13  H   UNL     1       7.365   1.494  21.012  0.00  0.00    +0.210 HD
ENDBRANCH   4  12
BRANCH   1  14
ATOM     14  C   UNL     1       9.996  -1.924  23.185  0.00  0.00    +0.196 C 
BRANCH  14  15
ATOM     15  O   UNL     1      10.477  -1.894  21.850  0.00  0.00    -0.392 OA
ATOM     16  H   UNL     1      10.736  -0.974  21.661  0.00  0.00    +0.210 HD
ENDBRANCH  14  15
ENDBRANCH   1  14
TORSDOF 5
ENDMDL
MODEL 5
REMARK VINA RESULT:      -4.4      1.556      2.781
REMARK  Name = 
REMARK  5 active torsions:
REMARK  status: ('A' for Active; 'I' for Inactive)
REMARK    1  A    between atoms: O_1  and  C_2
REMARK    2  A    between atoms: C_2  and  C_3
REMARK    3  A    between atoms: C_8  and  O_10
REMARK    4  A    between atoms: C_11  and  O_13
REMARK    5  A    between atoms: C_14  and  O_16
REMARK                            x       y       z     vdW  Elec       q    Type
REMARK                         _______ _______ _______ _____ _____    ______ ____
ROOT
ATOM      1  C   UNL     1       9.298  -1.271  23.149  0.00  0.00    +0.147 C 
ATOM      2  C   UNL     1       8.964  -0.172  24.118  0.00  0.00    +0.182 C 
ATOM      3  C   UNL     1       9.802   1.065  23.738  0.00  0.00    +0.174 C 
ATOM      4  C   UNL     1       9.380   1.625  22.354  0.00  0.00    +0.148 C 
ATOM      5  C   UNL     1       8.988   0.562  21.313  0.00  0.00    +0.068 C 
ATOM      6  C   UNL     1       9.381  -0.838  21.699  0.00  0.00    +0.158 C 
ATOM      7  O   UNL     1       8.277  -1.611  22.194  0.00  0.00    -0.360 OA
ENDROOT
BRANCH   2   8
ATOM      8  O   UNL     1       7.567   0.172  24.058  0.00  0.00    -0.386 OA
ATOM      9  H   UNL     1       7.102  -0.487  24.610  0.00  0.00    +0.210 HD
ENDBRANCH   2   8
BRANCH   3  10
ATOM     10  O   UNL     1       9.633   2.090  24.734  0.00  0.00    -0.387 OA
ATOM     11  H   UNL     1       9.068   2.770  24.321  0.00  0.00    +0.210 HD
ENDBRANCH   3  10
BRANCH   4  12
ATOM     12  O   UNL     1      10.461   2.405  21.818  0.00  0.00    -0.389 OA
ATOM     13  H   UNL     1      11.069   1.785  21.379  0.00  0.00    +0.210 HD
ENDBRANCH   4  12
BRANCH   1  14
ATOM     14  C   UNL     1      10.042  -2.463  23.657  0.00  0.00    +0.196 C 
BRANCH  14  15
ATOM     15  O   UNL     1       9.322  -3.061  24.725  0.00  0.00    -0.392 OA
ATOM     16  H   UNL     1       8.385  -2.821  24.606  0.00  0.00    +0.210 HD
ENDBRANCH  14  15
ENDBRANCH   1  14
TORSDOF 5
ENDMDL
MODEL 6
REMARK VINA RESULT:      -4.4      1.939      2.510
REMARK  Name = 
REMARK  5 active torsions:
REMARK  status: ('A' for Active; 'I' for Inactive)
REMARK    1  A    between atoms: O_1  and  C_2
REMARK    2  A    between atoms: C_2  and  C_3
REMARK    3  A    between atoms: C_8  and  O_10
REMARK    4  A    between atoms: C_11  and  O_13
REMARK    5  A    between atoms: C_14  and  O_16
REMARK                            x       y       z     vdW  Elec       q    Type
REMARK                         _______ _______ _______ _____ _____    ______ ____
ROOT
ATOM      1  C   UNL     1       7.926   0.135  24.267  0.00  0.00    +0.147 C 
ATOM      2  C   UNL     1       8.727  -0.759  23.363  0.00  0.00    +0.182 C 
ATOM      3  C   UNL     1       9.160   0.070  22.138  0.00  0.00    +0.174 C 
ATOM      4  C   UNL     1      10.147   1.197  22.544  0.00  0.00    +0.148 C 
ATOM      5  C   UNL     1       9.863   1.852  23.907  0.00  0.00    +0.068 C 
ATOM      6  C   UNL     1       8.507   1.521  24.468  0.00  0.00    +0.158 C 
ATOM      7  O   UNL     1       8.557   0.525  25.500  0.00  0.00    -0.360 OA
ENDROOT
BRANCH   2   8
ATOM      8  O   UNL     1       9.901  -1.261  24.028  0.00  0.00    -0.386 OA
ATOM      9  H   UNL     1       9.687  -2.174  24.304  0.00  0.00    +0.210 HD
ENDBRANCH   2   8
BRANCH   3  10
ATOM     10  O   UNL     1       9.792  -0.786  21.171  0.00  0.00    -0.387 OA
ATOM     11  H   UNL     1       9.377  -0.572  20.315  0.00  0.00    +0.210 HD
ENDBRANCH   3  10
BRANCH   4  12
ATOM     12  O   UNL     1      10.125   2.221  21.537  0.00  0.00    -0.389 OA
ATOM     13  H   UNL     1      10.096   1.772  20.674  0.00  0.00    +0.210 HD
ENDBRANCH   4  12
BRANCH   1  14
ATOM     14  C   UNL     1       6.465  -0.134  24.420  0.00  0.00    +0.196 C 
BRANCH  14  15
ATOM     15  O   UNL     1       6.046  -1.086  23.453  0.00  0.00    -0.392 OA
ATOM     16  H   UNL     1       5.302  -0.687  22.966  0.00  0.00    +0.210 HD
ENDBRANCH  14  15
ENDBRANCH   1  14
TORSDOF 5
ENDMDL
MODEL 7
REMARK VINA RESULT:      -4.4      3.077      4.648
REMARK  Name = 
REMARK  5 active torsions:
REMARK  status: ('A' for Active; 'I' for Inactive)
REMARK    1  A    between atoms: O_1  and  C_2
REMARK    2  A    between atoms: C_2  and  C_3
REMARK    3  A    between atoms: C_8  and  O_10
REMARK    4  A    between atoms: C_11  and  O_13
REMARK    5  A    between atoms: C_14  and  O_16
REMARK                            x       y       z     vdW  Elec       q    Type
REMARK                         _______ _______ _______ _____ _____    ______ ____
ROOT
ATOM      1  C   UNL     1       7.983  -4.605  26.127  0.00  0.00    +0.147 C 
ATOM      2  C   UNL     1       8.122  -5.347  24.828  0.00  0.00    +0.182 C 
ATOM      3  C   UNL     1       7.577  -4.443  23.704  0.00  0.00    +0.174 C 
ATOM      4  C   UNL     1       8.458  -3.179  23.525  0.00  0.00    +0.148 C 
ATOM      5  C   UNL     1       9.033  -2.595  24.828  0.00  0.00    +0.068 C 
ATOM      6  C   UNL     1       8.394  -3.147  26.073  0.00  0.00    +0.158 C 
ATOM      7  O   UNL     1       9.204  -4.135  26.726  0.00  0.00    -0.360 OA
ENDROOT
BRANCH   2   8
ATOM      8  O   UNL     1       9.498  -5.663  24.550  0.00  0.00    -0.386 OA
ATOM      9  H   UNL     1       9.577  -5.697  23.576  0.00  0.00    +0.210 HD
ENDBRANCH   2   8
BRANCH   3  10
ATOM     10  O   UNL     1       7.543  -5.175  22.466  0.00  0.00    -0.387 OA
ATOM     11  H   UNL     1       8.445  -5.522  22.338  0.00  0.00    +0.210 HD
ENDBRANCH   3  10
BRANCH   4  12
ATOM     12  O   UNL     1       7.683  -2.158  22.877  0.00  0.00    -0.389 OA
ATOM     13  H   UNL     1       7.627  -1.408  23.493  0.00  0.00    +0.210 HD
ENDBRANCH   4  12
BRANCH   1  14
ATOM     14  C   UNL     1       6.997  -5.106  27.131  0.00  0.00    +0.196 C 
BRANCH  14  15
ATOM     15  O   UNL     1       7.578  -6.152  27.896  0.00  0.00    -0.392 OA
ATOM     16  H   UNL     1       8.529  -6.167  27.682  0.00  0.00    +0.210 HD
ENDBRANCH  14  15
ENDBRANCH   1  14
TORSDOF 5
ENDMDL
MODEL 8
REMARK VINA RESULT:      -4.4      1.869      2.791
REMARK  Name = 
REMARK  5 active torsions:
REMARK  status: ('A' for Active; 'I' for Inactive)
REMARK    1  A    between atoms: O_1  and  C_2
REMARK    2  A    between atoms: C_2  and  C_3
REMARK    3  A    between atoms: C_8  and  O_10
REMARK    4  A    between atoms: C_11  and  O_13
REMARK    5  A    between atoms: C_14  and  O_16
REMARK                            x       y       z     vdW  Elec       q    Type
REMARK                         _______ _______ _______ _____ _____    ______ ____
ROOT
ATOM      1  C   UNL     1       9.400   0.235  22.703  0.00  0.00    +0.147 C 
ATOM      2  C   UNL     1       8.970   1.358  21.803  0.00  0.00    +0.182 C 
ATOM      3  C   UNL     1       7.818   2.110  22.500  0.00  0.00    +0.174 C 
ATOM      4  C   UNL     1       8.310   2.814  23.792  0.00  0.00    +0.148 C 
ATOM      5  C   UNL     1       9.374   2.041  24.591  0.00  0.00    +0.068 C 
ATOM      6  C   UNL     1       9.526   0.605  24.168  0.00  0.00    +0.158 C 
ATOM      7  O   UNL     1      10.680   0.385  23.343  0.00  0.00    -0.360 OA
ENDROOT
BRANCH   2   8
ATOM      8  O   UNL     1      10.050   2.277  21.559  0.00  0.00    -0.386 OA
ATOM      9  H   UNL     1       9.757   3.140  21.913  0.00  0.00    +0.210 HD
ENDBRANCH   2   8
BRANCH   3  10
ATOM     10  O   UNL     1       7.269   3.093  21.606  0.00  0.00    -0.387 OA
ATOM     11  H   UNL     1       6.512   3.487  22.078  0.00  0.00    +0.210 HD
ENDBRANCH   3  10
BRANCH   4  12
ATOM     12  O   UNL     1       7.184   3.050  24.652  0.00  0.00    -0.389 OA
ATOM     13  H   UNL     1       6.658   2.232  24.664  0.00  0.00    +0.210 HD
ENDBRANCH   4  12
BRANCH   1  14
ATOM     14  C   UNL     1       9.128  -1.169  22.269  0.00  0.00    +0.196 C 
BRANCH  14  15
ATOM     15  O   UNL     1      10.181  -1.628  21.435  0.00  0.00    -0.392 OA
ATOM     16  H   UNL     1      10.602  -0.839  21.048  0.00  0.00    +0.210 HD
ENDBRANCH  14  15
ENDBRANCH   1  14
TORSDOF 5
ENDMDL
MODEL 9
REMARK VINA RESULT:      -4.3      1.880      2.993
REMARK  Name = 
REMARK  5 active torsions:
REMARK  status: ('A' for Active; 'I' for Inactive)
REMARK    1  A    between atoms: O_1  and  C_2
REMARK    2  A    between atoms: C_2  and  C_3
REMARK    3  A    between atoms: C_8  and  O_10
REMARK    4  A    between atoms: C_11  and  O_13
REMARK    5  A    between atoms: C_14  and  O_16
REMARK                            x       y       z     vdW  Elec       q    Type
REMARK                         _______ _______ _______ _____ _____    ______ ____
ROOT
ATOM      1  C   UNL     1       8.654  -0.699  23.896  0.00  0.00    +0.147 C 
ATOM      2  C   UNL     1       7.691   0.444  23.744  0.00  0.00    +0.182 C 
ATOM      3  C   UNL     1       8.478   1.658  23.210  0.00  0.00    +0.174 C 
ATOM      4  C   UNL     1       9.002   1.397  21.773  0.00  0.00    +0.148 C 
ATOM      5  C   UNL     1       9.454  -0.047  21.496  0.00  0.00    +0.068 C 
ATOM      6  C   UNL     1       9.615  -0.880  22.738  0.00  0.00    +0.158 C 
ATOM      7  O   UNL     1       8.516  -1.778  22.954  0.00  0.00    -0.360 OA
ENDROOT
BRANCH   2   8
ATOM      8  O   UNL     1       6.638   0.122  22.817  0.00  0.00    -0.386 OA
ATOM      9  H   UNL     1       6.099  -0.570  23.248  0.00  0.00    +0.210 HD
ENDBRANCH   2   8
BRANCH   3  10
ATOM     10  O   UNL     1       7.629   2.820  23.200  0.00  0.00    -0.387 OA
ATOM     11  H   UNL     1       7.796   3.277  24.045  0.00  0.00    +0.210 HD
ENDBRANCH   3  10
BRANCH   4  12
ATOM     12  O   UNL     1      10.109   2.275  21.515  0.00  0.00    -0.389 OA
ATOM     13  H   UNL     1      10.107   2.950  22.215  0.00  0.00    +0.210 HD
ENDBRANCH   4  12
BRANCH   1  14
ATOM     14  C   UNL     1       8.988  -1.169  25.274  0.00  0.00    +0.196 C 
BRANCH  14  15
ATOM     15  O   UNL     1       9.307  -0.057  26.098  0.00  0.00    -0.392 OA
ATOM     16  H   UNL     1       8.517   0.135  26.635  0.00  0.00    +0.210 HD
ENDBRANCH  14  15
ENDBRANCH   1  14
TORSDOF 5
ENDMDL
