MODEL 1
REMARK VINA RESULT:      -6.9      0.000      0.000
REMARK  Name = 
REMARK  7 active torsions:
REMARK  status: ('A' for Active; 'I' for Inactive)
REMARK    1  A    between atoms: C_1  and  C_2
REMARK    2  A    between atoms: C_2  and  C_3
REMARK    3  A    between atoms: C_3  and  C_4
REMARK    4  A    between atoms: C_4  and  N_5
REMARK    5  A    between atoms: C_6  and  C_7
REMARK    6  A    between atoms: C_7  and  C_8
REMARK    7  A    between atoms: C_19  and  N_20
REMARK                            x       y       z     vdW  Elec       q    Type
REMARK                         _______ _______ _______ _____ _____    ______ ____
ROOT
ATOM      1  N   UNL     1       7.542  -2.583  23.500  0.00  0.00    -0.312 N 
ATOM      2  C   UNL     1       7.481  -3.667  24.346  0.00  0.00    +0.166 A 
ATOM      3  C   UNL     1       8.796  -4.056  24.522  0.00  0.00    +0.148 A 
ATOM      4  C   UNL     1       9.033  -5.052  25.486  0.00  0.00    +0.147 A 
ATOM      5  N   UNL     1       7.970  -5.631  26.093  0.00  0.00    -0.219 NA
ATOM      6  C   UNL     1       6.736  -5.182  25.784  0.00  0.00    +0.225 A 
ATOM      7  N   UNL     1       9.627  -3.331  23.693  0.00  0.00    -0.227 NA
ATOM      8  N   UNL     1       6.395  -4.184  24.947  0.00  0.00    -0.216 NA
ATOM      9  C   UNL     1       8.843  -2.477  23.049  0.00  0.00    +0.116 A 
ENDROOT
BRANCH   4  10
ATOM     10  N   UNL     1      10.299  -5.467  25.868  0.00  0.00    -0.341 N 
ATOM     11  H   UNL     1      10.951  -4.701  25.964  0.00  0.00    +0.144 HD
ATOM     12  H   UNL     1      10.305  -6.204  26.564  0.00  0.00    +0.144 HD
ENDBRANCH   4  10
BRANCH   1  13
ATOM     13  C   UNL     1       6.445  -1.654  23.337  0.00  0.00    +0.125 C 
BRANCH  13  14
ATOM     14  C   UNL     1       5.991  -0.901  24.584  0.00  0.00    +0.021 C 
BRANCH  14  16
ATOM     15  C   UNL     1       7.839  -0.311  26.163  0.00  0.00    +0.004 C 
ATOM     16  C   UNL     1       6.961   0.188  25.028  0.00  0.00    -0.002 C 
ENDBRANCH  14  16
ENDBRANCH  13  14
ENDBRANCH   1  13
BRANCH   9  17
ATOM     17  C   UNL     1       9.330  -1.468  22.048  0.00  0.00    +0.109 C 
BRANCH  17  18
ATOM     18  C   UNL     1       9.600  -0.057  22.554  0.00  0.00    -0.036 A 
ATOM     19  C   UNL     1      10.513   0.259  23.588  0.00  0.00    +0.008 A 
ATOM     20  C   UNL     1      10.609   1.561  24.108  0.00  0.00    +0.050 A 
ATOM     21  C   UNL     1       9.755   2.516  23.604  0.00  0.00    +0.166 A 
ATOM     22  O   UNL     1       9.607   3.789  24.063  0.00  0.00    -0.453 OA
ATOM     23  C   UNL     1       8.413   4.177  23.352  0.00  0.00    +0.466 C 
ATOM     24  O   UNL     1       8.114   3.303  22.244  0.00  0.00    -0.453 OA
ATOM     25  C   UNL     1       8.897   2.237  22.568  0.00  0.00    +0.166 A 
ATOM     26  C   UNL     1       8.826   0.983  22.000  0.00  0.00    +0.053 A 
ENDBRANCH  17  18
ENDBRANCH   9  17
TORSDOF 6
ENDMDL
MODEL 2
REMARK VINA RESULT:      -6.4      3.908      6.804
REMARK  Name = 
REMARK  7 active torsions:
REMARK  status: ('A' for Active; 'I' for Inactive)
REMARK    1  A    between atoms: C_1  and  C_2
REMARK    2  A    between atoms: C_2  and  C_3
REMARK    3  A    between atoms: C_3  and  C_4
REMARK    4  A    between atoms: C_4  and  N_5
REMARK    5  A    between atoms: C_6  and  C_7
REMARK    6  A    between atoms: C_7  and  C_8
REMARK    7  A    between atoms: C_19  and  N_20
REMARK                            x       y       z     vdW  Elec       q    Type
REMARK                         _______ _______ _______ _____ _____    ______ ____
ROOT
ATOM      1  N   UNL     1       9.861   1.477  22.982  0.00  0.00    -0.312 N 
ATOM      2  C   UNL     1       9.400   2.769  23.090  0.00  0.00    +0.166 A 
ATOM      3  C   UNL     1       8.228   2.793  22.358  0.00  0.00    +0.148 A 
ATOM      4  C   UNL     1       7.458   3.966  22.442  0.00  0.00    +0.147 A 
ATOM      5  N   UNL     1       7.954   5.018  23.134  0.00  0.00    -0.219 NA
ATOM      6  C   UNL     1       9.141   4.868  23.759  0.00  0.00    +0.225 A 
ATOM      7  N   UNL     1       8.051   1.596  21.696  0.00  0.00    -0.227 NA
ATOM      8  N   UNL     1       9.920   3.772  23.820  0.00  0.00    -0.216 NA
ATOM      9  C   UNL     1       9.074   0.829  22.050  0.00  0.00    +0.116 A 
ENDROOT
BRANCH   4  10
ATOM     10  N   UNL     1       6.203   4.106  21.868  0.00  0.00    -0.341 N 
ATOM     11  H   UNL     1       6.229   4.594  20.984  0.00  0.00    +0.144 HD
ATOM     12  H   UNL     1       5.610   3.290  21.958  0.00  0.00    +0.144 HD
ENDBRANCH   4  10
BRANCH   1  13
ATOM     13  C   UNL     1      10.856   0.923  23.875  0.00  0.00    +0.125 C 
BRANCH  13  14
ATOM     14  C   UNL     1      10.354   0.363  25.202  0.00  0.00    +0.021 C 
BRANCH  14  16
ATOM     15  C   UNL     1       8.379  -0.632  26.370  0.00  0.00    +0.004 C 
ATOM     16  C   UNL     1       8.836   0.388  25.341  0.00  0.00    -0.002 C 
ENDBRANCH  14  16
ENDBRANCH  13  14
ENDBRANCH   1  13
BRANCH   9  17
ATOM     17  C   UNL     1       9.281  -0.582  21.578  0.00  0.00    +0.109 C 
BRANCH  17  18
ATOM     18  C   UNL     1       8.692  -1.697  22.434  0.00  0.00    -0.036 A 
ATOM     19  C   UNL     1       7.309  -1.870  22.678  0.00  0.00    +0.008 A 
ATOM     20  C   UNL     1       6.841  -2.829  23.593  0.00  0.00    +0.050 A 
ATOM     21  C   UNL     1       7.778  -3.572  24.277  0.00  0.00    +0.166 A 
ATOM     22  O   UNL     1       7.530  -4.449  25.287  0.00  0.00    -0.453 OA
ATOM     23  C   UNL     1       8.873  -4.670  25.765  0.00  0.00    +0.466 C 
ATOM     24  O   UNL     1       9.879  -4.241  24.824  0.00  0.00    -0.453 OA
ATOM     25  C   UNL     1       9.121  -3.449  24.016  0.00  0.00    +0.166 A 
ATOM     26  C   UNL     1       9.603  -2.558  23.080  0.00  0.00    +0.053 A 
ENDBRANCH  17  18
ENDBRANCH   9  17
TORSDOF 6
ENDMDL
MODEL 3
REMARK VINA RESULT:      -6.4      3.953      6.905
REMARK  Name = 
REMARK  7 active torsions:
REMARK  status: ('A' for Active; 'I' for Inactive)
REMARK    1  A    between atoms: C_1  and  C_2
REMARK    2  A    between atoms: C_2  and  C_3
REMARK    3  A    between atoms: C_3  and  C_4
REMARK    4  A    between atoms: C_4  and  N_5
REMARK    5  A    between atoms: C_6  and  C_7
REMARK    6  A    between atoms: C_7  and  C_8
REMARK    7  A    between atoms: C_19  and  N_20
REMARK                            x       y       z     vdW  Elec       q    Type
REMARK                         _______ _______ _______ _____ _____    ______ ____
ROOT
ATOM      1  N   UNL     1       8.953  -2.463  24.003  0.00  0.00    -0.312 N 
ATOM      2  C   UNL     1       9.480  -1.198  23.884  0.00  0.00    +0.166 A 
ATOM      3  C   UNL     1       9.019  -0.732  22.666  0.00  0.00    +0.148 A 
ATOM      4  C   UNL     1       9.276   0.618  22.371  0.00  0.00    +0.147 A 
ATOM      5  N   UNL     1      10.037   1.335  23.231  0.00  0.00    -0.219 NA
ATOM      6  C   UNL     1      10.464   0.732  24.361  0.00  0.00    +0.225 A 
ATOM      7  N   UNL     1       8.354  -1.733  21.990  0.00  0.00    -0.227 NA
ATOM      8  N   UNL     1      10.210  -0.519  24.787  0.00  0.00    -0.216 NA
ATOM      9  C   UNL     1       8.365  -2.787  22.796  0.00  0.00    +0.116 A 
ENDROOT
BRANCH   4  10
ATOM     10  N   UNL     1       8.780   1.270  21.252  0.00  0.00    -0.341 N 
ATOM     11  H   UNL     1       7.770   1.285  21.223  0.00  0.00    +0.144 HD
ATOM     12  H   UNL     1       9.288   2.107  20.997  0.00  0.00    +0.144 HD
ENDBRANCH   4  10
BRANCH   1  13
ATOM     13  C   UNL     1       8.887  -3.168  25.265  0.00  0.00    +0.125 C 
BRANCH  13  14
ATOM     14  C   UNL     1       7.793  -2.736  26.237  0.00  0.00    +0.021 C 
BRANCH  14  16
ATOM     15  C   UNL     1       7.742  -5.214  26.576  0.00  0.00    +0.004 C 
ATOM     16  C   UNL     1       7.029  -3.902  26.855  0.00  0.00    -0.002 C 
ENDBRANCH  14  16
ENDBRANCH  13  14
ENDBRANCH   1  13
BRANCH   9  17
ATOM     17  C   UNL     1       7.733  -4.110  22.472  0.00  0.00    +0.109 C 
BRANCH  17  18
ATOM     18  C   UNL     1       6.369  -4.400  23.086  0.00  0.00    -0.036 A 
ATOM     19  C   UNL     1       5.473  -3.406  23.545  0.00  0.00    +0.008 A 
ATOM     20  C   UNL     1       4.295  -3.744  24.234  0.00  0.00    +0.050 A 
ATOM     21  C   UNL     1       4.059  -5.077  24.484  0.00  0.00    +0.166 A 
ATOM     22  O   UNL     1       3.051  -5.590  25.241  0.00  0.00    -0.453 OA
ATOM     23  C   UNL     1       3.495  -6.957  25.360  0.00  0.00    +0.466 C 
ATOM     24  O   UNL     1       4.507  -7.303  24.392  0.00  0.00    -0.453 OA
ATOM     25  C   UNL     1       4.894  -6.056  24.003  0.00  0.00    +0.166 A 
ATOM     26  C   UNL     1       6.025  -5.755  23.273  0.00  0.00    +0.053 A 
ENDBRANCH  17  18
ENDBRANCH   9  17
TORSDOF 6
ENDMDL
MODEL 4
REMARK VINA RESULT:      -6.4      2.528      4.247
REMARK  Name = 
REMARK  7 active torsions:
REMARK  status: ('A' for Active; 'I' for Inactive)
REMARK    1  A    between atoms: C_1  and  C_2
REMARK    2  A    between atoms: C_2  and  C_3
REMARK    3  A    between atoms: C_3  and  C_4
REMARK    4  A    between atoms: C_4  and  N_5
REMARK    5  A    between atoms: C_6  and  C_7
REMARK    6  A    between atoms: C_7  and  C_8
REMARK    7  A    between atoms: C_19  and  N_20
REMARK                            x       y       z     vdW  Elec       q    Type
REMARK                         _______ _______ _______ _____ _____    ______ ____
ROOT
ATOM      1  N   UNL     1       5.929  -4.640  24.902  0.00  0.00    -0.312 N 
ATOM      2  C   UNL     1       4.964  -5.336  25.593  0.00  0.00    +0.166 A 
ATOM      3  C   UNL     1       5.657  -6.057  26.546  0.00  0.00    +0.148 A 
ATOM      4  C   UNL     1       4.885  -6.733  27.508  0.00  0.00    +0.147 A 
ATOM      5  N   UNL     1       3.538  -6.724  27.379  0.00  0.00    -0.219 NA
ATOM      6  C   UNL     1       2.999  -6.016  26.364  0.00  0.00    +0.225 A 
ATOM      7  N   UNL     1       7.016  -5.928  26.352  0.00  0.00    -0.227 NA
ATOM      8  N   UNL     1       3.629  -5.266  25.442  0.00  0.00    -0.216 NA
ATOM      9  C   UNL     1       7.160  -5.103  25.323  0.00  0.00    +0.116 A 
ENDROOT
BRANCH   4  10
ATOM     10  N   UNL     1       5.424  -7.400  28.598  0.00  0.00    -0.341 N 
ATOM     11  H   UNL     1       5.432  -6.838  29.436  0.00  0.00    +0.144 HD
ATOM     12  H   UNL     1       5.157  -8.375  28.665  0.00  0.00    +0.144 HD
ENDBRANCH   4  10
BRANCH   1  13
ATOM     13  C   UNL     1       5.624  -3.502  24.063  0.00  0.00    +0.125 C 
BRANCH  13  14
ATOM     14  C   UNL     1       5.288  -3.794  22.603  0.00  0.00    +0.021 C 
BRANCH  14  16
ATOM     15  C   UNL     1       6.585  -5.607  21.470  0.00  0.00    +0.004 C 
ATOM     16  C   UNL     1       6.507  -4.115  21.747  0.00  0.00    -0.002 C 
ENDBRANCH  14  16
ENDBRANCH  13  14
ENDBRANCH   1  13
BRANCH   9  17
ATOM     17  C   UNL     1       8.484  -4.661  24.769  0.00  0.00    +0.109 C 
BRANCH  17  18
ATOM     18  C   UNL     1       8.891  -3.213  25.008  0.00  0.00    -0.036 A 
ATOM     19  C   UNL     1       8.487  -2.444  26.126  0.00  0.00    +0.008 A 
ATOM     20  C   UNL     1       8.777  -1.071  26.214  0.00  0.00    +0.050 A 
ATOM     21  C   UNL     1       9.436  -0.487  25.157  0.00  0.00    +0.166 A 
ATOM     22  O   UNL     1       9.690   0.841  24.999  0.00  0.00    -0.453 OA
ATOM     23  C   UNL     1      10.122   0.853  23.622  0.00  0.00    +0.466 C 
ATOM     24  O   UNL     1      10.471  -0.458  23.134  0.00  0.00    -0.453 OA
ATOM     25  C   UNL     1       9.878  -1.229  24.088  0.00  0.00    +0.166 A 
ATOM     26  C   UNL     1       9.659  -2.587  24.004  0.00  0.00    +0.053 A 
ENDBRANCH  17  18
ENDBRANCH   9  17
TORSDOF 6
ENDMDL
MODEL 5
REMARK VINA RESULT:      -6.4      1.875      2.881
REMARK  Name = 
REMARK  7 active torsions:
REMARK  status: ('A' for Active; 'I' for Inactive)
REMARK    1  A    between atoms: C_1  and  C_2
REMARK    2  A    between atoms: C_2  and  C_3
REMARK    3  A    between atoms: C_3  and  C_4
REMARK    4  A    between atoms: C_4  and  N_5
REMARK    5  A    between atoms: C_6  and  C_7
REMARK    6  A    between atoms: C_7  and  C_8
REMARK    7  A    between atoms: C_19  and  N_20
REMARK                            x       y       z     vdW  Elec       q    Type
REMARK                         _______ _______ _______ _____ _____    ______ ____
ROOT
ATOM      1  N   UNL     1       7.356  -3.724  25.145  0.00  0.00    -0.312 N 
ATOM      2  C   UNL     1       6.279  -4.475  24.734  0.00  0.00    +0.166 A 
ATOM      3  C   UNL     1       6.689  -5.072  23.556  0.00  0.00    +0.148 A 
ATOM      4  C   UNL     1       5.826  -6.037  23.007  0.00  0.00    +0.147 A 
ATOM      5  N   UNL     1       4.624  -6.239  23.595  0.00  0.00    -0.219 NA
ATOM      6  C   UNL     1       4.337  -5.545  24.717  0.00  0.00    +0.225 A 
ATOM      7  N   UNL     1       7.922  -4.586  23.176  0.00  0.00    -0.227 NA
ATOM      8  N   UNL     1       5.113  -4.666  25.376  0.00  0.00    -0.216 NA
ATOM      9  C   UNL     1       8.288  -3.737  24.126  0.00  0.00    +0.116 A 
ENDROOT
BRANCH   4  10
ATOM     10  N   UNL     1       6.142  -6.811  21.901  0.00  0.00    -0.341 N 
ATOM     11  H   UNL     1       7.133  -6.980  21.812  0.00  0.00    +0.144 HD
ATOM     12  H   UNL     1       5.498  -7.573  21.727  0.00  0.00    +0.144 HD
ENDBRANCH   4  10
BRANCH   1  13
ATOM     13  C   UNL     1       7.493  -3.225  26.496  0.00  0.00    +0.125 C 
BRANCH  13  14
ATOM     14  C   UNL     1       7.331  -1.720  26.694  0.00  0.00    +0.021 C 
BRANCH  14  16
ATOM     15  C   UNL     1       6.082  -0.516  24.892  0.00  0.00    +0.004 C 
ATOM     16  C   UNL     1       5.974  -1.187  26.251  0.00  0.00    -0.002 C 
ENDBRANCH  14  16
ENDBRANCH  13  14
ENDBRANCH   1  13
BRANCH   9  17
ATOM     17  C   UNL     1       9.586  -2.980  24.134  0.00  0.00    +0.109 C 
BRANCH  17  18
ATOM     18  C   UNL     1       9.595  -1.605  23.479  0.00  0.00    -0.036 A 
ATOM     19  C   UNL     1       9.494  -1.384  22.084  0.00  0.00    +0.008 A 
ATOM     20  C   UNL     1       9.655  -0.102  21.532  0.00  0.00    +0.050 A 
ATOM     21  C   UNL     1       9.954   0.932  22.390  0.00  0.00    +0.166 A 
ATOM     22  O   UNL     1      10.271   2.208  22.037  0.00  0.00    -0.453 OA
ATOM     23  C   UNL     1      10.745   2.710  23.304  0.00  0.00    +0.466 C 
ATOM     24  O   UNL     1      10.354   1.879  24.416  0.00  0.00    -0.453 OA
ATOM     25  C   UNL     1      10.007   0.743  23.750  0.00  0.00    +0.166 A 
ATOM     26  C   UNL     1       9.794  -0.493  24.323  0.00  0.00    +0.053 A 
ENDBRANCH  17  18
ENDBRANCH   9  17
TORSDOF 6
ENDMDL
MODEL 6
REMARK VINA RESULT:      -6.2      3.864      6.559
REMARK  Name = 
REMARK  7 active torsions:
REMARK  status: ('A' for Active; 'I' for Inactive)
REMARK    1  A    between atoms: C_1  and  C_2
REMARK    2  A    between atoms: C_2  and  C_3
REMARK    3  A    between atoms: C_3  and  C_4
REMARK    4  A    between atoms: C_4  and  N_5
REMARK    5  A    between atoms: C_6  and  C_7
REMARK    6  A    between atoms: C_7  and  C_8
REMARK    7  A    between atoms: C_19  and  N_20
REMARK                            x       y       z     vdW  Elec       q    Type
REMARK                         _______ _______ _______ _____ _____    ______ ____
ROOT
ATOM      1  N   UNL     1       8.329  -0.471  24.821  0.00  0.00    -0.312 N 
ATOM      2  C   UNL     1       8.642   0.854  24.621  0.00  0.00    +0.166 A 
ATOM      3  C   UNL     1       9.382   0.874  23.454  0.00  0.00    +0.148 A 
ATOM      4  C   UNL     1       9.690   2.140  22.926  0.00  0.00    +0.147 A 
ATOM      5  N   UNL     1       9.343   3.239  23.636  0.00  0.00    -0.219 NA
ATOM      6  C   UNL     1       8.664   3.065  24.790  0.00  0.00    +0.225 A 
ATOM      7  N   UNL     1       9.646  -0.412  23.030  0.00  0.00    -0.227 NA
ATOM      8  N   UNL     1       8.242   1.914  25.345  0.00  0.00    -0.216 NA
ATOM      9  C   UNL     1       9.039  -1.212  23.896  0.00  0.00    +0.116 A 
ENDROOT
BRANCH   4  10
ATOM     10  N   UNL     1      10.319   2.333  21.706  0.00  0.00    -0.341 N 
ATOM     11  H   UNL     1       9.688   2.654  20.986  0.00  0.00    +0.144 HD
ATOM     12  H   UNL     1      11.239   2.753  21.771  0.00  0.00    +0.144 HD
ENDBRANCH   4  10
BRANCH   1  13
ATOM     13  C   UNL     1       7.278  -0.901  25.717  0.00  0.00    +0.125 C 
BRANCH  13  14
ATOM     14  C   UNL     1       5.852  -0.858  25.176  0.00  0.00    +0.021 C 
BRANCH  14  16
ATOM     15  C   UNL     1       5.701  -2.840  26.694  0.00  0.00    +0.004 C 
ATOM     16  C   UNL     1       4.996  -2.042  25.610  0.00  0.00    -0.002 C 
ENDBRANCH  14  16
ENDBRANCH  13  14
ENDBRANCH   1  13
BRANCH   9  17
ATOM     17  C   UNL     1       9.044  -2.712  23.813  0.00  0.00    +0.109 C 
BRANCH  17  18
ATOM     18  C   UNL     1       7.779  -3.386  23.298  0.00  0.00    -0.036 A 
ATOM     19  C   UNL     1       6.954  -2.861  22.275  0.00  0.00    +0.008 A 
ATOM     20  C   UNL     1       5.724  -3.457  21.947  0.00  0.00    +0.050 A 
ATOM     21  C   UNL     1       5.327  -4.551  22.683  0.00  0.00    +0.166 A 
ATOM     22  O   UNL     1       4.123  -5.181  22.604  0.00  0.00    -0.453 OA
ATOM     23  C   UNL     1       4.201  -6.020  23.776  0.00  0.00    +0.466 C 
ATOM     24  O   UNL     1       5.545  -6.150  24.283  0.00  0.00    -0.453 OA
ATOM     25  C   UNL     1       6.137  -5.101  23.646  0.00  0.00    +0.166 A 
ATOM     26  C   UNL     1       7.374  -4.572  23.946  0.00  0.00    +0.053 A 
ENDBRANCH  17  18
ENDBRANCH   9  17
TORSDOF 6
ENDMDL
MODEL 7
REMARK VINA RESULT:      -6.2      1.965      2.677
REMARK  Name = 
REMARK  7 active torsions:
REMARK  status: ('A' for Active; 'I' for Inactive)
REMARK    1  A    between atoms: C_1  and  C_2
REMARK    2  A    between atoms: C_2  and  C_3
REMARK    3  A    between atoms: C_3  and  C_4
REMARK    4  A    between atoms: C_4  and  N_5
REMARK    5  A    between atoms: C_6  and  C_7
REMARK    6  A    between atoms: C_7  and  C_8
REMARK    7  A    between atoms: C_19  and  N_20
REMARK                            x       y       z     vdW  Elec       q    Type
REMARK                         _______ _______ _______ _____ _____    ______ ____
ROOT
ATOM      1  N   UNL     1       6.932  -3.170  24.587  0.00  0.00    -0.312 N 
ATOM      2  C   UNL     1       5.865  -3.816  24.006  0.00  0.00    +0.166 A 
ATOM      3  C   UNL     1       6.407  -4.518  22.945  0.00  0.00    +0.148 A 
ATOM      4  C   UNL     1       5.548  -5.407  22.276  0.00  0.00    +0.147 A 
ATOM      5  N   UNL     1       4.244  -5.440  22.635  0.00  0.00    -0.219 NA
ATOM      6  C   UNL     1       3.843  -4.659  23.659  0.00  0.00    +0.225 A 
ATOM      7  N   UNL     1       7.738  -4.196  22.787  0.00  0.00    -0.227 NA
ATOM      8  N   UNL     1       4.587  -3.839  24.424  0.00  0.00    -0.216 NA
ATOM      9  C   UNL     1       8.026  -3.344  23.762  0.00  0.00    +0.116 A 
ENDROOT
BRANCH   4  10
ATOM     10  N   UNL     1       5.964  -6.270  21.273  0.00  0.00    -0.341 N 
ATOM     11  H   UNL     1       6.374  -7.120  21.633  0.00  0.00    +0.144 HD
ATOM     12  H   UNL     1       5.332  -6.329  20.484  0.00  0.00    +0.144 HD
ENDBRANCH   4  10
BRANCH   1  13
ATOM     13  C   UNL     1       6.880  -2.618  25.923  0.00  0.00    +0.125 C 
BRANCH  13  14
ATOM     14  C   UNL     1       6.754  -1.102  26.037  0.00  0.00    +0.021 C 
BRANCH  14  16
ATOM     15  C   UNL     1       6.071   1.046  24.951  0.00  0.00    +0.004 C 
ATOM     16  C   UNL     1       5.953  -0.468  24.904  0.00  0.00    -0.002 C 
ENDBRANCH  14  16
ENDBRANCH  13  14
ENDBRANCH   1  13
BRANCH   9  17
ATOM     17  C   UNL     1       9.382  -2.739  23.988  0.00  0.00    +0.109 C 
BRANCH  17  18
ATOM     18  C   UNL     1       9.520  -1.237  23.774  0.00  0.00    -0.036 A 
ATOM     19  C   UNL     1      10.148  -0.356  24.686  0.00  0.00    +0.008 A 
ATOM     20  C   UNL     1      10.115   1.037  24.500  0.00  0.00    +0.050 A 
ATOM     21  C   UNL     1       9.415   1.522  23.418  0.00  0.00    +0.166 A 
ATOM     22  O   UNL     1       9.160   2.830  23.142  0.00  0.00    -0.453 OA
ATOM     23  C   UNL     1       8.181   2.681  22.092  0.00  0.00    +0.466 C 
ATOM     24  O   UNL     1       8.165   1.354  21.528  0.00  0.00    -0.453 OA
ATOM     25  C   UNL     1       8.842   0.678  22.498  0.00  0.00    +0.166 A 
ATOM     26  C   UNL     1       8.911  -0.693  22.625  0.00  0.00    +0.053 A 
ENDBRANCH  17  18
ENDBRANCH   9  17
TORSDOF 6
ENDMDL
MODEL 8
REMARK VINA RESULT:      -6.1      2.020      2.952
REMARK  Name = 
REMARK  7 active torsions:
REMARK  status: ('A' for Active; 'I' for Inactive)
REMARK    1  A    between atoms: C_1  and  C_2
REMARK    2  A    between atoms: C_2  and  C_3
REMARK    3  A    between atoms: C_3  and  C_4
REMARK    4  A    between atoms: C_4  and  N_5
REMARK    5  A    between atoms: C_6  and  C_7
REMARK    6  A    between atoms: C_7  and  C_8
REMARK    7  A    between atoms: C_19  and  N_20
REMARK                            x       y       z     vdW  Elec       q    Type
REMARK                         _______ _______ _______ _____ _____    ______ ____
ROOT
ATOM      1  N   UNL     1       6.932  -2.870  24.266  0.00  0.00    -0.312 N 
ATOM      2  C   UNL     1       5.865  -3.581  23.766  0.00  0.00    +0.166 A 
ATOM      3  C   UNL     1       6.412  -4.430  22.823  0.00  0.00    +0.148 A 
ATOM      4  C   UNL     1       5.552  -5.396  22.272  0.00  0.00    +0.147 A 
ATOM      5  N   UNL     1       4.243  -5.366  22.613  0.00  0.00    -0.219 NA
ATOM      6  C   UNL     1       3.838  -4.445  23.512  0.00  0.00    +0.225 A 
ATOM      7  N   UNL     1       7.749  -4.146  22.640  0.00  0.00    -0.227 NA
ATOM      8  N   UNL     1       4.582  -3.532  24.165  0.00  0.00    -0.216 NA
ATOM      9  C   UNL     1       8.034  -3.168  23.489  0.00  0.00    +0.116 A 
ENDROOT
BRANCH   4  10
ATOM     10  N   UNL     1       5.971  -6.396  21.407  0.00  0.00    -0.341 N 
ATOM     11  H   UNL     1       5.203  -6.859  20.942  0.00  0.00    +0.144 HD
ATOM     12  H   UNL     1       6.798  -6.164  20.871  0.00  0.00    +0.144 HD
ENDBRANCH   4  10
BRANCH   1  13
ATOM     13  C   UNL     1       6.869  -2.135  25.511  0.00  0.00    +0.125 C 
BRANCH  13  14
ATOM     14  C   UNL     1       7.489  -2.801  26.735  0.00  0.00    +0.021 C 
BRANCH  14  16
ATOM     15  C   UNL     1       7.940  -5.261  26.712  0.00  0.00    +0.004 C 
ATOM     16  C   UNL     1       6.920  -4.183  27.034  0.00  0.00    -0.002 C 
ENDBRANCH  14  16
ENDBRANCH  13  14
ENDBRANCH   1  13
BRANCH   9  17
ATOM     17  C   UNL     1       9.394  -2.551  23.648  0.00  0.00    +0.109 C 
BRANCH  17  18
ATOM     18  C   UNL     1       9.488  -1.034  23.544  0.00  0.00    -0.036 A 
ATOM     19  C   UNL     1      10.138  -0.207  24.491  0.00  0.00    +0.008 A 
ATOM     20  C   UNL     1      10.064   1.194  24.414  0.00  0.00    +0.050 A 
ATOM     21  C   UNL     1       9.302   1.740  23.405  0.00  0.00    +0.166 A 
ATOM     22  O   UNL     1       9.005   3.058  23.242  0.00  0.00    -0.453 OA
ATOM     23  C   UNL     1       7.981   2.963  22.230  0.00  0.00    +0.466 C 
ATOM     24  O   UNL     1       7.968   1.682  21.566  0.00  0.00    -0.453 OA
ATOM     25  C   UNL     1       8.705   0.953  22.450  0.00  0.00    +0.166 A 
ATOM     26  C   UNL     1       8.812  -0.421  22.468  0.00  0.00    +0.053 A 
ENDBRANCH  17  18
ENDBRANCH   9  17
TORSDOF 6
ENDMDL
MODEL 9
REMARK VINA RESULT:      -6.1      1.622      3.181
REMARK  Name = 
REMARK  7 active torsions:
REMARK  status: ('A' for Active; 'I' for Inactive)
REMARK    1  A    between atoms: C_1  and  C_2
REMARK    2  A    between atoms: C_2  and  C_3
REMARK    3  A    between atoms: C_3  and  C_4
REMARK    4  A    between atoms: C_4  and  N_5
REMARK    5  A    between atoms: C_6  and  C_7
REMARK    6  A    between atoms: C_7  and  C_8
REMARK    7  A    between atoms: C_19  and  N_20
REMARK                            x       y       z     vdW  Elec       q    Type
REMARK                         _______ _______ _______ _____ _____    ______ ____
ROOT
ATOM      1  N   UNL     1       9.407  -2.028  24.729  0.00  0.00    -0.312 N 
ATOM      2  C   UNL     1       9.081  -3.321  25.069  0.00  0.00    +0.166 A 
ATOM      3  C   UNL     1       8.197  -3.201  26.124  0.00  0.00    +0.148 A 
ATOM      4  C   UNL     1       7.572  -4.384  26.558  0.00  0.00    +0.147 A 
ATOM      5  N   UNL     1       7.949  -5.558  25.999  0.00  0.00    -0.219 NA
ATOM      6  C   UNL     1       8.866  -5.528  25.008  0.00  0.00    +0.225 A 
ATOM      7  N   UNL     1       8.097  -1.884  26.520  0.00  0.00    -0.227 NA
ATOM      8  N   UNL     1       9.463  -4.456  24.456  0.00  0.00    -0.216 NA
ATOM      9  C   UNL     1       8.872  -1.196  25.693  0.00  0.00    +0.116 A 
ENDROOT
BRANCH   4  10
ATOM     10  N   UNL     1       6.574  -4.419  27.520  0.00  0.00    -0.341 N 
ATOM     11  H   UNL     1       6.289  -5.359  27.754  0.00  0.00    +0.144 HD
ATOM     12  H   UNL     1       6.690  -3.744  28.266  0.00  0.00    +0.144 HD
ENDBRANCH   4  10
BRANCH   1  13
ATOM     13  C   UNL     1      10.016  -1.680  23.464  0.00  0.00    +0.125 C 
BRANCH  13  14
ATOM     14  C   UNL     1       9.114  -1.711  22.234  0.00  0.00    +0.021 C 
BRANCH  14  16
ATOM     15  C   UNL     1      10.077   0.590  22.051  0.00  0.00    +0.004 C 
ATOM     16  C   UNL     1       9.214  -0.459  21.371  0.00  0.00    -0.002 C 
ENDBRANCH  14  16
ENDBRANCH  13  14
ENDBRANCH   1  13
BRANCH   9  17
ATOM     17  C   UNL     1       9.054   0.295  25.744  0.00  0.00    +0.109 C 
BRANCH  17  18
ATOM     18  C   UNL     1       8.118   1.141  24.890  0.00  0.00    -0.036 A 
ATOM     19  C   UNL     1       6.989   0.635  24.202  0.00  0.00    +0.008 A 
ATOM     20  C   UNL     1       6.251   1.438  23.316  0.00  0.00    +0.050 A 
ATOM     21  C   UNL     1       6.686   2.727  23.107  0.00  0.00    +0.166 A 
ATOM     22  O   UNL     1       6.188   3.610  22.198  0.00  0.00    -0.453 OA
ATOM     23  C   UNL     1       7.205   4.632  22.254  0.00  0.00    +0.466 C 
ATOM     24  O   UNL     1       8.043   4.522  23.423  0.00  0.00    -0.453 OA
ATOM     25  C   UNL     1       7.750   3.248  23.803  0.00  0.00    +0.166 A 
ATOM     26  C   UNL     1       8.454   2.500  24.723  0.00  0.00    +0.053 A 
ENDBRANCH  17  18
ENDBRANCH   9  17
TORSDOF 6
ENDMDL
