MODEL 1
REMARK VINA RESULT:      -8.3      0.000      0.000
REMARK  Name = 
REMARK  4 active torsions:
REMARK  status: ('A' for Active; 'I' for Inactive)
REMARK    1  A    between atoms: C_7  and  C_11
REMARK    2  A    between atoms: N_13  and  C_14
REMARK    3  A    between atoms: N_23  and  C_24
REMARK    4  A    between atoms: C_24  and  C_25
REMARK                            x       y       z     vdW  Elec       q    Type
REMARK                         _______ _______ _______ _____ _____    ______ ____
ROOT
ATOM      1  C   UNL     1       8.009  -1.507  23.549  0.00  0.00    +0.164 C 
ATOM      2  C   UNL     1       9.086  -2.497  23.995  0.00  0.00    +0.241 C 
ATOM      3  O   UNL     1      10.199  -2.132  24.388  0.00  0.00    -0.273 OA
ATOM      4  N   UNL     1       8.664  -3.821  24.065  0.00  0.00    -0.261 N 
ATOM      5  C   UNL     1       7.707  -4.336  23.140  0.00  0.00    +0.040 A 
ATOM      6  C   UNL     1       7.438  -5.709  23.034  0.00  0.00    +0.024 A 
ATOM      7  C   UNL     1       6.583  -6.202  22.043  0.00  0.00    +0.002 A 
ATOM      8  C   UNL     1       5.972  -5.330  21.150  0.00  0.00    +0.000 A 
ATOM      9  C   UNL     1       6.206  -3.963  21.257  0.00  0.00    +0.005 A 
ATOM     10  C   UNL     1       7.068  -3.458  22.247  0.00  0.00    -0.024 A 
ATOM     11  C   UNL     1       7.326  -1.975  22.274  0.00  0.00    +0.068 C 
ENDROOT
BRANCH   1  13
ATOM     12  C   UNL     1       8.370   0.795  24.386  0.00  0.00    +0.263 C 
ATOM     13  N   UNL     1       8.558  -0.159  23.426  0.00  0.00    -0.298 N 
ATOM     14  H   UNL     1       9.206   0.045  22.666  0.00  0.00    +0.150 HD
ATOM     15  O   UNL     1       7.679   0.641  25.386  0.00  0.00    -0.269 OA
BRANCH  12  21
ATOM     16  C   UNL     1      11.371   5.746  23.442  0.00  0.00    +0.167 C 
ATOM     17  C   UNL     1      11.690   4.287  23.287  0.00  0.00    +0.014 C 
ATOM     18  C   UNL     1      10.688   3.463  23.580  0.00  0.00    +0.007 C 
ATOM     19  C   UNL     1       9.457   4.147  23.956  0.00  0.00    +0.106 C 
ATOM     20  N   UNL     1       8.490   3.339  24.270  0.00  0.00    -0.235 NA
ATOM     21  C   UNL     1       9.086   2.075  24.103  0.00  0.00    +0.127 C 
ATOM     22  C   UNL     1      10.373   2.084  23.685  0.00  0.00    +0.043 C 
ATOM     23  S   UNL     1       9.586   5.850  23.878  0.00  0.00    -0.082 S 
ATOM     24 CL   UNL     1      12.358   6.421  24.754  0.00  0.00    -0.105 Cl
ENDBRANCH  12  21
ENDBRANCH   1  13
BRANCH   4  25
ATOM     25  C   UNL     1       9.289  -4.676  25.073  0.00  0.00    +0.209 C 
BRANCH  25  26
ATOM     26  C   UNL     1       8.587  -4.687  26.424  0.00  0.00    +0.228 C 
ATOM     27  O   UNL     1       8.421  -3.678  27.103  0.00  0.00    -0.274 OA
ATOM     28  N   UNL     1       8.213  -5.918  26.879  0.00  0.00    -0.328 N 
ATOM     29  H   UNL     1       7.721  -5.983  27.758  0.00  0.00    +0.145 HD
ATOM     30  H   UNL     1       8.217  -6.725  26.255  0.00  0.00    +0.145 HD
ENDBRANCH  25  26
ENDBRANCH   4  25
TORSDOF 4
ENDMDL
MODEL 2
REMARK VINA RESULT:      -7.4      2.096      2.144
REMARK  Name = 
REMARK  4 active torsions:
REMARK  status: ('A' for Active; 'I' for Inactive)
REMARK    1  A    between atoms: C_7  and  C_11
REMARK    2  A    between atoms: N_13  and  C_14
REMARK    3  A    between atoms: N_23  and  C_24
REMARK    4  A    between atoms: C_24  and  C_25
REMARK                            x       y       z     vdW  Elec       q    Type
REMARK                         _______ _______ _______ _____ _____    ______ ____
ROOT
ATOM      1  C   UNL     1       7.125  -1.674  24.924  0.00  0.00    +0.164 C 
ATOM      2  C   UNL     1       7.799  -2.759  24.084  0.00  0.00    +0.241 C 
ATOM      3  O   UNL     1       8.812  -2.540  23.411  0.00  0.00    -0.273 OA
ATOM      4  N   UNL     1       7.276  -4.036  24.255  0.00  0.00    -0.261 N 
ATOM      5  C   UNL     1       5.883  -4.231  24.499  0.00  0.00    +0.040 A 
ATOM      6  C   UNL     1       5.287  -5.500  24.442  0.00  0.00    +0.024 A 
ATOM      7  C   UNL     1       3.903  -5.653  24.569  0.00  0.00    +0.002 A 
ATOM      8  C   UNL     1       3.092  -4.542  24.768  0.00  0.00    +0.000 A 
ATOM      9  C   UNL     1       3.667  -3.279  24.853  0.00  0.00    +0.005 A 
ATOM     10  C   UNL     1       5.058  -3.114  24.721  0.00  0.00    -0.024 A 
ATOM     11  C   UNL     1       5.613  -1.715  24.765  0.00  0.00    +0.068 C 
ENDROOT
BRANCH   1  13
ATOM     12  C   UNL     1       8.737   0.164  25.317  0.00  0.00    +0.263 C 
ATOM     13  N   UNL     1       7.682  -0.357  24.624  0.00  0.00    -0.298 N 
ATOM     14  H   UNL     1       7.361   0.137  23.792  0.00  0.00    +0.150 HD
ATOM     15  O   UNL     1       9.261  -0.377  26.284  0.00  0.00    -0.269 OA
BRANCH  12  21
ATOM     16  C   UNL     1      10.793   5.306  23.383  0.00  0.00    +0.167 C 
ATOM     17  C   UNL     1      11.265   3.884  23.271  0.00  0.00    +0.014 C 
ATOM     18  C   UNL     1      10.464   2.985  23.834  0.00  0.00    +0.007 C 
ATOM     19  C   UNL     1       9.257   3.558  24.416  0.00  0.00    +0.106 C 
ATOM     20  N   UNL     1       8.491   2.680  24.991  0.00  0.00    -0.235 NA
ATOM     21  C   UNL     1       9.203   1.482  24.792  0.00  0.00    +0.127 C 
ATOM     22  C   UNL     1      10.364   1.597  24.106  0.00  0.00    +0.043 C 
ATOM     23  S   UNL     1       9.139   5.247  24.186  0.00  0.00    -0.082 S 
ATOM     24 CL   UNL     1      11.931   6.217  24.396  0.00  0.00    -0.105 Cl
ENDBRANCH  12  21
ENDBRANCH   1  13
BRANCH   4  25
ATOM     25  C   UNL     1       8.190  -5.166  24.107  0.00  0.00    +0.209 C 
BRANCH  25  26
ATOM     26  C   UNL     1       9.155  -5.363  25.269  0.00  0.00    +0.228 C 
ATOM     27  O   UNL     1      10.365  -5.180  25.175  0.00  0.00    -0.274 OA
ATOM     28  N   UNL     1       8.596  -5.837  26.420  0.00  0.00    -0.328 N 
ATOM     29  H   UNL     1       9.185  -5.963  27.231  0.00  0.00    +0.145 HD
ATOM     30  H   UNL     1       7.583  -5.846  26.539  0.00  0.00    +0.145 HD
ENDBRANCH  25  26
ENDBRANCH   4  25
TORSDOF 4
ENDMDL
MODEL 3
REMARK VINA RESULT:      -7.3      4.084      9.005
REMARK  Name = 
REMARK  4 active torsions:
REMARK  status: ('A' for Active; 'I' for Inactive)
REMARK    1  A    between atoms: C_7  and  C_11
REMARK    2  A    between atoms: N_13  and  C_14
REMARK    3  A    between atoms: N_23  and  C_24
REMARK    4  A    between atoms: C_24  and  C_25
REMARK                            x       y       z     vdW  Elec       q    Type
REMARK                         _______ _______ _______ _____ _____    ______ ____
ROOT
ATOM      1  C   UNL     1       8.739   1.633  24.070  0.00  0.00    +0.164 C 
ATOM      2  C   UNL     1       7.771   2.691  23.541  0.00  0.00    +0.241 C 
ATOM      3  O   UNL     1       6.657   2.403  23.090  0.00  0.00    -0.273 OA
ATOM      4  N   UNL     1       8.178   4.006  23.744  0.00  0.00    -0.261 N 
ATOM      5  C   UNL     1       9.559   4.362  23.692  0.00  0.00    +0.040 A 
ATOM      6  C   UNL     1       9.983   5.699  23.659  0.00  0.00    +0.024 A 
ATOM      7  C   UNL     1      11.333   6.024  23.490  0.00  0.00    +0.002 A 
ATOM      8  C   UNL     1      12.284   5.018  23.365  0.00  0.00    +0.000 A 
ATOM      9  C   UNL     1      11.885   3.687  23.423  0.00  0.00    +0.005 A 
ATOM     10  C   UNL     1      10.530   3.350  23.587  0.00  0.00    -0.024 A 
ATOM     11  C   UNL     1      10.156   1.891  23.582  0.00  0.00    +0.068 C 
ENDROOT
BRANCH   1  13
ATOM     12  C   UNL     1       8.510  -0.784  24.557  0.00  0.00    +0.263 C 
ATOM     13  N   UNL     1       8.273   0.288  23.744  0.00  0.00    -0.298 N 
ATOM     14  H   UNL     1       7.643   0.161  22.952  0.00  0.00    +0.150 HD
ATOM     15  O   UNL     1       9.183  -0.737  25.580  0.00  0.00    -0.269 OA
BRANCH  12  21
ATOM     16  C   UNL     1       6.165  -5.741  22.475  0.00  0.00    +0.167 C 
ATOM     17  C   UNL     1       7.556  -5.326  22.860  0.00  0.00    +0.014 C 
ATOM     18  C   UNL     1       7.657  -4.090  23.339  0.00  0.00    +0.007 C 
ATOM     19  C   UNL     1       6.380  -3.393  23.434  0.00  0.00    +0.106 C 
ATOM     20  N   UNL     1       6.486  -2.175  23.874  0.00  0.00    -0.235 NA
ATOM     21  C   UNL     1       7.873  -2.047  24.080  0.00  0.00    +0.127 C 
ATOM     22  C   UNL     1       8.611  -3.145  23.795  0.00  0.00    +0.043 C 
ATOM     23  S   UNL     1       5.053  -4.356  22.954  0.00  0.00    -0.082 S 
ATOM     24 CL   UNL     1       6.100  -5.995  20.719  0.00  0.00    -0.105 Cl
ENDBRANCH  12  21
ENDBRANCH   1  13
BRANCH   4  25
ATOM     25  C   UNL     1       7.137   5.013  23.943  0.00  0.00    +0.209 C 
BRANCH  25  26
ATOM     26  C   UNL     1       6.507   5.540  22.661  0.00  0.00    +0.228 C 
ATOM     27  O   UNL     1       7.068   6.340  21.917  0.00  0.00    -0.274 OA
ATOM     28  N   UNL     1       5.230   5.125  22.422  0.00  0.00    -0.328 N 
ATOM     29  H   UNL     1       4.771   5.424  21.573  0.00  0.00    +0.145 HD
ATOM     30  H   UNL     1       4.826   4.354  22.955  0.00  0.00    +0.145 HD
ENDBRANCH  25  26
ENDBRANCH   4  25
TORSDOF 4
ENDMDL
MODEL 4
REMARK VINA RESULT:      -7.2      1.973      3.063
REMARK  Name = 
REMARK  4 active torsions:
REMARK  status: ('A' for Active; 'I' for Inactive)
REMARK    1  A    between atoms: C_7  and  C_11
REMARK    2  A    between atoms: N_13  and  C_14
REMARK    3  A    between atoms: N_23  and  C_24
REMARK    4  A    between atoms: C_24  and  C_25
REMARK                            x       y       z     vdW  Elec       q    Type
REMARK                         _______ _______ _______ _____ _____    ______ ____
ROOT
ATOM      1  C   UNL     1       8.954  -1.924  24.393  0.00  0.00    +0.164 C 
ATOM      2  C   UNL     1       8.184  -2.508  23.208  0.00  0.00    +0.241 C 
ATOM      3  O   UNL     1       8.134  -1.945  22.109  0.00  0.00    -0.273 OA
ATOM      4  N   UNL     1       7.675  -3.785  23.419  0.00  0.00    -0.261 N 
ATOM      5  C   UNL     1       7.208  -4.185  24.707  0.00  0.00    +0.040 A 
ATOM      6  C   UNL     1       6.480  -5.369  24.900  0.00  0.00    +0.024 A 
ATOM      7  C   UNL     1       5.932  -5.683  26.148  0.00  0.00    +0.002 A 
ATOM      8  C   UNL     1       6.115  -4.826  27.227  0.00  0.00    +0.000 A 
ATOM      9  C   UNL     1       6.857  -3.662  27.061  0.00  0.00    +0.005 A 
ATOM     10  C   UNL     1       7.407  -3.334  25.808  0.00  0.00    -0.024 A 
ATOM     11  C   UNL     1       8.149  -2.031  25.679  0.00  0.00    +0.068 C 
ENDROOT
BRANCH   1  13
ATOM     12  C   UNL     1       8.571   0.522  24.331  0.00  0.00    +0.263 C 
ATOM     13  N   UNL     1       9.383  -0.555  24.115  0.00  0.00    -0.298 N 
ATOM     14  H   UNL     1      10.358  -0.382  23.872  0.00  0.00    +0.150 HD
ATOM     15  O   UNL     1       7.406   0.443  24.702  0.00  0.00    -0.269 OA
BRANCH  12  21
ATOM     16  C   UNL     1      11.364   5.603  23.447  0.00  0.00    +0.167 C 
ATOM     17  C   UNL     1      11.749   4.160  23.292  0.00  0.00    +0.014 C 
ATOM     18  C   UNL     1      10.781   3.291  23.568  0.00  0.00    +0.007 C 
ATOM     19  C   UNL     1       9.516   3.919  23.928  0.00  0.00    +0.106 C 
ATOM     20  N   UNL     1       8.581   3.068  24.226  0.00  0.00    -0.235 NA
ATOM     21  C   UNL     1       9.234   1.832  24.063  0.00  0.00    +0.127 C 
ATOM     22  C   UNL     1      10.526   1.900  23.664  0.00  0.00    +0.043 C 
ATOM     23  S   UNL     1       9.571   5.626  23.858  0.00  0.00    -0.082 S 
ATOM     24 CL   UNL     1      12.303   6.315  24.776  0.00  0.00    -0.105 Cl
ENDBRANCH  12  21
ENDBRANCH   1  13
BRANCH   4  25
ATOM     25  C   UNL     1       7.573  -4.671  22.260  0.00  0.00    +0.209 C 
BRANCH  25  26
ATOM     26  C   UNL     1       6.172  -4.796  21.674  0.00  0.00    +0.228 C 
ATOM     27  O   UNL     1       5.430  -3.834  21.498  0.00  0.00    -0.274 OA
ATOM     28  N   UNL     1       5.755  -6.071  21.425  0.00  0.00    -0.328 N 
ATOM     29  H   UNL     1       4.843  -6.212  21.013  0.00  0.00    +0.145 HD
ATOM     30  H   UNL     1       6.418  -6.845  21.432  0.00  0.00    +0.145 HD
ENDBRANCH  25  26
ENDBRANCH   4  25
TORSDOF 4
ENDMDL
MODEL 5
REMARK VINA RESULT:      -7.1      2.648      3.870
REMARK  Name = 
REMARK  4 active torsions:
REMARK  status: ('A' for Active; 'I' for Inactive)
REMARK    1  A    between atoms: C_7  and  C_11
REMARK    2  A    between atoms: N_13  and  C_14
REMARK    3  A    between atoms: N_23  and  C_24
REMARK    4  A    between atoms: C_24  and  C_25
REMARK                            x       y       z     vdW  Elec       q    Type
REMARK                         _______ _______ _______ _____ _____    ______ ____
ROOT
ATOM      1  C   UNL     1       7.517  -2.623  24.929  0.00  0.00    +0.164 C 
ATOM      2  C   UNL     1       6.333  -2.851  23.989  0.00  0.00    +0.241 C 
ATOM      3  O   UNL     1       5.962  -1.999  23.174  0.00  0.00    -0.273 OA
ATOM      4  N   UNL     1       5.808  -4.138  24.018  0.00  0.00    -0.261 N 
ATOM      5  C   UNL     1       5.778  -4.891  25.230  0.00  0.00    +0.040 A 
ATOM      6  C   UNL     1       5.051  -6.085  25.347  0.00  0.00    +0.024 A 
ATOM      7  C   UNL     1       4.940  -6.745  26.576  0.00  0.00    +0.002 A 
ATOM      8  C   UNL     1       5.566  -6.229  27.705  0.00  0.00    +0.000 A 
ATOM      9  C   UNL     1       6.313  -5.061  27.601  0.00  0.00    +0.005 A 
ATOM     10  C   UNL     1       6.425  -4.387  26.372  0.00  0.00    -0.024 A 
ATOM     11  C   UNL     1       7.199  -3.096  26.339  0.00  0.00    +0.068 C 
ENDROOT
BRANCH   1  13
ATOM     12  C   UNL     1       9.081  -0.834  24.231  0.00  0.00    +0.263 C 
ATOM     13  N   UNL     1       7.953  -1.229  24.893  0.00  0.00    -0.298 N 
ATOM     14  H   UNL     1       7.335  -0.508  25.263  0.00  0.00    +0.150 HD
ATOM     15  O   UNL     1       9.859  -1.601  23.677  0.00  0.00    -0.269 OA
BRANCH  12  21
ATOM     16  C   UNL     1       9.682   5.001  24.203  0.00  0.00    +0.167 C 
ATOM     17  C   UNL     1       8.722   4.054  24.864  0.00  0.00    +0.014 C 
ATOM     18  C   UNL     1       8.964   2.766  24.638  0.00  0.00    +0.007 C 
ATOM     19  C   UNL     1      10.148   2.527  23.822  0.00  0.00    +0.106 C 
ATOM     20  N   UNL     1      10.364   1.269  23.579  0.00  0.00    -0.235 NA
ATOM     21  C   UNL     1       9.296   0.644  24.248  0.00  0.00    +0.127 C 
ATOM     22  C   UNL     1       8.447   1.472  24.901  0.00  0.00    +0.043 C 
ATOM     23  S   UNL     1      10.969   3.964  23.395  0.00  0.00    -0.082 S 
ATOM     24 CL   UNL     1       8.812   5.952  22.983  0.00  0.00    -0.105 Cl
ENDBRANCH  12  21
ENDBRANCH   1  13
BRANCH   4  25
ATOM     25  C   UNL     1       5.227  -4.659  22.781  0.00  0.00    +0.209 C 
BRANCH  25  26
ATOM     26  C   UNL     1       6.235  -5.251  21.804  0.00  0.00    +0.228 C 
ATOM     27  O   UNL     1       6.034  -5.324  20.595  0.00  0.00    -0.274 OA
ATOM     28  N   UNL     1       7.360  -5.775  22.370  0.00  0.00    -0.328 N 
ATOM     29  H   UNL     1       8.074  -6.158  21.767  0.00  0.00    +0.145 HD
ATOM     30  H   UNL     1       7.589  -5.582  23.345  0.00  0.00    +0.145 HD
ENDBRANCH  25  26
ENDBRANCH   4  25
TORSDOF 4
ENDMDL
MODEL 6
REMARK VINA RESULT:      -6.9      4.137      8.863
REMARK  Name = 
REMARK  4 active torsions:
REMARK  status: ('A' for Active; 'I' for Inactive)
REMARK    1  A    between atoms: C_7  and  C_11
REMARK    2  A    between atoms: N_13  and  C_14
REMARK    3  A    between atoms: N_23  and  C_24
REMARK    4  A    between atoms: C_24  and  C_25
REMARK                            x       y       z     vdW  Elec       q    Type
REMARK                         _______ _______ _______ _____ _____    ______ ____
ROOT
ATOM      1  C   UNL     1       8.697   1.544  24.256  0.00  0.00    +0.164 C 
ATOM      2  C   UNL     1       7.672   2.673  24.141  0.00  0.00    +0.241 C 
ATOM      3  O   UNL     1       6.478   2.462  23.908  0.00  0.00    -0.273 OA
ATOM      4  N   UNL     1       8.159   3.935  24.467  0.00  0.00    -0.261 N 
ATOM      5  C   UNL     1       9.506   4.300  24.169  0.00  0.00    +0.040 A 
ATOM      6  C   UNL     1       9.957   5.626  24.267  0.00  0.00    +0.024 A 
ATOM      7  C   UNL     1      11.247   5.980  23.859  0.00  0.00    +0.002 A 
ATOM      8  C   UNL     1      12.113   5.015  23.359  0.00  0.00    +0.000 A 
ATOM      9  C   UNL     1      11.691   3.692  23.279  0.00  0.00    +0.005 A 
ATOM     10  C   UNL     1      10.394   3.326  23.681  0.00  0.00    -0.024 A 
ATOM     11  C   UNL     1       9.979   1.888  23.515  0.00  0.00    +0.068 C 
ENDROOT
BRANCH   1  13
ATOM     12  C   UNL     1       8.510  -0.923  24.356  0.00  0.00    +0.263 C 
ATOM     13  N   UNL     1       8.124   0.273  23.820  0.00  0.00    -0.298 N 
ATOM     14  H   UNL     1       7.324   0.281  23.189  0.00  0.00    +0.150 HD
ATOM     15  O   UNL     1       9.404  -1.051  25.184  0.00  0.00    -0.269 OA
BRANCH  12  21
ATOM     16  C   UNL     1       5.352  -5.512  22.518  0.00  0.00    +0.167 C 
ATOM     17  C   UNL     1       5.006  -4.133  23.002  0.00  0.00    +0.014 C 
ATOM     18  C   UNL     1       6.051  -3.364  23.292  0.00  0.00    +0.007 C 
ATOM     19  C   UNL     1       7.336  -4.004  23.041  0.00  0.00    +0.106 C 
ATOM     20  N   UNL     1       8.355  -3.262  23.354  0.00  0.00    -0.235 NA
ATOM     21  C   UNL     1       7.739  -2.089  23.831  0.00  0.00    +0.127 C 
ATOM     22  C   UNL     1       6.386  -2.086  23.805  0.00  0.00    +0.043 C 
ATOM     23  S   UNL     1       7.186  -5.575  22.383  0.00  0.00    -0.082 S 
ATOM     24 CL   UNL     1       4.788  -6.703  23.707  0.00  0.00    -0.105 Cl
ENDBRANCH  12  21
ENDBRANCH   1  13
BRANCH   4  25
ATOM     25  C   UNL     1       7.222   4.888  25.059  0.00  0.00    +0.209 C 
BRANCH  25  26
ATOM     26  C   UNL     1       7.188   4.886  26.582  0.00  0.00    +0.228 C 
ATOM     27  O   UNL     1       7.942   5.566  27.271  0.00  0.00    -0.274 OA
ATOM     28  N   UNL     1       6.306   4.011  27.146  0.00  0.00    -0.328 N 
ATOM     29  H   UNL     1       6.223   3.986  28.152  0.00  0.00    +0.145 HD
ATOM     30  H   UNL     1       5.586   3.563  26.580  0.00  0.00    +0.145 HD
ENDBRANCH  25  26
ENDBRANCH   4  25
TORSDOF 4
ENDMDL
MODEL 7
REMARK VINA RESULT:      -6.8      5.512      9.015
REMARK  Name = 
REMARK  4 active torsions:
REMARK  status: ('A' for Active; 'I' for Inactive)
REMARK    1  A    between atoms: C_7  and  C_11
REMARK    2  A    between atoms: N_13  and  C_14
REMARK    3  A    between atoms: N_23  and  C_24
REMARK    4  A    between atoms: C_24  and  C_25
REMARK                            x       y       z     vdW  Elec       q    Type
REMARK                         _______ _______ _______ _____ _____    ______ ____
ROOT
ATOM      1  C   UNL     1       6.695  -1.990  24.037  0.00  0.00    +0.164 C 
ATOM      2  C   UNL     1       6.173  -0.735  24.737  0.00  0.00    +0.241 C 
ATOM      3  O   UNL     1       5.047  -0.680  25.243  0.00  0.00    -0.273 OA
ATOM      4  N   UNL     1       7.112   0.279  24.890  0.00  0.00    -0.261 N 
ATOM      5  C   UNL     1       8.115   0.506  23.899  0.00  0.00    +0.040 A 
ATOM      6  C   UNL     1       8.922   1.654  23.905  0.00  0.00    +0.024 A 
ATOM      7  C   UNL     1       9.816   1.912  22.861  0.00  0.00    +0.002 A 
ATOM      8  C   UNL     1       9.929   1.021  21.801  0.00  0.00    +0.000 A 
ATOM      9  C   UNL     1       9.156  -0.136  21.792  0.00  0.00    +0.005 A 
ATOM     10  C   UNL     1       8.250  -0.402  22.833  0.00  0.00    -0.024 A 
ATOM     11  C   UNL     1       7.400  -1.641  22.735  0.00  0.00    +0.068 C 
ENDROOT
BRANCH   1  13
ATOM     12  C   UNL     1       5.799  -4.297  24.106  0.00  0.00    +0.263 C 
ATOM     13  N   UNL     1       5.626  -2.967  23.848  0.00  0.00    -0.298 N 
ATOM     14  H   UNL     1       4.685  -2.636  23.638  0.00  0.00    +0.150 HD
ATOM     15  O   UNL     1       6.864  -4.801  24.445  0.00  0.00    -0.269 OA
BRANCH  12  21
ATOM     16  C   UNL     1       1.061  -7.659  23.298  0.00  0.00    +0.167 C 
ATOM     17  C   UNL     1       2.368  -7.852  24.012  0.00  0.00    +0.014 C 
ATOM     18  C   UNL     1       3.177  -6.797  23.989  0.00  0.00    +0.007 C 
ATOM     19  C   UNL     1       2.612  -5.640  23.306  0.00  0.00    +0.106 C 
ATOM     20  N   UNL     1       3.417  -4.621  23.260  0.00  0.00    -0.235 NA
ATOM     21  C   UNL     1       4.556  -5.106  23.930  0.00  0.00    +0.127 C 
ATOM     22  C   UNL     1       4.469  -6.374  24.393  0.00  0.00    +0.043 C 
ATOM     23  S   UNL     1       1.020  -5.905  22.743  0.00  0.00    -0.082 S 
ATOM     24 CL   UNL     1       1.002  -8.744  21.893  0.00  0.00    -0.105 Cl
ENDBRANCH  12  21
ENDBRANCH   1  13
BRANCH   4  25
ATOM     25  C   UNL     1       6.990   1.142  26.063  0.00  0.00    +0.209 C 
BRANCH  25  26
ATOM     26  C   UNL     1       7.319   0.467  27.388  0.00  0.00    +0.228 C 
ATOM     27  O   UNL     1       6.592   0.533  28.374  0.00  0.00    -0.274 OA
ATOM     28  N   UNL     1       8.529  -0.161  27.439  0.00  0.00    -0.328 N 
ATOM     29  H   UNL     1       8.790  -0.647  28.286  0.00  0.00    +0.145 HD
ATOM     30  H   UNL     1       9.058  -0.339  26.586  0.00  0.00    +0.145 HD
ENDBRANCH  25  26
ENDBRANCH   4  25
TORSDOF 4
ENDMDL
MODEL 8
REMARK VINA RESULT:      -6.7      1.941      2.012
REMARK  Name = 
REMARK  4 active torsions:
REMARK  status: ('A' for Active; 'I' for Inactive)
REMARK    1  A    between atoms: C_7  and  C_11
REMARK    2  A    between atoms: N_13  and  C_14
REMARK    3  A    between atoms: N_23  and  C_24
REMARK    4  A    between atoms: C_24  and  C_25
REMARK                            x       y       z     vdW  Elec       q    Type
REMARK                         _______ _______ _______ _____ _____    ______ ____
ROOT
ATOM      1  C   UNL     1       6.740  -1.691  23.887  0.00  0.00    +0.164 C 
ATOM      2  C   UNL     1       8.004  -2.369  24.417  0.00  0.00    +0.241 C 
ATOM      3  O   UNL     1       8.902  -1.741  24.988  0.00  0.00    -0.273 OA
ATOM      4  N   UNL     1       7.995  -3.758  24.340  0.00  0.00    -0.261 N 
ATOM      5  C   UNL     1       7.351  -4.428  23.256  0.00  0.00    +0.040 A 
ATOM      6  C   UNL     1       7.522  -5.802  23.024  0.00  0.00    +0.024 A 
ATOM      7  C   UNL     1       6.977  -6.414  21.891  0.00  0.00    +0.002 A 
ATOM      8  C   UNL     1       6.241  -5.667  20.978  0.00  0.00    +0.000 A 
ATOM      9  C   UNL     1       6.039  -4.311  21.206  0.00  0.00    +0.005 A 
ATOM     10  C   UNL     1       6.588  -3.684  22.340  0.00  0.00    -0.024 A 
ATOM     11  C   UNL     1       6.383  -2.201  22.499  0.00  0.00    +0.068 C 
ENDROOT
BRANCH   1  13
ATOM     12  C   UNL     1       7.578   0.462  22.997  0.00  0.00    +0.263 C 
ATOM     13  N   UNL     1       6.868  -0.237  23.932  0.00  0.00    -0.298 N 
ATOM     14  H   UNL     1       6.310   0.288  24.604  0.00  0.00    +0.150 HD
ATOM     15  O   UNL     1       8.222  -0.056  22.091  0.00  0.00    -0.269 OA
BRANCH  12  21
ATOM     16  C   UNL     1       7.559   6.291  23.648  0.00  0.00    +0.167 C 
ATOM     17  C   UNL     1       7.869   5.370  22.503  0.00  0.00    +0.014 C 
ATOM     18  C   UNL     1       7.709   4.077  22.768  0.00  0.00    +0.007 C 
ATOM     19  C   UNL     1       7.220   3.812  24.115  0.00  0.00    +0.106 C 
ATOM     20  N   UNL     1       7.093   2.546  24.381  0.00  0.00    -0.235 NA
ATOM     21  C   UNL     1       7.509   1.942  23.180  0.00  0.00    +0.127 C 
ATOM     22  C   UNL     1       7.870   2.792  22.190  0.00  0.00    +0.043 C 
ATOM     23  S   UNL     1       6.921   5.235  25.013  0.00  0.00    -0.082 S 
ATOM     24 CL   UNL     1       9.051   7.108  24.156  0.00  0.00    -0.105 Cl
ENDBRANCH  12  21
ENDBRANCH   1  13
BRANCH   4  25
ATOM     25  C   UNL     1       8.725  -4.496  25.369  0.00  0.00    +0.209 C 
BRANCH  25  26
ATOM     26  C   UNL     1       7.947  -4.733  26.657  0.00  0.00    +0.228 C 
ATOM     27  O   UNL     1       7.381  -3.835  27.275  0.00  0.00    -0.274 OA
ATOM     28  N   UNL     1       7.980  -6.011  27.134  0.00  0.00    -0.328 N 
ATOM     29  H   UNL     1       7.461  -6.231  27.972  0.00  0.00    +0.145 HD
ATOM     30  H   UNL     1       8.320  -6.774  26.550  0.00  0.00    +0.145 HD
ENDBRANCH  25  26
ENDBRANCH   4  25
TORSDOF 4
ENDMDL
MODEL 9
REMARK VINA RESULT:      -6.4      5.249      8.713
REMARK  Name = 
REMARK  4 active torsions:
REMARK  status: ('A' for Active; 'I' for Inactive)
REMARK    1  A    between atoms: C_7  and  C_11
REMARK    2  A    between atoms: N_13  and  C_14
REMARK    3  A    between atoms: N_23  and  C_24
REMARK    4  A    between atoms: C_24  and  C_25
REMARK                            x       y       z     vdW  Elec       q    Type
REMARK                         _______ _______ _______ _____ _____    ______ ____
ROOT
ATOM      1  C   UNL     1       7.396   0.199  25.422  0.00  0.00    +0.164 C 
ATOM      2  C   UNL     1       8.810  -0.119  24.937  0.00  0.00    +0.241 C 
ATOM      3  O   UNL     1       9.347  -1.214  25.135  0.00  0.00    -0.273 OA
ATOM      4  N   UNL     1       9.383   0.860  24.131  0.00  0.00    -0.261 N 
ATOM      5  C   UNL     1       9.111   2.243  24.354  0.00  0.00    +0.040 A 
ATOM      6  C   UNL     1       9.845   3.257  23.720  0.00  0.00    +0.024 A 
ATOM      7  C   UNL     1       9.641   4.603  24.040  0.00  0.00    +0.002 A 
ATOM      8  C   UNL     1       8.689   4.960  24.988  0.00  0.00    +0.000 A 
ATOM      9  C   UNL     1       7.933   3.969  25.607  0.00  0.00    +0.005 A 
ATOM     10  C   UNL     1       8.136   2.613  25.296  0.00  0.00    -0.024 A 
ATOM     11  C   UNL     1       7.327   1.586  26.043  0.00  0.00    +0.068 C 
ENDROOT
BRANCH   1  13
ATOM     12  C   UNL     1       5.742  -1.519  26.090  0.00  0.00    +0.263 C 
ATOM     13  N   UNL     1       6.905  -0.841  26.323  0.00  0.00    -0.298 N 
ATOM     14  H   UNL     1       7.506  -1.163  27.081  0.00  0.00    +0.150 HD
ATOM     15  O   UNL     1       4.977  -1.277  25.164  0.00  0.00    -0.269 OA
BRANCH  12  21
ATOM     16  C   UNL     1       4.642  -5.922  29.805  0.00  0.00    +0.167 C 
ATOM     17  C   UNL     1       5.661  -5.698  28.725  0.00  0.00    +0.014 C 
ATOM     18  C   UNL     1       5.589  -4.512  28.128  0.00  0.00    +0.007 C 
ATOM     19  C   UNL     1       4.554  -3.643  28.674  0.00  0.00    +0.106 C 
ATOM     20  N   UNL     1       4.467  -2.497  28.068  0.00  0.00    -0.235 NA
ATOM     21  C   UNL     1       5.471  -2.597  27.086  0.00  0.00    +0.127 C 
ATOM     22  C   UNL     1       6.173  -3.754  27.082  0.00  0.00    +0.043 C 
ATOM     23  S   UNL     1       3.715  -4.343  29.988  0.00  0.00    -0.082 S 
ATOM     24 CL   UNL     1       3.540  -7.221  29.303  0.00  0.00    -0.105 Cl
ENDBRANCH  12  21
ENDBRANCH   1  13
BRANCH   4  25
ATOM     25  C   UNL     1      10.322   0.422  23.100  0.00  0.00    +0.209 C 
BRANCH  25  26
ATOM     26  C   UNL     1       9.679   0.038  21.774  0.00  0.00    +0.228 C 
ATOM     27  O   UNL     1       8.988   0.809  21.115  0.00  0.00    -0.274 OA
ATOM     28  N   UNL     1       9.856  -1.260  21.392  0.00  0.00    -0.328 N 
ATOM     29  H   UNL     1       9.473  -1.564  20.508  0.00  0.00    +0.145 HD
ATOM     30  H   UNL     1      10.545  -1.850  21.859  0.00  0.00    +0.145 HD
ENDBRANCH  25  26
ENDBRANCH   4  25
TORSDOF 4
ENDMDL
