MODEL 1
REMARK VINA RESULT:      -6.4      0.000      0.000
REMARK  Name = 
REMARK  9 active torsions:
REMARK  status: ('A' for Active; 'I' for Inactive)
REMARK    1  A    between atoms: C_1  and  C_2
REMARK    2  A    between atoms: C_2  and  O_4
REMARK    3  A    between atoms: C_2  and  C_5
REMARK    4  A    between atoms: C_5  and  N_7
REMARK    5  A    between atoms: C_5  and  C_8
REMARK    6  A    between atoms: C_11  and  C_12
REMARK    7  A    between atoms: C_15  and  O_16
REMARK    8  A    between atoms: N_21  and  C_22
REMARK    9  A    between atoms: C_22  and  C_23
REMARK                            x       y       z     vdW  Elec       q    Type
REMARK                         _______ _______ _______ _____ _____    ______ ____
ROOT
ATOM      1  C   UNL     1       6.703  -3.063  25.518  0.00  0.00    +0.317 C 
ATOM      2  N   UNL     1       7.059  -4.365  25.581  0.00  0.00    -0.145 N 
ATOM      3  C   UNL     1       8.360  -4.467  25.162  0.00  0.00    +0.379 C 
ATOM      4  O   UNL     1       9.071  -5.450  25.096  0.00  0.00    -0.237 OA
ATOM      5  C   UNL     1       8.680  -3.076  24.756  0.00  0.00    +0.263 C 
ATOM      6  C   UNL     1       9.760  -2.753  24.035  0.00  0.00    +0.071 C 
ATOM      7  N   UNL     1       7.626  -2.258  25.074  0.00  0.00    -0.037 NA
ENDROOT
BRANCH   6   8
ATOM      8  C   UNL     1       9.876  -1.449  23.375  0.00  0.00    -0.020 A 
ATOM      9  C   UNL     1       9.446  -1.334  22.044  0.00  0.00    +0.011 A 
ATOM     10  C   UNL     1       9.461  -0.097  21.399  0.00  0.00    +0.046 A 
ATOM     11  C   UNL     1       9.902   1.026  22.085  0.00  0.00    +0.117 A 
ATOM     12  C   UNL     1      10.354   0.929  23.399  0.00  0.00    +0.046 A 
ATOM     13  C   UNL     1      10.341  -0.314  24.044  0.00  0.00    +0.011 A 
BRANCH  11  14
ATOM     14  O   UNL     1       9.858   2.223  21.432  0.00  0.00    -0.507 OA
ATOM     15  H   UNL     1       9.547   2.068  20.526  0.00  0.00    +0.292 HD
ENDBRANCH  11  14
ENDBRANCH   6   8
BRANCH   1  16
ATOM     16  C   UNL     1       5.333  -2.485  25.867  0.00  0.00    +0.197 C 
BRANCH  16  17
ATOM     17  N   UNL     1       4.328  -2.799  24.818  0.00  0.00    -0.316 NA
ATOM     18  H   UNL     1       4.777  -3.416  24.137  0.00  0.00    +0.119 HD
ATOM     19  H   UNL     1       3.600  -3.379  25.235  0.00  0.00    +0.119 HD
ENDBRANCH  16  17
BRANCH  16  21
ATOM     20  C   UNL     1       4.237  -0.493  27.054  0.00  0.00    +0.040 C 
ATOM     21  C   UNL     1       5.397  -0.973  26.187  0.00  0.00    +0.140 C 
BRANCH  21  22
ATOM     22  O   UNL     1       5.321  -0.232  24.957  0.00  0.00    -0.390 OA
ATOM     23  H   UNL     1       5.615  -0.823  24.246  0.00  0.00    +0.210 HD
ENDBRANCH  21  22
ENDBRANCH  16  21
ENDBRANCH   1  16
BRANCH   2  24
ATOM     24  C   UNL     1       6.287  -5.547  25.921  0.00  0.00    +0.306 C 
BRANCH  24  25
ATOM     25  C   UNL     1       6.215  -5.741  27.424  0.00  0.00    +0.267 C 
ATOM     26  O   UNL     1       7.158  -6.075  28.137  0.00  0.00    -0.297 OA
ENDBRANCH  24  25
ENDBRANCH   2  24
TORSDOF 8
ENDMDL
MODEL 2
REMARK VINA RESULT:      -6.2      2.671      3.707
REMARK  Name = 
REMARK  9 active torsions:
REMARK  status: ('A' for Active; 'I' for Inactive)
REMARK    1  A    between atoms: C_1  and  C_2
REMARK    2  A    between atoms: C_2  and  O_4
REMARK    3  A    between atoms: C_2  and  C_5
REMARK    4  A    between atoms: C_5  and  N_7
REMARK    5  A    between atoms: C_5  and  C_8
REMARK    6  A    between atoms: C_11  and  C_12
REMARK    7  A    between atoms: C_15  and  O_16
REMARK    8  A    between atoms: N_21  and  C_22
REMARK    9  A    between atoms: C_22  and  C_23
REMARK                            x       y       z     vdW  Elec       q    Type
REMARK                         _______ _______ _______ _____ _____    ______ ____
ROOT
ATOM      1  C   UNL     1       8.388  -3.464  23.971  0.00  0.00    +0.317 C 
ATOM      2  N   UNL     1       7.147  -3.809  23.562  0.00  0.00    -0.145 N 
ATOM      3  C   UNL     1       6.673  -2.805  22.758  0.00  0.00    +0.379 C 
ATOM      4  O   UNL     1       5.618  -2.732  22.161  0.00  0.00    -0.237 OA
ATOM      5  C   UNL     1       7.756  -1.792  22.833  0.00  0.00    +0.263 C 
ATOM      6  C   UNL     1       7.609  -0.531  22.413  0.00  0.00    +0.071 C 
ATOM      7  N   UNL     1       8.809  -2.307  23.545  0.00  0.00    -0.037 NA
ENDROOT
BRANCH   6   8
ATOM      8  C   UNL     1       8.560   0.518  22.796  0.00  0.00    -0.020 A 
ATOM      9  C   UNL     1       9.495   0.951  21.844  0.00  0.00    +0.011 A 
ATOM     10  C   UNL     1      10.366   2.002  22.134  0.00  0.00    +0.046 A 
ATOM     11  C   UNL     1      10.300   2.623  23.373  0.00  0.00    +0.117 A 
ATOM     12  C   UNL     1       9.393   2.193  24.339  0.00  0.00    +0.046 A 
ATOM     13  C   UNL     1       8.521   1.137  24.049  0.00  0.00    +0.011 A 
BRANCH  11  14
ATOM     14  O   UNL     1      11.138   3.674  23.599  0.00  0.00    -0.507 OA
ATOM     15  H   UNL     1      11.171   4.220  22.796  0.00  0.00    +0.292 HD
ENDBRANCH  11  14
ENDBRANCH   6   8
BRANCH   1  16
ATOM     16  C   UNL     1       9.287  -4.272  24.904  0.00  0.00    +0.197 C 
BRANCH  16  17
ATOM     17  N   UNL     1       9.375  -5.693  24.478  0.00  0.00    -0.316 NA
ATOM     18  H   UNL     1       9.697  -5.704  23.507  0.00  0.00    +0.119 HD
ATOM     19  H   UNL     1      10.133  -6.137  24.996  0.00  0.00    +0.119 HD
ENDBRANCH  16  17
BRANCH  16  21
ATOM     20  C   UNL     1       7.948  -5.237  26.867  0.00  0.00    +0.040 C 
ATOM     21  C   UNL     1       8.878  -4.126  26.388  0.00  0.00    +0.140 C 
BRANCH  21  22
ATOM     22  O   UNL     1       8.159  -2.892  26.554  0.00  0.00    -0.390 OA
ATOM     23  H   UNL     1       8.788  -2.170  26.400  0.00  0.00    +0.210 HD
ENDBRANCH  21  22
ENDBRANCH  16  21
ENDBRANCH   1  16
BRANCH   2  24
ATOM     24  C   UNL     1       6.315  -4.950  23.903  0.00  0.00    +0.306 C 
BRANCH  24  25
ATOM     25  C   UNL     1       6.331  -5.989  22.799  0.00  0.00    +0.267 C 
ATOM     26  O   UNL     1       7.293  -6.235  22.076  0.00  0.00    -0.297 OA
ENDBRANCH  24  25
ENDBRANCH   2  24
TORSDOF 8
ENDMDL
MODEL 3
REMARK VINA RESULT:      -6.1      1.289      1.359
REMARK  Name = 
REMARK  9 active torsions:
REMARK  status: ('A' for Active; 'I' for Inactive)
REMARK    1  A    between atoms: C_1  and  C_2
REMARK    2  A    between atoms: C_2  and  O_4
REMARK    3  A    between atoms: C_2  and  C_5
REMARK    4  A    between atoms: C_5  and  N_7
REMARK    5  A    between atoms: C_5  and  C_8
REMARK    6  A    between atoms: C_11  and  C_12
REMARK    7  A    between atoms: C_15  and  O_16
REMARK    8  A    between atoms: N_21  and  C_22
REMARK    9  A    between atoms: C_22  and  C_23
REMARK                            x       y       z     vdW  Elec       q    Type
REMARK                         _______ _______ _______ _____ _____    ______ ____
ROOT
ATOM      1  C   UNL     1       6.579  -2.918  24.814  0.00  0.00    +0.317 C 
ATOM      2  N   UNL     1       6.887  -4.210  24.561  0.00  0.00    -0.145 N 
ATOM      3  C   UNL     1       8.224  -4.275  24.269  0.00  0.00    +0.379 C 
ATOM      4  O   UNL     1       8.909  -5.247  24.017  0.00  0.00    -0.237 OA
ATOM      5  C   UNL     1       8.631  -2.848  24.288  0.00  0.00    +0.263 C 
ATOM      6  C   UNL     1       9.796  -2.412  23.798  0.00  0.00    +0.071 C 
ATOM      7  N   UNL     1       7.571  -2.081  24.701  0.00  0.00    -0.037 NA
ENDROOT
BRANCH   6   8
ATOM      8  C   UNL     1      10.028  -0.989  23.528  0.00  0.00    -0.020 A 
ATOM      9  C   UNL     1       9.800  -0.510  22.229  0.00  0.00    +0.011 A 
ATOM     10  C   UNL     1       9.928   0.849  21.942  0.00  0.00    +0.046 A 
ATOM     11  C   UNL     1      10.279   1.731  22.954  0.00  0.00    +0.117 A 
ATOM     12  C   UNL     1      10.532   1.273  24.245  0.00  0.00    +0.046 A 
ATOM     13  C   UNL     1      10.405  -0.092  24.531  0.00  0.00    +0.011 A 
BRANCH  11  14
ATOM     14  O   UNL     1      10.349   3.057  22.641  0.00  0.00    -0.507 OA
ATOM     15  H   UNL     1      11.280   3.289  22.492  0.00  0.00    +0.292 HD
ENDBRANCH  11  14
ENDBRANCH   6   8
BRANCH   1  16
ATOM     16  C   UNL     1       5.195  -2.372  25.158  0.00  0.00    +0.197 C 
BRANCH  16  17
ATOM     17  N   UNL     1       5.047  -0.958  24.727  0.00  0.00    -0.316 NA
ATOM     18  H   UNL     1       5.054  -0.946  23.704  0.00  0.00    +0.119 HD
ATOM     19  H   UNL     1       4.108  -0.644  24.973  0.00  0.00    +0.119 HD
ENDBRANCH  16  17
BRANCH  16  21
ATOM     20  C   UNL     1       4.305  -1.309  27.316  0.00  0.00    +0.040 C 
ATOM     21  C   UNL     1       4.838  -2.573  26.649  0.00  0.00    +0.140 C 
BRANCH  21  22
ATOM     22  O   UNL     1       6.027  -2.944  27.367  0.00  0.00    -0.390 OA
ATOM     23  H   UNL     1       6.698  -3.184  26.709  0.00  0.00    +0.210 HD
ENDBRANCH  21  22
ENDBRANCH  16  21
ENDBRANCH   1  16
BRANCH   2  24
ATOM     24  C   UNL     1       6.046  -5.392  24.488  0.00  0.00    +0.306 C 
BRANCH  24  25
ATOM     25  C   UNL     1       5.859  -6.016  25.858  0.00  0.00    +0.267 C 
ATOM     26  O   UNL     1       6.657  -5.929  26.787  0.00  0.00    -0.297 OA
ENDBRANCH  24  25
ENDBRANCH   2  24
TORSDOF 8
ENDMDL
MODEL 4
REMARK VINA RESULT:      -6.0      2.011      6.096
REMARK  Name = 
REMARK  9 active torsions:
REMARK  status: ('A' for Active; 'I' for Inactive)
REMARK    1  A    between atoms: C_1  and  C_2
REMARK    2  A    between atoms: C_2  and  O_4
REMARK    3  A    between atoms: C_2  and  C_5
REMARK    4  A    between atoms: C_5  and  N_7
REMARK    5  A    between atoms: C_5  and  C_8
REMARK    6  A    between atoms: C_11  and  C_12
REMARK    7  A    between atoms: C_15  and  O_16
REMARK    8  A    between atoms: N_21  and  C_22
REMARK    9  A    between atoms: C_22  and  C_23
REMARK                            x       y       z     vdW  Elec       q    Type
REMARK                         _______ _______ _______ _____ _____    ______ ____
ROOT
ATOM      1  C   UNL     1       8.445  -0.202  24.401  0.00  0.00    +0.317 C 
ATOM      2  N   UNL     1       9.527  -0.166  23.593  0.00  0.00    -0.145 N 
ATOM      3  C   UNL     1       9.757  -1.438  23.139  0.00  0.00    +0.379 C 
ATOM      4  O   UNL     1      10.607  -1.837  22.367  0.00  0.00    -0.237 OA
ATOM      5  C   UNL     1       8.732  -2.231  23.862  0.00  0.00    +0.263 C 
ATOM      6  C   UNL     1       8.752  -3.567  23.930  0.00  0.00    +0.071 C 
ATOM      7  N   UNL     1       7.918  -1.382  24.567  0.00  0.00    -0.037 NA
ENDROOT
BRANCH   6   8
ATOM      8  C   UNL     1       7.939  -4.296  24.909  0.00  0.00    -0.020 A 
ATOM      9  C   UNL     1       6.700  -4.809  24.497  0.00  0.00    +0.011 A 
ATOM     10  C   UNL     1       5.927  -5.578  25.367  0.00  0.00    +0.046 A 
ATOM     11  C   UNL     1       6.394  -5.838  26.648  0.00  0.00    +0.117 A 
ATOM     12  C   UNL     1       7.611  -5.318  27.084  0.00  0.00    +0.046 A 
ATOM     13  C   UNL     1       8.385  -4.544  26.210  0.00  0.00    +0.011 A 
BRANCH  11  14
ATOM     14  O   UNL     1       5.629  -6.630  27.451  0.00  0.00    -0.507 OA
ATOM     15  H   UNL     1       5.513  -6.183  28.305  0.00  0.00    +0.292 HD
ENDBRANCH  11  14
ENDBRANCH   6   8
BRANCH   1  16
ATOM     16  C   UNL     1       7.840   0.982  25.153  0.00  0.00    +0.197 C 
BRANCH  16  17
ATOM     17  N   UNL     1       7.780   0.724  26.615  0.00  0.00    -0.316 NA
ATOM     18  H   UNL     1       7.401   1.563  27.060  0.00  0.00    +0.119 HD
ATOM     19  H   UNL     1       7.073   0.010  26.786  0.00  0.00    +0.119 HD
ENDBRANCH  16  17
BRANCH  16  21
ATOM     20  C   UNL     1       5.291   0.965  25.431  0.00  0.00    +0.040 C 
ATOM     21  C   UNL     1       6.471   1.410  24.573  0.00  0.00    +0.140 C 
BRANCH  21  22
ATOM     22  O   UNL     1       6.297   0.793  23.286  0.00  0.00    -0.390 OA
ATOM     23  H   UNL     1       5.629   1.308  22.807  0.00  0.00    +0.210 HD
ENDBRANCH  21  22
ENDBRANCH  16  21
ENDBRANCH   1  16
BRANCH   2  24
ATOM     24  C   UNL     1      10.426   0.924  23.254  0.00  0.00    +0.306 C 
BRANCH  24  25
ATOM     25  C   UNL     1       9.942   1.670  22.026  0.00  0.00    +0.267 C 
ATOM     26  O   UNL     1       8.766   1.910  21.764  0.00  0.00    -0.297 OA
ENDBRANCH  24  25
ENDBRANCH   2  24
TORSDOF 8
ENDMDL
MODEL 5
REMARK VINA RESULT:      -5.9      2.479      6.130
REMARK  Name = 
REMARK  9 active torsions:
REMARK  status: ('A' for Active; 'I' for Inactive)
REMARK    1  A    between atoms: C_1  and  C_2
REMARK    2  A    between atoms: C_2  and  O_4
REMARK    3  A    between atoms: C_2  and  C_5
REMARK    4  A    between atoms: C_5  and  N_7
REMARK    5  A    between atoms: C_5  and  C_8
REMARK    6  A    between atoms: C_11  and  C_12
REMARK    7  A    between atoms: C_15  and  O_16
REMARK    8  A    between atoms: N_21  and  C_22
REMARK    9  A    between atoms: C_22  and  C_23
REMARK                            x       y       z     vdW  Elec       q    Type
REMARK                         _______ _______ _______ _____ _____    ______ ____
ROOT
ATOM      1  C   UNL     1       7.413   0.159  23.659  0.00  0.00    +0.317 C 
ATOM      2  N   UNL     1       8.184   0.431  22.584  0.00  0.00    -0.145 N 
ATOM      3  C   UNL     1       8.646  -0.758  22.084  0.00  0.00    +0.379 C 
ATOM      4  O   UNL     1       9.340  -0.964  21.108  0.00  0.00    -0.237 OA
ATOM      5  C   UNL     1       8.126  -1.746  23.063  0.00  0.00    +0.263 C 
ATOM      6  C   UNL     1       8.552  -3.012  23.122  0.00  0.00    +0.071 C 
ATOM      7  N   UNL     1       7.317  -1.105  23.965  0.00  0.00    -0.037 NA
ENDROOT
BRANCH   6   8
ATOM      8  C   UNL     1       8.275  -3.858  24.288  0.00  0.00    -0.020 A 
ATOM      9  C   UNL     1       9.240  -3.932  25.303  0.00  0.00    +0.011 A 
ATOM     10  C   UNL     1       8.989  -4.658  26.468  0.00  0.00    +0.046 A 
ATOM     11  C   UNL     1       7.772  -5.306  26.620  0.00  0.00    +0.117 A 
ATOM     12  C   UNL     1       6.809  -5.264  25.614  0.00  0.00    +0.046 A 
ATOM     13  C   UNL     1       7.063  -4.537  24.444  0.00  0.00    +0.011 A 
BRANCH  11  14
ATOM     14  O   UNL     1       7.550  -5.967  27.792  0.00  0.00    -0.507 OA
ATOM     15  H   UNL     1       7.934  -6.856  27.721  0.00  0.00    +0.292 HD
ENDBRANCH  11  14
ENDBRANCH   6   8
BRANCH   1  16
ATOM     16  C   UNL     1       6.711   1.183  24.548  0.00  0.00    +0.197 C 
BRANCH  16  17
ATOM     17  N   UNL     1       6.060   2.247  23.741  0.00  0.00    -0.316 NA
ATOM     18  H   UNL     1       6.362   3.148  24.119  0.00  0.00    +0.119 HD
ATOM     19  H   UNL     1       6.458   2.225  22.802  0.00  0.00    +0.119 HD
ENDBRANCH  16  17
BRANCH  16  21
ATOM     20  C   UNL     1       8.054   3.205  25.376  0.00  0.00    +0.040 C 
ATOM     21  C   UNL     1       7.647   1.758  25.637  0.00  0.00    +0.140 C 
BRANCH  21  22
ATOM     22  O   UNL     1       8.862   0.989  25.659  0.00  0.00    -0.390 OA
ATOM     23  H   UNL     1       9.598   1.609  25.531  0.00  0.00    +0.210 HD
ENDBRANCH  21  22
ENDBRANCH  16  21
ENDBRANCH   1  16
BRANCH   2  24
ATOM     24  C   UNL     1       8.603   1.697  22.009  0.00  0.00    +0.306 C 
BRANCH  24  25
ATOM     25  C   UNL     1      10.039   2.017  22.377  0.00  0.00    +0.267 C 
ATOM     26  O   UNL     1      10.554   1.791  23.469  0.00  0.00    -0.297 OA
ENDBRANCH  24  25
ENDBRANCH   2  24
TORSDOF 8
ENDMDL
MODEL 6
REMARK VINA RESULT:      -5.9      3.296      6.166
REMARK  Name = 
REMARK  9 active torsions:
REMARK  status: ('A' for Active; 'I' for Inactive)
REMARK    1  A    between atoms: C_1  and  C_2
REMARK    2  A    between atoms: C_2  and  O_4
REMARK    3  A    between atoms: C_2  and  C_5
REMARK    4  A    between atoms: C_5  and  N_7
REMARK    5  A    between atoms: C_5  and  C_8
REMARK    6  A    between atoms: C_11  and  C_12
REMARK    7  A    between atoms: C_15  and  O_16
REMARK    8  A    between atoms: N_21  and  C_22
REMARK    9  A    between atoms: C_22  and  C_23
REMARK                            x       y       z     vdW  Elec       q    Type
REMARK                         _______ _______ _______ _____ _____    ______ ____
ROOT
ATOM      1  C   UNL     1       8.639   0.312  22.967  0.00  0.00    +0.317 C 
ATOM      2  N   UNL     1       8.987   0.736  24.202  0.00  0.00    -0.145 N 
ATOM      3  C   UNL     1       8.930  -0.339  25.049  0.00  0.00    +0.379 C 
ATOM      4  O   UNL     1       9.197  -0.400  26.233  0.00  0.00    -0.237 OA
ATOM      5  C   UNL     1       8.410  -1.417  24.170  0.00  0.00    +0.263 C 
ATOM      6  C   UNL     1       7.945  -2.581  24.636  0.00  0.00    +0.071 C 
ATOM      7  N   UNL     1       8.324  -0.950  22.884  0.00  0.00    -0.037 NA
ENDROOT
BRANCH   6   8
ATOM      8  C   UNL     1       7.144  -3.476  23.794  0.00  0.00    -0.020 A 
ATOM      9  C   UNL     1       7.764  -4.607  23.242  0.00  0.00    +0.011 A 
ATOM     10  C   UNL     1       7.026  -5.530  22.503  0.00  0.00    +0.046 A 
ATOM     11  C   UNL     1       5.666  -5.327  22.317  0.00  0.00    +0.117 A 
ATOM     12  C   UNL     1       5.035  -4.198  22.837  0.00  0.00    +0.046 A 
ATOM     13  C   UNL     1       5.778  -3.271  23.578  0.00  0.00    +0.011 A 
BRANCH  11  14
ATOM     14  O   UNL     1       4.973  -6.276  21.625  0.00  0.00    -0.507 OA
ATOM     15  H   UNL     1       4.234  -5.844  21.167  0.00  0.00    +0.292 HD
ENDBRANCH  11  14
ENDBRANCH   6   8
BRANCH   1  16
ATOM     16  C   UNL     1       8.538   1.176  21.712  0.00  0.00    +0.197 C 
BRANCH  16  17
ATOM     17  N   UNL     1       9.722   2.062  21.566  0.00  0.00    -0.316 NA
ATOM     18  H   UNL     1       9.418   3.017  21.769  0.00  0.00    +0.119 HD
ATOM     19  H   UNL     1      10.379   1.846  22.316  0.00  0.00    +0.119 HD
ENDBRANCH  16  17
BRANCH  16  21
ATOM     20  C   UNL     1       7.346   3.424  22.029  0.00  0.00    +0.040 C 
ATOM     21  C   UNL     1       7.205   1.956  21.640  0.00  0.00    +0.140 C 
BRANCH  21  22
ATOM     22  O   UNL     1       6.274   1.375  22.569  0.00  0.00    -0.390 OA
ATOM     23  H   UNL     1       5.616   0.886  22.050  0.00  0.00    +0.210 HD
ENDBRANCH  21  22
ENDBRANCH  16  21
ENDBRANCH   1  16
BRANCH   2  24
ATOM     24  C   UNL     1       9.298   2.065  24.699  0.00  0.00    +0.306 C 
BRANCH  24  25
ATOM     25  C   UNL     1       8.109   2.673  25.418  0.00  0.00    +0.267 C 
ATOM     26  O   UNL     1       6.937   2.352  25.238  0.00  0.00    -0.297 OA
ENDBRANCH  24  25
ENDBRANCH   2  24
TORSDOF 8
ENDMDL
MODEL 7
REMARK VINA RESULT:      -5.9      2.146      5.989
REMARK  Name = 
REMARK  9 active torsions:
REMARK  status: ('A' for Active; 'I' for Inactive)
REMARK    1  A    between atoms: C_1  and  C_2
REMARK    2  A    between atoms: C_2  and  O_4
REMARK    3  A    between atoms: C_2  and  C_5
REMARK    4  A    between atoms: C_5  and  N_7
REMARK    5  A    between atoms: C_5  and  C_8
REMARK    6  A    between atoms: C_11  and  C_12
REMARK    7  A    between atoms: C_15  and  O_16
REMARK    8  A    between atoms: N_21  and  C_22
REMARK    9  A    between atoms: C_22  and  C_23
REMARK                            x       y       z     vdW  Elec       q    Type
REMARK                         _______ _______ _______ _____ _____    ______ ____
ROOT
ATOM      1  C   UNL     1       7.881   0.528  24.117  0.00  0.00    +0.317 C 
ATOM      2  N   UNL     1       8.544   0.832  22.981  0.00  0.00    -0.145 N 
ATOM      3  C   UNL     1       8.796  -0.337  22.312  0.00  0.00    +0.379 C 
ATOM      4  O   UNL     1       9.338  -0.507  21.238  0.00  0.00    -0.237 OA
ATOM      5  C   UNL     1       8.281  -1.364  23.252  0.00  0.00    +0.263 C 
ATOM      6  C   UNL     1       8.554  -2.668  23.132  0.00  0.00    +0.071 C 
ATOM      7  N   UNL     1       7.669  -0.744  24.310  0.00  0.00    -0.037 NA
ENDROOT
BRANCH   6   8
ATOM      8  C   UNL     1       8.318  -3.603  24.238  0.00  0.00    -0.020 A 
ATOM      9  C   UNL     1       9.369  -3.860  25.131  0.00  0.00    +0.011 A 
ATOM     10  C   UNL     1       9.169  -4.677  26.244  0.00  0.00    +0.046 A 
ATOM     11  C   UNL     1       7.919  -5.236  26.466  0.00  0.00    +0.117 A 
ATOM     12  C   UNL     1       6.869  -5.012  25.579  0.00  0.00    +0.046 A 
ATOM     13  C   UNL     1       7.070  -4.193  24.461  0.00  0.00    +0.011 A 
BRANCH  11  14
ATOM     14  O   UNL     1       7.755  -5.992  27.589  0.00  0.00    -0.507 OA
ATOM     15  H   UNL     1       7.070  -6.658  27.414  0.00  0.00    +0.292 HD
ENDBRANCH  11  14
ENDBRANCH   6   8
BRANCH   1  16
ATOM     16  C   UNL     1       7.419   1.517  25.185  0.00  0.00    +0.197 C 
BRANCH  16  17
ATOM     17  N   UNL     1       7.900   1.123  26.535  0.00  0.00    -0.316 NA
ATOM     18  H   UNL     1       8.043   1.981  27.073  0.00  0.00    +0.119 HD
ATOM     19  H   UNL     1       7.139   0.648  27.021  0.00  0.00    +0.119 HD
ENDBRANCH  16  17
BRANCH  16  21
ATOM     20  C   UNL     1       5.187   1.324  26.434  0.00  0.00    +0.040 C 
ATOM     21  C   UNL     1       5.890   1.751  25.149  0.00  0.00    +0.140 C 
BRANCH  21  22
ATOM     22  O   UNL     1       5.323   0.960  24.091  0.00  0.00    -0.390 OA
ATOM     23  H   UNL     1       5.901   1.057  23.317  0.00  0.00    +0.210 HD
ENDBRANCH  21  22
ENDBRANCH  16  21
ENDBRANCH   1  16
BRANCH   2  24
ATOM     24  C   UNL     1       9.042   2.102  22.481  0.00  0.00    +0.306 C 
BRANCH  24  25
ATOM     25  C   UNL     1      10.208   2.599  23.313  0.00  0.00    +0.267 C 
ATOM     26  O   UNL     1      10.968   1.884  23.961  0.00  0.00    -0.297 OA
ENDBRANCH  24  25
ENDBRANCH   2  24
TORSDOF 8
ENDMDL
MODEL 8
REMARK VINA RESULT:      -5.8      2.181      2.982
REMARK  Name = 
REMARK  9 active torsions:
REMARK  status: ('A' for Active; 'I' for Inactive)
REMARK    1  A    between atoms: C_1  and  C_2
REMARK    2  A    between atoms: C_2  and  O_4
REMARK    3  A    between atoms: C_2  and  C_5
REMARK    4  A    between atoms: C_5  and  N_7
REMARK    5  A    between atoms: C_5  and  C_8
REMARK    6  A    between atoms: C_11  and  C_12
REMARK    7  A    between atoms: C_15  and  O_16
REMARK    8  A    between atoms: N_21  and  C_22
REMARK    9  A    between atoms: C_22  and  C_23
REMARK                            x       y       z     vdW  Elec       q    Type
REMARK                         _______ _______ _______ _____ _____    ______ ____
ROOT
ATOM      1  C   UNL     1       6.315  -3.672  24.384  0.00  0.00    +0.317 C 
ATOM      2  N   UNL     1       6.777  -4.439  25.396  0.00  0.00    -0.145 N 
ATOM      3  C   UNL     1       7.777  -3.747  26.027  0.00  0.00    +0.379 C 
ATOM      4  O   UNL     1       8.432  -4.061  27.002  0.00  0.00    -0.237 OA
ATOM      5  C   UNL     1       7.902  -2.525  25.194  0.00  0.00    +0.263 C 
ATOM      6  C   UNL     1       8.937  -1.682  25.282  0.00  0.00    +0.071 C 
ATOM      7  N   UNL     1       6.916  -2.524  24.241  0.00  0.00    -0.037 NA
ENDROOT
BRANCH   6   8
ATOM      8  C   UNL     1       9.202  -0.686  24.239  0.00  0.00    -0.020 A 
ATOM      9  C   UNL     1       9.052   0.672  24.559  0.00  0.00    +0.011 A 
ATOM     10  C   UNL     1       9.370   1.659  23.626  0.00  0.00    +0.046 A 
ATOM     11  C   UNL     1       9.841   1.291  22.374  0.00  0.00    +0.117 A 
ATOM     12  C   UNL     1       9.975  -0.052  22.029  0.00  0.00    +0.046 A 
ATOM     13  C   UNL     1       9.653  -1.042  22.965  0.00  0.00    +0.011 A 
BRANCH  11  14
ATOM     14  O   UNL     1      10.182   2.288  21.509  0.00  0.00    -0.507 OA
ATOM     15  H   UNL     1       9.845   2.059  20.628  0.00  0.00    +0.292 HD
ENDBRANCH  11  14
ENDBRANCH   6   8
BRANCH   1  16
ATOM     16  C   UNL     1       5.216  -4.050  23.394  0.00  0.00    +0.197 C 
BRANCH  16  17
ATOM     17  N   UNL     1       3.875  -4.021  24.033  0.00  0.00    -0.316 NA
ATOM     18  H   UNL     1       3.212  -3.660  23.343  0.00  0.00    +0.119 HD
ATOM     19  H   UNL     1       3.573  -4.983  24.188  0.00  0.00    +0.119 HD
ENDBRANCH  16  17
BRANCH  16  21
ATOM     20  C   UNL     1       6.261  -5.231  21.371  0.00  0.00    +0.040 C 
ATOM     21  C   UNL     1       5.501  -5.394  22.683  0.00  0.00    +0.140 C 
BRANCH  21  22
ATOM     22  O   UNL     1       4.250  -6.023  22.356  0.00  0.00    -0.390 OA
ATOM     23  H   UNL     1       4.455  -6.841  21.877  0.00  0.00    +0.210 HD
ENDBRANCH  21  22
ENDBRANCH  16  21
ENDBRANCH   1  16
BRANCH   2  24
ATOM     24  C   UNL     1       6.435  -5.793  25.796  0.00  0.00    +0.306 C 
BRANCH  24  25
ATOM     25  C   UNL     1       5.371  -5.793  26.876  0.00  0.00    +0.267 C 
ATOM     26  O   UNL     1       4.335  -5.133  26.845  0.00  0.00    -0.297 OA
ENDBRANCH  24  25
ENDBRANCH   2  24
TORSDOF 8
ENDMDL
MODEL 9
REMARK VINA RESULT:      -5.7      2.275      3.393
REMARK  Name = 
REMARK  9 active torsions:
REMARK  status: ('A' for Active; 'I' for Inactive)
REMARK    1  A    between atoms: C_1  and  C_2
REMARK    2  A    between atoms: C_2  and  O_4
REMARK    3  A    between atoms: C_2  and  C_5
REMARK    4  A    between atoms: C_5  and  N_7
REMARK    5  A    between atoms: C_5  and  C_8
REMARK    6  A    between atoms: C_11  and  C_12
REMARK    7  A    between atoms: C_15  and  O_16
REMARK    8  A    between atoms: N_21  and  C_22
REMARK    9  A    between atoms: C_22  and  C_23
REMARK                            x       y       z     vdW  Elec       q    Type
REMARK                         _______ _______ _______ _____ _____    ______ ____
ROOT
ATOM      1  C   UNL     1       6.412  -3.782  24.442  0.00  0.00    +0.317 C 
ATOM      2  N   UNL     1       5.862  -3.780  25.676  0.00  0.00    -0.145 N 
ATOM      3  C   UNL     1       5.782  -2.480  26.101  0.00  0.00    +0.379 C 
ATOM      4  O   UNL     1       5.323  -2.035  27.134  0.00  0.00    -0.237 OA
ATOM      5  C   UNL     1       6.444  -1.738  24.998  0.00  0.00    +0.263 C 
ATOM      6  C   UNL     1       6.831  -0.462  25.103  0.00  0.00    +0.071 C 
ATOM      7  N   UNL     1       6.741  -2.609  23.982  0.00  0.00    -0.037 NA
ENDROOT
BRANCH   6   8
ATOM      8  C   UNL     1       7.764   0.136  24.142  0.00  0.00    -0.020 A 
ATOM      9  C   UNL     1       7.238   0.775  23.009  0.00  0.00    +0.011 A 
ATOM     10  C   UNL     1       8.079   1.428  22.109  0.00  0.00    +0.046 A 
ATOM     11  C   UNL     1       9.447   1.447  22.342  0.00  0.00    +0.117 A 
ATOM     12  C   UNL     1       9.992   0.798  23.448  0.00  0.00    +0.046 A 
ATOM     13  C   UNL     1       9.146   0.141  24.350  0.00  0.00    +0.011 A 
BRANCH  11  14
ATOM     14  O   UNL     1      10.229   2.134  21.462  0.00  0.00    -0.507 OA
ATOM     15  H   UNL     1      10.980   1.571  21.213  0.00  0.00    +0.292 HD
ENDBRANCH  11  14
ENDBRANCH   6   8
BRANCH   1  16
ATOM     16  C   UNL     1       6.717  -5.014  23.592  0.00  0.00    +0.197 C 
BRANCH  16  17
ATOM     17  N   UNL     1       8.094  -4.965  23.038  0.00  0.00    -0.316 NA
ATOM     18  H   UNL     1       8.031  -4.594  22.088  0.00  0.00    +0.119 HD
ATOM     19  H   UNL     1       8.620  -4.255  23.548  0.00  0.00    +0.119 HD
ENDBRANCH  16  17
BRANCH  16  21
ATOM     20  C   UNL     1       6.242  -5.725  21.174  0.00  0.00    +0.040 C 
ATOM     21  C   UNL     1       5.650  -5.253  22.498  0.00  0.00    +0.140 C 
BRANCH  21  22
ATOM     22  O   UNL     1       4.977  -4.011  22.225  0.00  0.00    -0.390 OA
ATOM     23  H   UNL     1       4.762  -4.002  21.279  0.00  0.00    +0.210 HD
ENDBRANCH  21  22
ENDBRANCH  16  21
ENDBRANCH   1  16
BRANCH   2  24
ATOM     24  C   UNL     1       5.468  -4.876  26.544  0.00  0.00    +0.306 C 
BRANCH  24  25
ATOM     25  C   UNL     1       6.666  -5.459  27.269  0.00  0.00    +0.267 C 
ATOM     26  O   UNL     1       7.780  -4.944  27.317  0.00  0.00    -0.297 OA
ENDBRANCH  24  25
ENDBRANCH   2  24
TORSDOF 8
ENDMDL
