MODEL 1
REMARK VINA RESULT:      -7.9      0.000      0.000
REMARK  Name = 
REMARK  7 active torsions:
REMARK  status: ('A' for Active; 'I' for Inactive)
REMARK    1  A    between atoms: C_1  and  N_2
REMARK    2  A    between atoms: C_3  and  C_4
REMARK    3  A    between atoms: C_4  and  C_5
REMARK    4  A    between atoms: C_8  and  C_11
REMARK    5  A    between atoms: C_19  and  N_20
REMARK    6  A    between atoms: N_20  and  S_21
REMARK    7  A    between atoms: S_21  and  C_24
REMARK                            x       y       z     vdW  Elec       q    Type
REMARK                         _______ _______ _______ _____ _____    ______ ____
ROOT
ATOM      1  C   UNL     1       7.536   1.226  26.406  0.00  0.00    +0.150 C 
ATOM      2  N   UNL     1       7.622   0.825  25.021  0.00  0.00    -0.330 N 
ATOM      3  C   UNL     1       7.854  -0.472  24.615  0.00  0.00    +0.069 A 
ATOM      4  C   UNL     1       8.229  -1.633  25.301  0.00  0.00    +0.030 A 
ATOM      5  C   UNL     1       8.268  -2.821  24.564  0.00  0.00    +0.026 A 
ATOM      6  C   UNL     1       7.947  -2.835  23.207  0.00  0.00    +0.050 A 
ATOM      7  C   UNL     1       7.640  -1.652  22.522  0.00  0.00    +0.054 A 
ATOM      8  C   UNL     1       7.597  -0.452  23.250  0.00  0.00    +0.091 A 
ATOM      9  N   UNL     1       7.336   0.830  22.827  0.00  0.00    -0.232 NA
ATOM     10  C   UNL     1       7.430   1.601  23.898  0.00  0.00    +0.115 A 
ENDROOT
BRANCH   6  11
ATOM     11  N   UNL     1       7.946  -4.069  22.506  0.00  0.00    -0.216 N 
ATOM     12  H   UNL     1       8.673  -4.229  21.811  0.00  0.00    +0.174 HD
BRANCH  11  13
ATOM     13  S   UNL     1       6.493  -4.836  22.126  0.00  0.00    +0.072 S 
ATOM     14  O   UNL     1       6.739  -6.229  21.837  0.00  0.00    -0.150 OA
ATOM     15  O   UNL     1       5.830  -3.978  21.165  0.00  0.00    -0.150 OA
BRANCH  13  16
ATOM     16  C   UNL     1       5.557  -4.746  23.642  0.00  0.00    +0.108 A 
ATOM     17  C   UNL     1       4.569  -3.769  23.789  0.00  0.00    +0.029 A 
ATOM     18  C   UNL     1       3.858  -3.681  24.987  0.00  0.00    +0.002 A 
ATOM     19  C   UNL     1       4.146  -4.556  26.037  0.00  0.00    +0.000 A 
ATOM     20  C   UNL     1       5.151  -5.513  25.896  0.00  0.00    +0.002 A 
ATOM     21  C   UNL     1       5.865  -5.609  24.702  0.00  0.00    +0.029 A 
ENDBRANCH  13  16
ENDBRANCH  11  13
ENDBRANCH   6  11
BRANCH  10  22
ATOM     22  C   UNL     1       7.409   3.108  23.879  0.00  0.00    +0.109 C 
BRANCH  22  23
ATOM     23  C   UNL     1       8.743   3.790  23.653  0.00  0.00    -0.040 A 
ATOM     24  C   UNL     1       8.884   5.185  23.657  0.00  0.00    +0.005 A 
ATOM     25  C   UNL     1      10.154   5.771  23.609  0.00  0.00    +0.016 A 
ATOM     26  C   UNL     1      11.293   4.963  23.535  0.00  0.00    +0.065 A 
ATOM     27  C   UNL     1      11.151   3.584  23.361  0.00  0.00    +0.016 A 
ATOM     28  C   UNL     1       9.881   3.004  23.409  0.00  0.00    +0.005 A 
BRANCH  26  29
ATOM     29  C   UNL     1      12.644   5.555  23.737  0.00  0.00    +0.308 C 
ATOM     30  N   UNL     1      13.718   5.016  23.249  0.00  0.00    -0.099 NA
ATOM     31  H   UNL     1      13.508   4.140  22.767  0.00  0.00    +0.363 HD
ATOM     32  N   UNL     1      12.818   6.680  24.484  0.00  0.00    -0.247 N 
ATOM     33  H   UNL     1      13.768   7.028  24.389  0.00  0.00    +0.288 HD
ATOM     34  H   UNL     1      12.121   7.405  24.371  0.00  0.00    +0.288 HD
ENDBRANCH  26  29
ENDBRANCH  22  23
ENDBRANCH  10  22
TORSDOF 6
ENDMDL
MODEL 2
REMARK VINA RESULT:      -7.8      1.932      2.580
REMARK  Name = 
REMARK  7 active torsions:
REMARK  status: ('A' for Active; 'I' for Inactive)
REMARK    1  A    between atoms: C_1  and  N_2
REMARK    2  A    between atoms: C_3  and  C_4
REMARK    3  A    between atoms: C_4  and  C_5
REMARK    4  A    between atoms: C_8  and  C_11
REMARK    5  A    between atoms: C_19  and  N_20
REMARK    6  A    between atoms: N_20  and  S_21
REMARK    7  A    between atoms: S_21  and  C_24
REMARK                            x       y       z     vdW  Elec       q    Type
REMARK                         _______ _______ _______ _____ _____    ______ ____
ROOT
ATOM      1  C   UNL     1       7.182   2.597  26.688  0.00  0.00    +0.150 C 
ATOM      2  N   UNL     1       7.496   1.662  25.634  0.00  0.00    -0.330 N 
ATOM      3  C   UNL     1       7.835   0.344  25.858  0.00  0.00    +0.069 A 
ATOM      4  C   UNL     1       8.141  -0.377  27.018  0.00  0.00    +0.030 A 
ATOM      5  C   UNL     1       8.337  -1.754  26.875  0.00  0.00    +0.026 A 
ATOM      6  C   UNL     1       8.231  -2.369  25.628  0.00  0.00    +0.050 A 
ATOM      7  C   UNL     1       7.991  -1.621  24.468  0.00  0.00    +0.054 A 
ATOM      8  C   UNL     1       7.792  -0.237  24.597  0.00  0.00    +0.091 A 
ATOM      9  N   UNL     1       7.554   0.716  23.634  0.00  0.00    -0.232 NA
ATOM     10  C   UNL     1       7.453   1.870  24.272  0.00  0.00    +0.115 A 
ENDROOT
BRANCH   6  11
ATOM     11  N   UNL     1       8.383  -3.777  25.532  0.00  0.00    -0.216 N 
ATOM     12  H   UNL     1       9.060  -4.145  24.865  0.00  0.00    +0.174 HD
BRANCH  11  13
ATOM     13  S   UNL     1       7.061  -4.799  25.757  0.00  0.00    +0.072 S 
ATOM     14  O   UNL     1       5.963  -4.055  26.327  0.00  0.00    -0.150 OA
ATOM     15  O   UNL     1       7.581  -5.984  26.408  0.00  0.00    -0.150 OA
BRANCH  13  16
ATOM     16  C   UNL     1       6.602  -5.270  24.098  0.00  0.00    +0.108 A 
ATOM     17  C   UNL     1       7.561  -5.243  23.080  0.00  0.00    +0.029 A 
ATOM     18  C   UNL     1       7.194  -5.584  21.778  0.00  0.00    +0.002 A 
ATOM     19  C   UNL     1       5.872  -5.934  21.492  0.00  0.00    +0.000 A 
ATOM     20  C   UNL     1       4.913  -5.935  22.505  0.00  0.00    +0.002 A 
ATOM     21  C   UNL     1       5.271  -5.598  23.811  0.00  0.00    +0.029 A 
ENDBRANCH  13  16
ENDBRANCH  11  13
ENDBRANCH   6  11
BRANCH  10  22
ATOM     22  C   UNL     1       7.380   3.219  23.604  0.00  0.00    +0.109 C 
BRANCH  22  23
ATOM     23  C   UNL     1       8.689   3.973  23.480  0.00  0.00    -0.040 A 
ATOM     24  C   UNL     1       8.751   5.374  23.451  0.00  0.00    +0.005 A 
ATOM     25  C   UNL     1       9.985   6.031  23.501  0.00  0.00    +0.016 A 
ATOM     26  C   UNL     1      11.169   5.290  23.558  0.00  0.00    +0.065 A 
ATOM     27  C   UNL     1      11.121   3.902  23.416  0.00  0.00    +0.016 A 
ATOM     28  C   UNL     1       9.888   3.249  23.367  0.00  0.00    +0.005 A 
BRANCH  26  29
ATOM     29  C   UNL     1      12.459   5.967  23.863  0.00  0.00    +0.308 C 
ATOM     30  N   UNL     1      12.662   6.604  24.974  0.00  0.00    -0.099 NA
ATOM     31  H   UNL     1      11.824   6.608  25.559  0.00  0.00    +0.363 HD
ATOM     32  N   UNL     1      13.481   5.980  22.964  0.00  0.00    -0.247 N 
ATOM     33  H   UNL     1      14.328   6.344  23.391  0.00  0.00    +0.288 HD
ATOM     34  H   UNL     1      13.638   5.121  22.452  0.00  0.00    +0.288 HD
ENDBRANCH  26  29
ENDBRANCH  22  23
ENDBRANCH  10  22
TORSDOF 6
ENDMDL
MODEL 3
REMARK VINA RESULT:      -7.8      2.603      3.330
REMARK  Name = 
REMARK  7 active torsions:
REMARK  status: ('A' for Active; 'I' for Inactive)
REMARK    1  A    between atoms: C_1  and  N_2
REMARK    2  A    between atoms: C_3  and  C_4
REMARK    3  A    between atoms: C_4  and  C_5
REMARK    4  A    between atoms: C_8  and  C_11
REMARK    5  A    between atoms: C_19  and  N_20
REMARK    6  A    between atoms: N_20  and  S_21
REMARK    7  A    between atoms: S_21  and  C_24
REMARK                            x       y       z     vdW  Elec       q    Type
REMARK                         _______ _______ _______ _____ _____    ______ ____
ROOT
ATOM      1  C   UNL     1      10.141  -0.734  24.826  0.00  0.00    +0.150 C 
ATOM      2  N   UNL     1       9.450  -1.353  23.720  0.00  0.00    -0.330 N 
ATOM      3  C   UNL     1       8.915  -2.623  23.768  0.00  0.00    +0.069 A 
ATOM      4  C   UNL     1       9.019  -3.666  24.697  0.00  0.00    +0.030 A 
ATOM      5  C   UNL     1       8.234  -4.800  24.466  0.00  0.00    +0.026 A 
ATOM      6  C   UNL     1       7.393  -4.878  23.357  0.00  0.00    +0.050 A 
ATOM      7  C   UNL     1       7.353  -3.853  22.403  0.00  0.00    +0.054 A 
ATOM      8  C   UNL     1       8.135  -2.708  22.622  0.00  0.00    +0.091 A 
ATOM      9  N   UNL     1       8.286  -1.579  21.851  0.00  0.00    -0.232 NA
ATOM     10  C   UNL     1       9.145  -0.803  22.493  0.00  0.00    +0.115 A 
ENDROOT
BRANCH   6  11
ATOM     11  N   UNL     1       6.572  -6.023  23.186  0.00  0.00    -0.216 N 
ATOM     12  H   UNL     1       6.761  -6.639  22.397  0.00  0.00    +0.174 HD
BRANCH  11  13
ATOM     13  S   UNL     1       4.939  -5.977  23.606  0.00  0.00    +0.072 S 
ATOM     14  O   UNL     1       4.534  -7.261  24.127  0.00  0.00    -0.150 OA
ATOM     15  O   UNL     1       4.256  -5.377  22.477  0.00  0.00    -0.150 OA
BRANCH  13  16
ATOM     16  C   UNL     1       4.879  -4.797  24.943  0.00  0.00    +0.108 A 
ATOM     17  C   UNL     1       5.168  -5.212  26.246  0.00  0.00    +0.029 A 
ATOM     18  C   UNL     1       5.092  -4.294  27.295  0.00  0.00    +0.002 A 
ATOM     19  C   UNL     1       4.714  -2.974  27.043  0.00  0.00    +0.000 A 
ATOM     20  C   UNL     1       4.401  -2.570  25.745  0.00  0.00    +0.002 A 
ATOM     21  C   UNL     1       4.476  -3.480  24.690  0.00  0.00    +0.029 A 
ENDBRANCH  13  16
ENDBRANCH  11  13
ENDBRANCH   6  11
BRANCH  10  22
ATOM     22  C   UNL     1       9.754   0.456  21.932  0.00  0.00    +0.109 C 
BRANCH  22  23
ATOM     23  C   UNL     1       9.039   1.749  22.268  0.00  0.00    -0.040 A 
ATOM     24  C   UNL     1       9.568   2.690  23.163  0.00  0.00    +0.005 A 
ATOM     25  C   UNL     1       8.960   3.940  23.321  0.00  0.00    +0.016 A 
ATOM     26  C   UNL     1       7.804   4.251  22.598  0.00  0.00    +0.065 A 
ATOM     27  C   UNL     1       7.180   3.260  21.835  0.00  0.00    +0.016 A 
ATOM     28  C   UNL     1       7.790   2.013  21.681  0.00  0.00    +0.005 A 
BRANCH  26  29
ATOM     29  C   UNL     1       7.297   5.650  22.564  0.00  0.00    +0.308 C 
ATOM     30  N   UNL     1       6.779   6.225  23.604  0.00  0.00    -0.099 NA
ATOM     31  H   UNL     1       6.733   5.585  24.399  0.00  0.00    +0.363 HD
ATOM     32  N   UNL     1       7.319   6.382  21.416  0.00  0.00    -0.247 N 
ATOM     33  H   UNL     1       7.084   7.352  21.607  0.00  0.00    +0.288 HD
ATOM     34  H   UNL     1       8.145   6.285  20.839  0.00  0.00    +0.288 HD
ENDBRANCH  26  29
ENDBRANCH  22  23
ENDBRANCH  10  22
TORSDOF 6
ENDMDL
MODEL 4
REMARK VINA RESULT:      -7.8      3.293      4.186
REMARK  Name = 
REMARK  7 active torsions:
REMARK  status: ('A' for Active; 'I' for Inactive)
REMARK    1  A    between atoms: C_1  and  N_2
REMARK    2  A    between atoms: C_3  and  C_4
REMARK    3  A    between atoms: C_4  and  C_5
REMARK    4  A    between atoms: C_8  and  C_11
REMARK    5  A    between atoms: C_19  and  N_20
REMARK    6  A    between atoms: N_20  and  S_21
REMARK    7  A    between atoms: S_21  and  C_24
REMARK                            x       y       z     vdW  Elec       q    Type
REMARK                         _______ _______ _______ _____ _____    ______ ____
ROOT
ATOM      1  C   UNL     1      10.147  -1.506  22.269  0.00  0.00    +0.150 C 
ATOM      2  N   UNL     1       9.661  -1.572  23.627  0.00  0.00    -0.330 N 
ATOM      3  C   UNL     1       8.989  -2.659  24.146  0.00  0.00    +0.069 A 
ATOM      4  C   UNL     1       8.452  -3.814  23.564  0.00  0.00    +0.030 A 
ATOM      5  C   UNL     1       7.922  -4.773  24.432  0.00  0.00    +0.026 A 
ATOM      6  C   UNL     1       7.932  -4.577  25.812  0.00  0.00    +0.050 A 
ATOM      7  C   UNL     1       8.412  -3.385  26.372  0.00  0.00    +0.054 A 
ATOM      8  C   UNL     1       8.947  -2.413  25.512  0.00  0.00    +0.091 A 
ATOM      9  N   UNL     1       9.468  -1.172  25.795  0.00  0.00    -0.232 NA
ATOM     10  C   UNL     1       9.824  -0.646  24.635  0.00  0.00    +0.115 A 
ENDROOT
BRANCH   6  11
ATOM     11  N   UNL     1       7.434  -5.597  26.664  0.00  0.00    -0.216 N 
ATOM     12  H   UNL     1       7.770  -6.548  26.523  0.00  0.00    +0.174 HD
BRANCH  11  13
ATOM     13  S   UNL     1       5.849  -5.537  27.236  0.00  0.00    +0.072 S 
ATOM     14  O   UNL     1       5.652  -4.325  27.996  0.00  0.00    -0.150 OA
ATOM     15  O   UNL     1       5.588  -6.838  27.820  0.00  0.00    -0.150 OA
BRANCH  13  16
ATOM     16  C   UNL     1       4.866  -5.422  25.751  0.00  0.00    +0.108 A 
ATOM     17  C   UNL     1       4.685  -6.554  24.951  0.00  0.00    +0.029 A 
ATOM     18  C   UNL     1       3.940  -6.455  23.775  0.00  0.00    +0.002 A 
ATOM     19  C   UNL     1       3.395  -5.228  23.394  0.00  0.00    +0.000 A 
ATOM     20  C   UNL     1       3.600  -4.094  24.181  0.00  0.00    +0.002 A 
ATOM     21  C   UNL     1       4.341  -4.184  25.359  0.00  0.00    +0.029 A 
ENDBRANCH  13  16
ENDBRANCH  11  13
ENDBRANCH   6  11
BRANCH  10  22
ATOM     22  C   UNL     1      10.270   0.780  24.437  0.00  0.00    +0.109 C 
BRANCH  22  23
ATOM     23  C   UNL     1       9.215   1.743  23.929  0.00  0.00    -0.040 A 
ATOM     24  C   UNL     1       8.551   2.645  24.773  0.00  0.00    +0.005 A 
ATOM     25  C   UNL     1       7.706   3.625  24.242  0.00  0.00    +0.016 A 
ATOM     26  C   UNL     1       7.504   3.698  22.860  0.00  0.00    +0.065 A 
ATOM     27  C   UNL     1       8.028   2.702  22.033  0.00  0.00    +0.016 A 
ATOM     28  C   UNL     1       8.870   1.724  22.567  0.00  0.00    +0.005 A 
BRANCH  26  29
ATOM     29  C   UNL     1       6.819   4.879  22.266  0.00  0.00    +0.308 C 
ATOM     30  N   UNL     1       5.531   5.022  22.300  0.00  0.00    -0.099 NA
ATOM     31  H   UNL     1       5.078   4.217  22.735  0.00  0.00    +0.363 HD
ATOM     32  N   UNL     1       7.519   5.851  21.620  0.00  0.00    -0.247 N 
ATOM     33  H   UNL     1       6.921   6.647  21.417  0.00  0.00    +0.288 HD
ATOM     34  H   UNL     1       8.401   6.120  22.037  0.00  0.00    +0.288 HD
ENDBRANCH  26  29
ENDBRANCH  22  23
ENDBRANCH  10  22
TORSDOF 6
ENDMDL
MODEL 5
REMARK VINA RESULT:      -7.5      2.226      3.030
REMARK  Name = 
REMARK  7 active torsions:
REMARK  status: ('A' for Active; 'I' for Inactive)
REMARK    1  A    between atoms: C_1  and  N_2
REMARK    2  A    between atoms: C_3  and  C_4
REMARK    3  A    between atoms: C_4  and  C_5
REMARK    4  A    between atoms: C_8  and  C_11
REMARK    5  A    between atoms: C_19  and  N_20
REMARK    6  A    between atoms: N_20  and  S_21
REMARK    7  A    between atoms: S_21  and  C_24
REMARK                            x       y       z     vdW  Elec       q    Type
REMARK                         _______ _______ _______ _____ _____    ______ ____
ROOT
ATOM      1  C   UNL     1       9.141  -0.439  21.491  0.00  0.00    +0.150 C 
ATOM      2  N   UNL     1       8.567  -0.497  22.815  0.00  0.00    -0.330 N 
ATOM      3  C   UNL     1       8.338  -1.672  23.497  0.00  0.00    +0.069 A 
ATOM      4  C   UNL     1       8.388  -3.020  23.119  0.00  0.00    +0.030 A 
ATOM      5  C   UNL     1       8.195  -3.969  24.127  0.00  0.00    +0.026 A 
ATOM      6  C   UNL     1       7.961  -3.580  25.445  0.00  0.00    +0.050 A 
ATOM      7  C   UNL     1       7.847  -2.228  25.792  0.00  0.00    +0.054 A 
ATOM      8  C   UNL     1       8.039  -1.263  24.791  0.00  0.00    +0.091 A 
ATOM      9  N   UNL     1       7.974   0.109  24.859  0.00  0.00    -0.232 NA
ATOM     10  C   UNL     1       8.221   0.553  23.638  0.00  0.00    +0.115 A 
ENDROOT
BRANCH   6  11
ATOM     11  N   UNL     1       7.824  -4.573  26.450  0.00  0.00    -0.216 N 
ATOM     12  H   UNL     1       8.460  -5.368  26.432  0.00  0.00    +0.174 HD
BRANCH  11  13
ATOM     13  S   UNL     1       6.303  -4.962  27.067  0.00  0.00    +0.072 S 
ATOM     14  O   UNL     1       5.823  -3.881  27.895  0.00  0.00    -0.150 OA
ATOM     15  O   UNL     1       6.419  -6.309  27.587  0.00  0.00    -0.150 OA
BRANCH  13  16
ATOM     16  C   UNL     1       5.266  -5.046  25.617  0.00  0.00    +0.108 A 
ATOM     17  C   UNL     1       5.314  -6.177  24.797  0.00  0.00    +0.029 A 
ATOM     18  C   UNL     1       4.524  -6.229  23.647  0.00  0.00    +0.002 A 
ATOM     19  C   UNL     1       3.704  -5.150  23.313  0.00  0.00    +0.000 A 
ATOM     20  C   UNL     1       3.678  -4.012  24.120  0.00  0.00    +0.002 A 
ATOM     21  C   UNL     1       4.463  -3.952  25.272  0.00  0.00    +0.029 A 
ENDBRANCH  13  16
ENDBRANCH  11  13
ENDBRANCH   6  11
BRANCH  10  22
ATOM     22  C   UNL     1       8.070   1.987  23.196  0.00  0.00    +0.109 C 
BRANCH  22  23
ATOM     23  C   UNL     1       9.247   2.898  23.479  0.00  0.00    -0.040 A 
ATOM     24  C   UNL     1      10.577   2.480  23.321  0.00  0.00    +0.005 A 
ATOM     25  C   UNL     1      11.628   3.397  23.434  0.00  0.00    +0.016 A 
ATOM     26  C   UNL     1      11.356   4.737  23.726  0.00  0.00    +0.065 A 
ATOM     27  C   UNL     1      10.053   5.123  24.050  0.00  0.00    +0.016 A 
ATOM     28  C   UNL     1       9.007   4.205  23.937  0.00  0.00    +0.005 A 
BRANCH  26  29
ATOM     29  C   UNL     1      12.429   5.762  23.600  0.00  0.00    +0.308 C 
ATOM     30  N   UNL     1      13.255   5.781  22.600  0.00  0.00    -0.099 NA
ATOM     31  H   UNL     1      13.092   4.996  21.968  0.00  0.00    +0.363 HD
ATOM     32  N   UNL     1      12.618   6.710  24.558  0.00  0.00    -0.247 N 
ATOM     33  H   UNL     1      13.281   7.411  24.241  0.00  0.00    +0.288 HD
ATOM     34  H   UNL     1      11.781   7.114  24.959  0.00  0.00    +0.288 HD
ENDBRANCH  26  29
ENDBRANCH  22  23
ENDBRANCH  10  22
TORSDOF 6
ENDMDL
MODEL 6
REMARK VINA RESULT:      -7.4      3.977      8.892
REMARK  Name = 
REMARK  7 active torsions:
REMARK  status: ('A' for Active; 'I' for Inactive)
REMARK    1  A    between atoms: C_1  and  N_2
REMARK    2  A    between atoms: C_3  and  C_4
REMARK    3  A    between atoms: C_4  and  C_5
REMARK    4  A    between atoms: C_8  and  C_11
REMARK    5  A    between atoms: C_19  and  N_20
REMARK    6  A    between atoms: N_20  and  S_21
REMARK    7  A    between atoms: S_21  and  C_24
REMARK                            x       y       z     vdW  Elec       q    Type
REMARK                         _______ _______ _______ _____ _____    ______ ____
ROOT
ATOM      1  C   UNL     1       8.083  -2.707  21.860  0.00  0.00    +0.150 C 
ATOM      2  N   UNL     1       8.813  -1.956  22.854  0.00  0.00    -0.330 N 
ATOM      3  C   UNL     1       9.108  -0.615  22.734  0.00  0.00    +0.069 A 
ATOM      4  C   UNL     1       8.993   0.295  21.676  0.00  0.00    +0.030 A 
ATOM      5  C   UNL     1       9.296   1.632  21.954  0.00  0.00    +0.026 A 
ATOM      6  C   UNL     1       9.694   2.028  23.230  0.00  0.00    +0.050 A 
ATOM      7  C   UNL     1       9.868   1.092  24.258  0.00  0.00    +0.054 A 
ATOM      8  C   UNL     1       9.568  -0.254  23.994  0.00  0.00    +0.091 A 
ATOM      9  N   UNL     1       9.660  -1.357  24.809  0.00  0.00    -0.232 NA
ATOM     10  C   UNL     1       9.272  -2.390  24.079  0.00  0.00    +0.115 A 
ENDROOT
BRANCH   6  11
ATOM     11  N   UNL     1       9.940   3.402  23.487  0.00  0.00    -0.216 N 
ATOM     12  H   UNL     1      10.796   3.655  23.977  0.00  0.00    +0.174 HD
BRANCH  11  13
ATOM     13  S   UNL     1       8.662   4.455  23.809  0.00  0.00    +0.072 S 
ATOM     14  O   UNL     1       8.079   4.906  22.568  0.00  0.00    -0.150 OA
ATOM     15  O   UNL     1       9.162   5.398  24.789  0.00  0.00    -0.150 OA
BRANCH  13  16
ATOM     16  C   UNL     1       7.463   3.425  24.637  0.00  0.00    +0.108 A 
ATOM     17  C   UNL     1       7.568   3.210  26.014  0.00  0.00    +0.029 A 
ATOM     18  C   UNL     1       6.646   2.381  26.656  0.00  0.00    +0.002 A 
ATOM     19  C   UNL     1       5.636   1.758  25.920  0.00  0.00    +0.000 A 
ATOM     20  C   UNL     1       5.550   1.954  24.541  0.00  0.00    +0.002 A 
ATOM     21  C   UNL     1       6.466   2.783  23.892  0.00  0.00    +0.029 A 
ENDBRANCH  13  16
ENDBRANCH  11  13
ENDBRANCH   6  11
BRANCH  10  22
ATOM     22  C   UNL     1       9.388  -3.833  24.500  0.00  0.00    +0.109 C 
BRANCH  22  23
ATOM     23  C   UNL     1       8.164  -4.434  25.161  0.00  0.00    -0.040 A 
ATOM     24  C   UNL     1       7.039  -4.843  24.431  0.00  0.00    +0.005 A 
ATOM     25  C   UNL     1       6.000  -5.541  25.057  0.00  0.00    +0.016 A 
ATOM     26  C   UNL     1       6.070  -5.817  26.426  0.00  0.00    +0.065 A 
ATOM     27  C   UNL     1       7.104  -5.267  27.188  0.00  0.00    +0.016 A 
ATOM     28  C   UNL     1       8.138  -4.571  26.559  0.00  0.00    +0.005 A 
BRANCH  26  29
ATOM     29  C   UNL     1       5.107  -6.767  27.047  0.00  0.00    +0.308 C 
ATOM     30  N   UNL     1       5.318  -7.310  28.206  0.00  0.00    -0.099 NA
ATOM     31  H   UNL     1       6.224  -7.033  28.586  0.00  0.00    +0.363 HD
ATOM     32  N   UNL     1       3.969  -7.142  26.402  0.00  0.00    -0.247 N 
ATOM     33  H   UNL     1       3.360  -7.665  27.025  0.00  0.00    +0.288 HD
ATOM     34  H   UNL     1       3.480  -6.414  25.896  0.00  0.00    +0.288 HD
ENDBRANCH  26  29
ENDBRANCH  22  23
ENDBRANCH  10  22
TORSDOF 6
ENDMDL
MODEL 7
REMARK VINA RESULT:      -7.4      3.468     10.130
REMARK  Name = 
REMARK  7 active torsions:
REMARK  status: ('A' for Active; 'I' for Inactive)
REMARK    1  A    between atoms: C_1  and  N_2
REMARK    2  A    between atoms: C_3  and  C_4
REMARK    3  A    between atoms: C_4  and  C_5
REMARK    4  A    between atoms: C_8  and  C_11
REMARK    5  A    between atoms: C_19  and  N_20
REMARK    6  A    between atoms: N_20  and  S_21
REMARK    7  A    between atoms: S_21  and  C_24
REMARK                            x       y       z     vdW  Elec       q    Type
REMARK                         _______ _______ _______ _____ _____    ______ ____
ROOT
ATOM      1  C   UNL     1       8.214  -4.964  24.088  0.00  0.00    +0.150 C 
ATOM      2  N   UNL     1       8.126  -3.848  25.001  0.00  0.00    -0.330 N 
ATOM      3  C   UNL     1       8.801  -2.660  24.822  0.00  0.00    +0.069 A 
ATOM      4  C   UNL     1       9.809  -2.260  23.936  0.00  0.00    +0.030 A 
ATOM      5  C   UNL     1      10.188  -0.915  23.973  0.00  0.00    +0.026 A 
ATOM      6  C   UNL     1       9.584  -0.022  24.857  0.00  0.00    +0.050 A 
ATOM      7  C   UNL     1       8.626  -0.455  25.783  0.00  0.00    +0.054 A 
ATOM      8  C   UNL     1       8.235  -1.803  25.758  0.00  0.00    +0.091 A 
ATOM      9  N   UNL     1       7.337  -2.479  26.550  0.00  0.00    -0.232 NA
ATOM     10  C   UNL     1       7.340  -3.733  26.127  0.00  0.00    +0.115 A 
ENDROOT
BRANCH   6  11
ATOM     11  N   UNL     1       9.958   1.347  24.827  0.00  0.00    -0.216 N 
ATOM     12  H   UNL     1      10.309   1.770  25.684  0.00  0.00    +0.174 HD
BRANCH  11  13
ATOM     13  S   UNL     1       9.129   2.440  23.846  0.00  0.00    +0.072 S 
ATOM     14  O   UNL     1       7.901   2.838  24.492  0.00  0.00    -0.150 OA
ATOM     15  O   UNL     1       9.124   1.857  22.520  0.00  0.00    -0.150 OA
BRANCH  13  16
ATOM     16  C   UNL     1      10.207   3.861  23.791  0.00  0.00    +0.108 A 
ATOM     17  C   UNL     1      11.511   3.723  23.306  0.00  0.00    +0.029 A 
ATOM     18  C   UNL     1      12.362   4.829  23.290  0.00  0.00    +0.002 A 
ATOM     19  C   UNL     1      11.916   6.061  23.771  0.00  0.00    +0.000 A 
ATOM     20  C   UNL     1      10.622   6.189  24.279  0.00  0.00    +0.002 A 
ATOM     21  C   UNL     1       9.764   5.090  24.296  0.00  0.00    +0.029 A 
ENDBRANCH  13  16
ENDBRANCH  11  13
ENDBRANCH   6  11
BRANCH  10  22
ATOM     22  C   UNL     1       6.648  -4.877  26.823  0.00  0.00    +0.109 C 
BRANCH  22  23
ATOM     23  C   UNL     1       5.372  -5.376  26.174  0.00  0.00    -0.040 A 
ATOM     24  C   UNL     1       4.552  -4.550  25.392  0.00  0.00    +0.005 A 
ATOM     25  C   UNL     1       3.475  -5.088  24.679  0.00  0.00    +0.016 A 
ATOM     26  C   UNL     1       3.198  -6.456  24.759  0.00  0.00    +0.065 A 
ATOM     27  C   UNL     1       3.905  -7.251  25.665  0.00  0.00    +0.016 A 
ATOM     28  C   UNL     1       4.978  -6.710  26.376  0.00  0.00    +0.005 A 
BRANCH  26  29
ATOM     29  C   UNL     1       2.226  -7.078  23.820  0.00  0.00    +0.308 C 
ATOM     30  N   UNL     1       2.313  -8.318  23.451  0.00  0.00    -0.099 NA
ATOM     31  H   UNL     1       3.139  -8.767  23.851  0.00  0.00    +0.363 HD
ATOM     32  N   UNL     1       1.213  -6.353  23.268  0.00  0.00    -0.247 N 
ATOM     33  H   UNL     1       0.563  -6.963  22.781  0.00  0.00    +0.288 HD
ATOM     34  H   UNL     1       0.750  -5.693  23.880  0.00  0.00    +0.288 HD
ENDBRANCH  26  29
ENDBRANCH  22  23
ENDBRANCH  10  22
TORSDOF 6
ENDMDL
MODEL 8
REMARK VINA RESULT:      -7.1      2.807      3.740
REMARK  Name = 
REMARK  7 active torsions:
REMARK  status: ('A' for Active; 'I' for Inactive)
REMARK    1  A    between atoms: C_1  and  N_2
REMARK    2  A    between atoms: C_3  and  C_4
REMARK    3  A    between atoms: C_4  and  C_5
REMARK    4  A    between atoms: C_8  and  C_11
REMARK    5  A    between atoms: C_19  and  N_20
REMARK    6  A    between atoms: N_20  and  S_21
REMARK    7  A    between atoms: S_21  and  C_24
REMARK                            x       y       z     vdW  Elec       q    Type
REMARK                         _______ _______ _______ _____ _____    ______ ____
ROOT
ATOM      1  C   UNL     1       9.367  -0.545  21.455  0.00  0.00    +0.150 C 
ATOM      2  N   UNL     1       9.220  -1.202  22.732  0.00  0.00    -0.330 N 
ATOM      3  C   UNL     1       8.361  -2.257  22.953  0.00  0.00    +0.069 A 
ATOM      4  C   UNL     1       7.343  -2.836  22.184  0.00  0.00    +0.030 A 
ATOM      5  C   UNL     1       6.739  -3.988  22.697  0.00  0.00    +0.026 A 
ATOM      6  C   UNL     1       7.138  -4.526  23.920  0.00  0.00    +0.050 A 
ATOM      7  C   UNL     1       8.110  -3.895  24.707  0.00  0.00    +0.054 A 
ATOM      8  C   UNL     1       8.726  -2.737  24.205  0.00  0.00    +0.091 A 
ATOM      9  N   UNL     1       9.687  -1.931  24.769  0.00  0.00    -0.232 NA
ATOM     10  C   UNL     1       9.919  -0.964  23.896  0.00  0.00    +0.115 A 
ENDROOT
BRANCH   6  11
ATOM     11  N   UNL     1       6.537  -5.727  24.381  0.00  0.00    -0.216 N 
ATOM     12  H   UNL     1       6.453  -6.504  23.729  0.00  0.00    +0.174 HD
BRANCH  11  13
ATOM     13  S   UNL     1       5.289  -5.680  25.513  0.00  0.00    +0.072 S 
ATOM     14  O   UNL     1       4.938  -4.308  25.795  0.00  0.00    -0.150 OA
ATOM     15  O   UNL     1       5.681  -6.586  26.574  0.00  0.00    -0.150 OA
BRANCH  13  16
ATOM     16  C   UNL     1       3.915  -6.434  24.660  0.00  0.00    +0.108 A 
ATOM     17  C   UNL     1       3.405  -5.837  23.504  0.00  0.00    +0.029 A 
ATOM     18  C   UNL     1       2.312  -6.412  22.854  0.00  0.00    +0.002 A 
ATOM     19  C   UNL     1       1.723  -7.569  23.368  0.00  0.00    +0.000 A 
ATOM     20  C   UNL     1       2.218  -8.148  24.537  0.00  0.00    +0.002 A 
ATOM     21  C   UNL     1       3.311  -7.581  25.192  0.00  0.00    +0.029 A 
ENDBRANCH  13  16
ENDBRANCH  11  13
ENDBRANCH   6  11
BRANCH  10  22
ATOM     22  C   UNL     1      10.762   0.255  24.167  0.00  0.00    +0.109 C 
BRANCH  22  23
ATOM     23  C   UNL     1      10.020   1.575  24.244  0.00  0.00    -0.040 A 
ATOM     24  C   UNL     1       8.809   1.717  24.937  0.00  0.00    +0.005 A 
ATOM     25  C   UNL     1       8.241   2.982  25.122  0.00  0.00    +0.016 A 
ATOM     26  C   UNL     1       8.871   4.114  24.597  0.00  0.00    +0.065 A 
ATOM     27  C   UNL     1       9.983   3.961  23.765  0.00  0.00    +0.016 A 
ATOM     28  C   UNL     1      10.547   2.697  23.582  0.00  0.00    +0.005 A 
BRANCH  26  29
ATOM     29  C   UNL     1       8.420   5.475  24.998  0.00  0.00    +0.308 C 
ATOM     30  N   UNL     1       9.246   6.462  25.154  0.00  0.00    -0.099 NA
ATOM     31  H   UNL     1      10.212   6.164  25.010  0.00  0.00    +0.363 HD
ATOM     32  N   UNL     1       7.110   5.736  25.261  0.00  0.00    -0.247 N 
ATOM     33  H   UNL     1       6.959   6.735  25.366  0.00  0.00    +0.288 HD
ATOM     34  H   UNL     1       6.434   5.300  24.645  0.00  0.00    +0.288 HD
ENDBRANCH  26  29
ENDBRANCH  22  23
ENDBRANCH  10  22
TORSDOF 6
ENDMDL
MODEL 9
REMARK VINA RESULT:      -7.1      2.847      4.253
REMARK  Name = 
REMARK  7 active torsions:
REMARK  status: ('A' for Active; 'I' for Inactive)
REMARK    1  A    between atoms: C_1  and  N_2
REMARK    2  A    between atoms: C_3  and  C_4
REMARK    3  A    between atoms: C_4  and  C_5
REMARK    4  A    between atoms: C_8  and  C_11
REMARK    5  A    between atoms: C_19  and  N_20
REMARK    6  A    between atoms: N_20  and  S_21
REMARK    7  A    between atoms: S_21  and  C_24
REMARK                            x       y       z     vdW  Elec       q    Type
REMARK                         _______ _______ _______ _____ _____    ______ ____
ROOT
ATOM      1  C   UNL     1       8.828  -2.344  26.006  0.00  0.00    +0.150 C 
ATOM      2  N   UNL     1       8.477  -2.986  24.762  0.00  0.00    -0.330 N 
ATOM      3  C   UNL     1       7.509  -3.961  24.652  0.00  0.00    +0.069 A 
ATOM      4  C   UNL     1       6.784  -4.695  25.599  0.00  0.00    +0.030 A 
ATOM      5  C   UNL     1       5.784  -5.542  25.113  0.00  0.00    +0.026 A 
ATOM      6  C   UNL     1       5.530  -5.645  23.746  0.00  0.00    +0.050 A 
ATOM      7  C   UNL     1       6.311  -4.955  22.810  0.00  0.00    +0.054 A 
ATOM      8  C   UNL     1       7.319  -4.099  23.283  0.00  0.00    +0.091 A 
ATOM      9  N   UNL     1       8.220  -3.326  22.590  0.00  0.00    -0.232 NA
ATOM     10  C   UNL     1       8.963  -2.717  23.500  0.00  0.00    +0.115 A 
ENDROOT
BRANCH   6  11
ATOM     11  N   UNL     1       4.471  -6.475  23.295  0.00  0.00    -0.216 N 
ATOM     12  H   UNL     1       4.647  -7.097  22.508  0.00  0.00    +0.174 HD
BRANCH  11  13
ATOM     13  S   UNL     1       2.873  -5.939  23.365  0.00  0.00    +0.072 S 
ATOM     14  O   UNL     1       2.137  -6.454  22.235  0.00  0.00    -0.150 OA
ATOM     15  O   UNL     1       2.944  -4.516  23.627  0.00  0.00    -0.150 OA
BRANCH  13  16
ATOM     16  C   UNL     1       2.231  -6.712  24.839  0.00  0.00    +0.108 A 
ATOM     17  C   UNL     1       1.721  -8.012  24.773  0.00  0.00    +0.029 A 
ATOM     18  C   UNL     1       1.193  -8.605  25.921  0.00  0.00    +0.002 A 
ATOM     19  C   UNL     1       1.160  -7.895  27.123  0.00  0.00    +0.000 A 
ATOM     20  C   UNL     1       1.646  -6.588  27.179  0.00  0.00    +0.002 A 
ATOM     21  C   UNL     1       2.178  -5.989  26.037  0.00  0.00    +0.029 A 
ENDBRANCH  13  16
ENDBRANCH  11  13
ENDBRANCH   6  11
BRANCH  10  22
ATOM     22  C   UNL     1      10.203  -1.913  23.201  0.00  0.00    +0.109 C 
BRANCH  22  23
ATOM     23  C   UNL     1      10.008  -0.417  23.057  0.00  0.00    -0.040 A 
ATOM     24  C   UNL     1       9.462   0.162  21.903  0.00  0.00    +0.005 A 
ATOM     25  C   UNL     1       9.147   1.525  21.873  0.00  0.00    +0.016 A 
ATOM     26  C   UNL     1       9.396   2.324  22.994  0.00  0.00    +0.065 A 
ATOM     27  C   UNL     1      10.092   1.790  24.081  0.00  0.00    +0.016 A 
ATOM     28  C   UNL     1      10.405   0.429  24.106  0.00  0.00    +0.005 A 
BRANCH  26  29
ATOM     29  C   UNL     1       8.840   3.703  23.067  0.00  0.00    +0.308 C 
ATOM     30  N   UNL     1       7.943   4.134  22.235  0.00  0.00    -0.099 NA
ATOM     31  H   UNL     1       7.722   3.430  21.529  0.00  0.00    +0.363 HD
ATOM     32  N   UNL     1       9.281   4.595  23.995  0.00  0.00    -0.247 N 
ATOM     33  H   UNL     1       8.693   5.423  24.003  0.00  0.00    +0.288 HD
ATOM     34  H   UNL     1       9.454   4.227  24.923  0.00  0.00    +0.288 HD
ENDBRANCH  26  29
ENDBRANCH  22  23
ENDBRANCH  10  22
TORSDOF 6
ENDMDL
