MODEL 1
REMARK VINA RESULT:      -7.9      0.000      0.000
REMARK  Name = 
REMARK  7 active torsions:
REMARK  status: ('A' for Active; 'I' for Inactive)
REMARK    1  A    between atoms: C_6  and  O_7
REMARK    2  A    between atoms: O_7  and  C_8
REMARK    3  A    between atoms: C_8  and  C_9
REMARK    4  A    between atoms: C_9  and  C_10
REMARK    5  A    between atoms: C_10  and  C_11
REMARK    6  A    between atoms: C_11  and  N_12
REMARK    7  A    between atoms: N_15  and  C_18
REMARK                            x       y       z     vdW  Elec       q    Type
REMARK                         _______ _______ _______ _____ _____    ______ ____
ROOT
ATOM      1  C   UNL     1      10.066  -2.189  23.393  0.00  0.00    +0.019 C 
ENDROOT
BRANCH   1   2
ATOM      2  C   UNL     1       9.368  -1.728  22.109  0.00  0.00    +0.042 C 
BRANCH   2   3
ATOM      3  C   UNL     1       9.296  -0.210  22.021  0.00  0.00    +0.229 C 
BRANCH   3   4
ATOM      4  O   UNL     1       8.420   0.294  23.029  0.00  0.00    -0.492 OA
BRANCH   4  12
ATOM      5  O   UNL     1      13.022   5.605  23.042  0.00  0.00    -0.268 OA
ATOM      6  C   UNL     1      11.924   5.172  23.371  0.00  0.00    +0.249 A 
ATOM      7  C   UNL     1      10.969   6.027  24.118  0.00  0.00    +0.071 A 
ATOM      8  C   UNL     1       9.756   5.575  24.469  0.00  0.00    +0.015 A 
ATOM      9  C   UNL     1       9.355   4.216  24.113  0.00  0.00    -0.001 A 
ATOM     10  C   UNL     1      10.258   3.390  23.427  0.00  0.00    +0.053 A 
ATOM     11  C   UNL     1       9.914   2.082  23.085  0.00  0.00    +0.072 A 
ATOM     12  C   UNL     1       8.650   1.588  23.412  0.00  0.00    +0.122 A 
ATOM     13  C   UNL     1       7.743   2.416  24.083  0.00  0.00    +0.046 A 
ATOM     14  C   UNL     1       8.093   3.722  24.437  0.00  0.00    +0.013 A 
ATOM     15  N   UNL     1      11.518   3.898  23.081  0.00  0.00    -0.322 N 
ATOM     16  H   UNL     1      12.178   3.325  22.573  0.00  0.00    +0.169 HD
ENDBRANCH   4  12
ENDBRANCH   3   4
ENDBRANCH   2   3
ENDBRANCH   1   2
BRANCH   1  17
ATOM     17  C   UNL     1       9.162  -2.920  24.402  0.00  0.00    +0.084 C 
BRANCH  17  18
ATOM     18  N   UNL     1       9.119  -4.379  24.235  0.00  0.00    -0.299 NA
ATOM     19  C   UNL     1       7.839  -4.805  23.607  0.00  0.00    +0.103 C 
ATOM     20  C   UNL     1       6.583  -4.690  24.513  0.00  0.00    +0.120 C 
ATOM     21  N   UNL     1       6.818  -5.393  25.784  0.00  0.00    -0.327 N 
ATOM     22  C   UNL     1       8.058  -5.025  26.477  0.00  0.00    +0.120 C 
ATOM     23  C   UNL     1       9.265  -5.121  25.511  0.00  0.00    +0.103 C 
BRANCH  21  24
ATOM     24  C   UNL     1       5.737  -5.936  26.488  0.00  0.00    +0.038 A 
ATOM     25  C   UNL     1       5.742  -5.793  27.899  0.00  0.00    +0.024 A 
ATOM     26  C   UNL     1       4.666  -6.153  28.699  0.00  0.00    +0.003 A 
ATOM     27  C   UNL     1       3.517  -6.674  28.125  0.00  0.00    +0.016 A 
ATOM     28  C   UNL     1       3.487  -6.865  26.733  0.00  0.00    +0.021 A 
ATOM     29  S   UNL     1       2.148  -7.496  25.843  0.00  0.00    -0.097 S 
ATOM     30  C   UNL     1       2.997  -7.427  24.376  0.00  0.00    +0.046 A 
ATOM     31  C   UNL     1       4.267  -6.930  24.546  0.00  0.00    +0.018 A 
ATOM     32  C   UNL     1       4.570  -6.538  25.905  0.00  0.00    +0.010 A 
ENDBRANCH  21  24
ENDBRANCH  17  18
ENDBRANCH   1  17
TORSDOF 7
ENDMDL
MODEL 2
REMARK VINA RESULT:      -7.8      3.827      7.383
REMARK  Name = 
REMARK  7 active torsions:
REMARK  status: ('A' for Active; 'I' for Inactive)
REMARK    1  A    between atoms: C_6  and  O_7
REMARK    2  A    between atoms: O_7  and  C_8
REMARK    3  A    between atoms: C_8  and  C_9
REMARK    4  A    between atoms: C_9  and  C_10
REMARK    5  A    between atoms: C_10  and  C_11
REMARK    6  A    between atoms: C_11  and  N_12
REMARK    7  A    between atoms: N_15  and  C_18
REMARK                            x       y       z     vdW  Elec       q    Type
REMARK                         _______ _______ _______ _____ _____    ______ ____
ROOT
ATOM      1  C   UNL     1       6.667  -3.989  26.677  0.00  0.00    +0.019 C 
ENDROOT
BRANCH   1   2
ATOM      2  C   UNL     1       7.771  -4.888  26.109  0.00  0.00    +0.042 C 
BRANCH   2   3
ATOM      3  C   UNL     1       8.163  -4.477  24.697  0.00  0.00    +0.229 C 
BRANCH   3   4
ATOM      4  O   UNL     1       9.351  -3.688  24.733  0.00  0.00    -0.492 OA
BRANCH   4  12
ATOM      5  O   UNL     1      11.037   3.085  23.910  0.00  0.00    -0.268 OA
ATOM      6  C   UNL     1      10.568   2.058  23.433  0.00  0.00    +0.249 A 
ATOM      7  C   UNL     1      10.088   2.029  22.029  0.00  0.00    +0.071 A 
ATOM      8  C   UNL     1       9.589   0.909  21.485  0.00  0.00    +0.015 A 
ATOM      9  C   UNL     1       9.514  -0.314  22.280  0.00  0.00    -0.001 A 
ATOM     10  C   UNL     1       9.942  -0.293  23.616  0.00  0.00    +0.053 A 
ATOM     11  C   UNL     1       9.869  -1.439  24.409  0.00  0.00    +0.072 A 
ATOM     12  C   UNL     1       9.379  -2.628  23.866  0.00  0.00    +0.122 A 
ATOM     13  C   UNL     1       8.965  -2.654  22.530  0.00  0.00    +0.046 A 
ATOM     14  C   UNL     1       9.027  -1.502  21.740  0.00  0.00    +0.013 A 
ATOM     15  N   UNL     1      10.454   0.898  24.148  0.00  0.00    -0.322 N 
ATOM     16  H   UNL     1      10.782   0.931  25.105  0.00  0.00    +0.169 HD
ENDBRANCH   4  12
ENDBRANCH   3   4
ENDBRANCH   2   3
ENDBRANCH   1   2
BRANCH   1  17
ATOM     17  C   UNL     1       7.014  -2.490  26.743  0.00  0.00    +0.084 C 
BRANCH  17  18
ATOM     18  N   UNL     1       5.851  -1.594  26.691  0.00  0.00    -0.299 NA
ATOM     19  C   UNL     1       5.336  -1.468  25.302  0.00  0.00    +0.103 C 
ATOM     20  C   UNL     1       6.234  -0.655  24.330  0.00  0.00    +0.120 C 
ATOM     21  N   UNL     1       6.534   0.663  24.914  0.00  0.00    -0.327 N 
ATOM     22  C   UNL     1       7.056   0.631  26.284  0.00  0.00    +0.120 C 
ATOM     23  C   UNL     1       6.140  -0.227  27.191  0.00  0.00    +0.103 C 
BRANCH  21  24
ATOM     24  C   UNL     1       6.791   1.752  24.073  0.00  0.00    +0.038 A 
ATOM     25  C   UNL     1       6.383   1.640  22.720  0.00  0.00    +0.024 A 
ATOM     26  C   UNL     1       6.445   2.697  21.822  0.00  0.00    +0.003 A 
ATOM     27  C   UNL     1       6.916   3.934  22.235  0.00  0.00    +0.016 A 
ATOM     28  C   UNL     1       7.365   4.075  23.559  0.00  0.00    +0.021 A 
ATOM     29  S   UNL     1       7.979   5.533  24.252  0.00  0.00    -0.097 S 
ATOM     30  C   UNL     1       8.300   4.777  25.737  0.00  0.00    +0.046 A 
ATOM     31  C   UNL     1       7.943   3.450  25.720  0.00  0.00    +0.018 A 
ATOM     32  C   UNL     1       7.341   3.016  24.479  0.00  0.00    +0.010 A 
ENDBRANCH  21  24
ENDBRANCH  17  18
ENDBRANCH   1  17
TORSDOF 7
ENDMDL
MODEL 3
REMARK VINA RESULT:      -7.8      4.035     10.799
REMARK  Name = 
REMARK  7 active torsions:
REMARK  status: ('A' for Active; 'I' for Inactive)
REMARK    1  A    between atoms: C_6  and  O_7
REMARK    2  A    between atoms: O_7  and  C_8
REMARK    3  A    between atoms: C_8  and  C_9
REMARK    4  A    between atoms: C_9  and  C_10
REMARK    5  A    between atoms: C_10  and  C_11
REMARK    6  A    between atoms: C_11  and  N_12
REMARK    7  A    between atoms: N_15  and  C_18
REMARK                            x       y       z     vdW  Elec       q    Type
REMARK                         _______ _______ _______ _____ _____    ______ ____
ROOT
ATOM      1  C   UNL     1       7.576  -2.098  23.386  0.00  0.00    +0.019 C 
ENDROOT
BRANCH   1   2
ATOM      2  C   UNL     1       6.342  -2.735  22.737  0.00  0.00    +0.042 C 
BRANCH   2   3
ATOM      3  C   UNL     1       6.687  -4.033  22.021  0.00  0.00    +0.229 C 
BRANCH   3   4
ATOM      4  O   UNL     1       7.315  -4.936  22.931  0.00  0.00    -0.492 OA
BRANCH   4  12
ATOM      5  O   UNL     1       6.478  -5.984  29.830  0.00  0.00    -0.268 OA
ATOM      6  C   UNL     1       6.051  -6.129  28.690  0.00  0.00    +0.249 A 
ATOM      7  C   UNL     1       4.754  -6.809  28.451  0.00  0.00    +0.071 A 
ATOM      8  C   UNL     1       4.263  -6.960  27.213  0.00  0.00    +0.015 A 
ATOM      9  C   UNL     1       5.009  -6.445  26.067  0.00  0.00    -0.001 A 
ATOM     10  C   UNL     1       6.248  -5.821  26.277  0.00  0.00    +0.053 A 
ATOM     11  C   UNL     1       6.994  -5.332  25.205  0.00  0.00    +0.072 A 
ATOM     12  C   UNL     1       6.500  -5.449  23.905  0.00  0.00    +0.122 A 
ATOM     13  C   UNL     1       5.258  -6.058  23.695  0.00  0.00    +0.046 A 
ATOM     14  C   UNL     1       4.516  -6.559  24.769  0.00  0.00    +0.013 A 
ATOM     15  N   UNL     1       6.728  -5.686  27.587  0.00  0.00    -0.322 N 
ATOM     16  H   UNL     1       7.612  -5.226  27.763  0.00  0.00    +0.169 HD
ENDBRANCH   4  12
ENDBRANCH   3   4
ENDBRANCH   2   3
ENDBRANCH   1   2
BRANCH   1  17
ATOM     17  C   UNL     1       7.852  -0.640  22.977  0.00  0.00    +0.084 C 
BRANCH  17  18
ATOM     18  N   UNL     1       9.206  -0.400  22.460  0.00  0.00    -0.299 NA
ATOM     19  C   UNL     1      10.158  -0.121  23.567  0.00  0.00    +0.103 C 
ATOM     20  C   UNL     1       9.984   1.257  24.263  0.00  0.00    +0.120 C 
ATOM     21  N   UNL     1      10.001   2.330  23.257  0.00  0.00    -0.327 N 
ATOM     22  C   UNL     1       9.082   2.139  22.129  0.00  0.00    +0.120 C 
ATOM     23  C   UNL     1       9.277   0.735  21.506  0.00  0.00    +0.103 C 
BRANCH  21  24
ATOM     24  C   UNL     1      10.443   3.609  23.613  0.00  0.00    +0.038 A 
ATOM     25  C   UNL     1      11.794   3.933  23.332  0.00  0.00    +0.024 A 
ATOM     26  C   UNL     1      12.317   5.208  23.499  0.00  0.00    +0.003 A 
ATOM     27  C   UNL     1      11.507   6.237  23.954  0.00  0.00    +0.016 A 
ATOM     28  C   UNL     1      10.170   5.949  24.279  0.00  0.00    +0.021 A 
ATOM     29  S   UNL     1       9.015   7.096  24.855  0.00  0.00    -0.097 S 
ATOM     30  C   UNL     1       7.812   5.911  25.019  0.00  0.00    +0.046 A 
ATOM     31  C   UNL     1       8.265   4.670  24.640  0.00  0.00    +0.018 A 
ATOM     32  C   UNL     1       9.625   4.663  24.148  0.00  0.00    +0.010 A 
ENDBRANCH  21  24
ENDBRANCH  17  18
ENDBRANCH   1  17
TORSDOF 7
ENDMDL
MODEL 4
REMARK VINA RESULT:      -7.7      2.672      6.201
REMARK  Name = 
REMARK  7 active torsions:
REMARK  status: ('A' for Active; 'I' for Inactive)
REMARK    1  A    between atoms: C_6  and  O_7
REMARK    2  A    between atoms: O_7  and  C_8
REMARK    3  A    between atoms: C_8  and  C_9
REMARK    4  A    between atoms: C_9  and  C_10
REMARK    5  A    between atoms: C_10  and  C_11
REMARK    6  A    between atoms: C_11  and  N_12
REMARK    7  A    between atoms: N_15  and  C_18
REMARK                            x       y       z     vdW  Elec       q    Type
REMARK                         _______ _______ _______ _____ _____    ______ ____
ROOT
ATOM      1  C   UNL     1       7.885   2.285  24.257  0.00  0.00    +0.019 C 
ENDROOT
BRANCH   1   2
ATOM      2  C   UNL     1       9.222   2.446  23.524  0.00  0.00    +0.042 C 
BRANCH   2   3
ATOM      3  C   UNL     1       9.970   1.125  23.419  0.00  0.00    +0.229 C 
BRANCH   3   4
ATOM      4  O   UNL     1       9.352   0.295  22.436  0.00  0.00    -0.492 OA
BRANCH   4  12
ATOM      5  O   UNL     1       5.694  -5.571  21.171  0.00  0.00    -0.268 OA
ATOM      6  C   UNL     1       6.522  -4.981  21.856  0.00  0.00    +0.249 A 
ATOM      7  C   UNL     1       7.188  -5.668  22.991  0.00  0.00    +0.071 A 
ATOM      8  C   UNL     1       8.110  -5.044  23.738  0.00  0.00    +0.015 A 
ATOM      9  C   UNL     1       8.477  -3.662  23.438  0.00  0.00    -0.001 A 
ATOM     10  C   UNL     1       7.837  -2.995  22.383  0.00  0.00    +0.053 A 
ATOM     11  C   UNL     1       8.151  -1.670  22.079  0.00  0.00    +0.072 A 
ATOM     12  C   UNL     1       9.125  -0.999  22.821  0.00  0.00    +0.122 A 
ATOM     13  C   UNL     1       9.774  -1.669  23.864  0.00  0.00    +0.046 A 
ATOM     14  C   UNL     1       9.450  -2.992  24.176  0.00  0.00    +0.013 A 
ATOM     15  N   UNL     1       6.876  -3.680  21.627  0.00  0.00    -0.322 N 
ATOM     16  H   UNL     1       6.414  -3.223  20.852  0.00  0.00    +0.169 HD
ENDBRANCH   4  12
ENDBRANCH   3   4
ENDBRANCH   2   3
ENDBRANCH   1   2
BRANCH   1  17
ATOM     17  C   UNL     1       7.950   1.476  25.565  0.00  0.00    +0.084 C 
BRANCH  17  18
ATOM     18  N   UNL     1       6.640   1.161  26.150  0.00  0.00    -0.299 NA
ATOM     19  C   UNL     1       6.788   0.319  27.368  0.00  0.00    +0.103 C 
ATOM     20  C   UNL     1       7.228  -1.148  27.113  0.00  0.00    +0.120 C 
ATOM     21  N   UNL     1       6.329  -1.776  26.132  0.00  0.00    -0.327 N 
ATOM     22  C   UNL     1       6.132  -1.015  24.893  0.00  0.00    +0.120 C 
ATOM     23  C   UNL     1       5.735   0.447  25.215  0.00  0.00    +0.103 C 
BRANCH  21  24
ATOM     24  C   UNL     1       6.125  -3.160  26.163  0.00  0.00    +0.038 A 
ATOM     25  C   UNL     1       6.926  -3.915  27.056  0.00  0.00    +0.024 A 
ATOM     26  C   UNL     1       6.726  -5.269  27.291  0.00  0.00    +0.003 A 
ATOM     27  C   UNL     1       5.701  -5.943  26.645  0.00  0.00    +0.016 A 
ATOM     28  C   UNL     1       4.908  -5.237  25.723  0.00  0.00    +0.021 A 
ATOM     29  S   UNL     1       3.590  -5.904  24.828  0.00  0.00    -0.097 S 
ATOM     30  C   UNL     1       3.316  -4.445  24.005  0.00  0.00    +0.046 A 
ATOM     31  C   UNL     1       4.196  -3.466  24.400  0.00  0.00    +0.018 A 
ATOM     32  C   UNL     1       5.107  -3.877  25.445  0.00  0.00    +0.010 A 
ENDBRANCH  21  24
ENDBRANCH  17  18
ENDBRANCH   1  17
TORSDOF 7
ENDMDL
MODEL 5
REMARK VINA RESULT:      -7.7      3.200      5.703
REMARK  Name = 
REMARK  7 active torsions:
REMARK  status: ('A' for Active; 'I' for Inactive)
REMARK    1  A    between atoms: C_6  and  O_7
REMARK    2  A    between atoms: O_7  and  C_8
REMARK    3  A    between atoms: C_8  and  C_9
REMARK    4  A    between atoms: C_9  and  C_10
REMARK    5  A    between atoms: C_10  and  C_11
REMARK    6  A    between atoms: C_11  and  N_12
REMARK    7  A    between atoms: N_15  and  C_18
REMARK                            x       y       z     vdW  Elec       q    Type
REMARK                         _______ _______ _______ _____ _____    ______ ____
ROOT
ATOM      1  C   UNL     1       6.621   4.092  25.563  0.00  0.00    +0.019 C 
ENDROOT
BRANCH   1   2
ATOM      2  C   UNL     1       7.819   5.048  25.598  0.00  0.00    +0.042 C 
BRANCH   2   3
ATOM      3  C   UNL     1       8.640   4.970  24.319  0.00  0.00    +0.229 C 
BRANCH   3   4
ATOM      4  O   UNL     1       9.620   3.939  24.433  0.00  0.00    -0.492 OA
BRANCH   4  12
ATOM      5  O   UNL     1      10.419  -3.018  23.836  0.00  0.00    -0.268 OA
ATOM      6  C   UNL     1      10.041  -1.961  23.342  0.00  0.00    +0.249 A 
ATOM      7  C   UNL     1       9.420  -1.939  21.994  0.00  0.00    +0.071 A 
ATOM      8  C   UNL     1       8.984  -0.796  21.446  0.00  0.00    +0.015 A 
ATOM      9  C   UNL     1       9.116   0.460  22.182  0.00  0.00    -0.001 A 
ATOM     10  C   UNL     1       9.723   0.455  23.447  0.00  0.00    +0.053 A 
ATOM     11  C   UNL     1       9.879   1.639  24.170  0.00  0.00    +0.072 A 
ATOM     12  C   UNL     1       9.413   2.843  23.640  0.00  0.00    +0.122 A 
ATOM     13  C   UNL     1       8.794   2.846  22.385  0.00  0.00    +0.046 A 
ATOM     14  C   UNL     1       8.649   1.663  21.655  0.00  0.00    +0.013 A 
ATOM     15  N   UNL     1      10.169  -0.760  23.983  0.00  0.00    -0.322 N 
ATOM     16  H   UNL     1      10.596  -0.788  24.900  0.00  0.00    +0.169 HD
ENDBRANCH   4  12
ENDBRANCH   3   4
ENDBRANCH   2   3
ENDBRANCH   1   2
BRANCH   1  17
ATOM     17  C   UNL     1       6.719   2.886  26.515  0.00  0.00    +0.084 C 
BRANCH  17  18
ATOM     18  N   UNL     1       5.570   1.972  26.458  0.00  0.00    -0.299 NA
ATOM     19  C   UNL     1       5.711   0.875  27.453  0.00  0.00    +0.103 C 
ATOM     20  C   UNL     1       6.799  -0.184  27.127  0.00  0.00    +0.120 C 
ATOM     21  N   UNL     1       6.589  -0.713  25.769  0.00  0.00    -0.327 N 
ATOM     22  C   UNL     1       6.447   0.304  24.721  0.00  0.00    +0.120 C 
ATOM     23  C   UNL     1       5.379   1.350  25.125  0.00  0.00    +0.103 C 
BRANCH  21  24
ATOM     24  C   UNL     1       7.009  -2.011  25.458  0.00  0.00    +0.038 A 
ATOM     25  C   UNL     1       7.812  -2.682  26.414  0.00  0.00    +0.024 A 
ATOM     26  C   UNL     1       8.172  -4.018  26.295  0.00  0.00    +0.003 A 
ATOM     27  C   UNL     1       7.737  -4.761  25.208  0.00  0.00    +0.016 A 
ATOM     28  C   UNL     1       6.970  -4.122  24.219  0.00  0.00    +0.021 A 
ATOM     29  S   UNL     1       6.340  -4.881  22.802  0.00  0.00    -0.097 S 
ATOM     30  C   UNL     1       5.670  -3.429  22.234  0.00  0.00    +0.046 A 
ATOM     31  C   UNL     1       5.907  -2.387  23.098  0.00  0.00    +0.018 A 
ATOM     32  C   UNL     1       6.617  -2.766  24.300  0.00  0.00    +0.010 A 
ENDBRANCH  21  24
ENDBRANCH  17  18
ENDBRANCH   1  17
TORSDOF 7
ENDMDL
MODEL 6
REMARK VINA RESULT:      -7.6      4.089      9.884
REMARK  Name = 
REMARK  7 active torsions:
REMARK  status: ('A' for Active; 'I' for Inactive)
REMARK    1  A    between atoms: C_6  and  O_7
REMARK    2  A    between atoms: O_7  and  C_8
REMARK    3  A    between atoms: C_8  and  C_9
REMARK    4  A    between atoms: C_9  and  C_10
REMARK    5  A    between atoms: C_10  and  C_11
REMARK    6  A    between atoms: C_11  and  N_12
REMARK    7  A    between atoms: N_15  and  C_18
REMARK                            x       y       z     vdW  Elec       q    Type
REMARK                         _______ _______ _______ _____ _____    ______ ____
ROOT
ATOM      1  C   UNL     1       7.181  -4.055  21.938  0.00  0.00    +0.019 C 
ENDROOT
BRANCH   1   2
ATOM      2  C   UNL     1       7.096  -5.539  21.565  0.00  0.00    +0.042 C 
BRANCH   2   3
ATOM      3  C   UNL     1       5.703  -6.103  21.808  0.00  0.00    +0.229 C 
BRANCH   3   4
ATOM      4  O   UNL     1       4.835  -5.068  22.268  0.00  0.00    -0.492 OA
BRANCH   4  12
ATOM      5  O   UNL     1       5.788  -7.443  28.814  0.00  0.00    -0.268 OA
ATOM      6  C   UNL     1       5.031  -6.978  27.969  0.00  0.00    +0.249 A 
ATOM      7  C   UNL     1       3.611  -6.702  28.299  0.00  0.00    +0.071 A 
ATOM      8  C   UNL     1       2.773  -6.176  27.393  0.00  0.00    +0.015 A 
ATOM      9  C   UNL     1       3.258  -5.861  26.052  0.00  0.00    -0.001 A 
ATOM     10  C   UNL     1       4.593  -6.139  25.720  0.00  0.00    +0.053 A 
ATOM     11  C   UNL     1       5.085  -5.864  24.444  0.00  0.00    +0.072 A 
ATOM     12  C   UNL     1       4.248  -5.293  23.485  0.00  0.00    +0.122 A 
ATOM     13  C   UNL     1       2.920  -5.002  23.819  0.00  0.00    +0.046 A 
ATOM     14  C   UNL     1       2.424  -5.288  25.094  0.00  0.00    +0.013 A 
ATOM     15  N   UNL     1       5.436  -6.692  26.694  0.00  0.00    -0.322 N 
ATOM     16  H   UNL     1       6.405  -6.886  26.481  0.00  0.00    +0.169 HD
ENDBRANCH   4  12
ENDBRANCH   3   4
ENDBRANCH   2   3
ENDBRANCH   1   2
BRANCH   1  17
ATOM     17  C   UNL     1       7.958  -3.749  23.231  0.00  0.00    +0.084 C 
BRANCH  17  18
ATOM     18  N   UNL     1       7.230  -2.911  24.193  0.00  0.00    -0.299 NA
ATOM     19  C   UNL     1       6.588  -1.754  23.514  0.00  0.00    +0.103 C 
ATOM     20  C   UNL     1       7.561  -0.651  23.015  0.00  0.00    +0.120 C 
ATOM     21  N   UNL     1       8.428  -0.213  24.121  0.00  0.00    -0.327 N 
ATOM     22  C   UNL     1       9.109  -1.293  24.843  0.00  0.00    +0.120 C 
ATOM     23  C   UNL     1       8.092  -2.377  25.277  0.00  0.00    +0.103 C 
BRANCH  21  24
ATOM     24  C   UNL     1       8.942   1.089  24.126  0.00  0.00    +0.038 A 
ATOM     25  C   UNL     1      10.013   1.368  23.240  0.00  0.00    +0.024 A 
ATOM     26  C   UNL     1      10.516   2.647  23.040  0.00  0.00    +0.003 A 
ATOM     27  C   UNL     1       9.964   3.724  23.717  0.00  0.00    +0.016 A 
ATOM     28  C   UNL     1       8.925   3.483  24.632  0.00  0.00    +0.021 A 
ATOM     29  S   UNL     1       8.117   4.694  25.562  0.00  0.00    -0.097 S 
ATOM     30  C   UNL     1       7.153   3.544  26.354  0.00  0.00    +0.046 A 
ATOM     31  C   UNL     1       7.426   2.268  25.923  0.00  0.00    +0.018 A 
ATOM     32  C   UNL     1       8.419   2.198  24.875  0.00  0.00    +0.010 A 
ENDBRANCH  21  24
ENDBRANCH  17  18
ENDBRANCH   1  17
TORSDOF 7
ENDMDL
MODEL 7
REMARK VINA RESULT:      -7.5      1.141      2.100
REMARK  Name = 
REMARK  7 active torsions:
REMARK  status: ('A' for Active; 'I' for Inactive)
REMARK    1  A    between atoms: C_6  and  O_7
REMARK    2  A    between atoms: O_7  and  C_8
REMARK    3  A    between atoms: C_8  and  C_9
REMARK    4  A    between atoms: C_9  and  C_10
REMARK    5  A    between atoms: C_10  and  C_11
REMARK    6  A    between atoms: C_11  and  N_12
REMARK    7  A    between atoms: N_15  and  C_18
REMARK                            x       y       z     vdW  Elec       q    Type
REMARK                         _______ _______ _______ _____ _____    ______ ____
ROOT
ATOM      1  C   UNL     1      10.190  -1.760  23.189  0.00  0.00    +0.019 C 
ENDROOT
BRANCH   1   2
ATOM      2  C   UNL     1       9.461  -1.504  21.865  0.00  0.00    +0.042 C 
BRANCH   2   3
ATOM      3  C   UNL     1       9.394  -0.020  21.535  0.00  0.00    +0.229 C 
BRANCH   3   4
ATOM      4  O   UNL     1       8.324   0.590  22.256  0.00  0.00    -0.492 OA
BRANCH   4  12
ATOM      5  O   UNL     1      13.294   5.420  23.419  0.00  0.00    -0.268 OA
ATOM      6  C   UNL     1      12.125   5.071  23.539  0.00  0.00    +0.249 A 
ATOM      7  C   UNL     1      11.138   5.958  24.204  0.00  0.00    +0.071 A 
ATOM      8  C   UNL     1       9.852   5.601  24.328  0.00  0.00    +0.015 A 
ATOM      9  C   UNL     1       9.400   4.316  23.800  0.00  0.00    -0.001 A 
ATOM     10  C   UNL     1      10.328   3.458  23.191  0.00  0.00    +0.053 A 
ATOM     11  C   UNL     1       9.934   2.217  22.689  0.00  0.00    +0.072 A 
ATOM     12  C   UNL     1       8.597   1.825  22.778  0.00  0.00    +0.122 A 
ATOM     13  C   UNL     1       7.668   2.686  23.373  0.00  0.00    +0.046 A 
ATOM     14  C   UNL     1       8.066   3.924  23.887  0.00  0.00    +0.013 A 
ATOM     15  N   UNL     1      11.664   3.867  23.083  0.00  0.00    -0.322 N 
ATOM     16  H   UNL     1      12.347   3.271  22.634  0.00  0.00    +0.169 HD
ENDBRANCH   4  12
ENDBRANCH   3   4
ENDBRANCH   2   3
ENDBRANCH   1   2
BRANCH   1  17
ATOM     17  C   UNL     1       9.617  -2.907  24.041  0.00  0.00    +0.084 C 
BRANCH  17  18
ATOM     18  N   UNL     1       8.755  -2.470  25.147  0.00  0.00    -0.299 NA
ATOM     19  C   UNL     1       8.637  -3.532  26.182  0.00  0.00    +0.103 C 
ATOM     20  C   UNL     1       7.793  -4.770  25.774  0.00  0.00    +0.120 C 
ATOM     21  N   UNL     1       6.471  -4.336  25.296  0.00  0.00    -0.327 N 
ATOM     22  C   UNL     1       6.494  -3.294  24.264  0.00  0.00    +0.120 C 
ATOM     23  C   UNL     1       7.383  -2.108  24.714  0.00  0.00    +0.103 C 
BRANCH  21  24
ATOM     24  C   UNL     1       5.371  -5.191  25.428  0.00  0.00    +0.038 A 
ATOM     25  C   UNL     1       5.136  -6.115  24.379  0.00  0.00    +0.024 A 
ATOM     26  C   UNL     1       4.173  -7.113  24.450  0.00  0.00    +0.003 A 
ATOM     27  C   UNL     1       3.391  -7.243  25.588  0.00  0.00    +0.016 A 
ATOM     28  C   UNL     1       3.567  -6.322  26.635  0.00  0.00    +0.021 A 
ATOM     29  S   UNL     1       2.692  -6.328  28.124  0.00  0.00    -0.097 S 
ATOM     30  C   UNL     1       3.478  -4.929  28.675  0.00  0.00    +0.046 A 
ATOM     31  C   UNL     1       4.393  -4.466  27.760  0.00  0.00    +0.018 A 
ATOM     32  C   UNL     1       4.513  -5.288  26.576  0.00  0.00    +0.010 A 
ENDBRANCH  21  24
ENDBRANCH  17  18
ENDBRANCH   1  17
TORSDOF 7
ENDMDL
MODEL 8
REMARK VINA RESULT:      -7.5      1.653      2.197
REMARK  Name = 
REMARK  7 active torsions:
REMARK  status: ('A' for Active; 'I' for Inactive)
REMARK    1  A    between atoms: C_6  and  O_7
REMARK    2  A    between atoms: O_7  and  C_8
REMARK    3  A    between atoms: C_8  and  C_9
REMARK    4  A    between atoms: C_9  and  C_10
REMARK    5  A    between atoms: C_10  and  C_11
REMARK    6  A    between atoms: C_11  and  N_12
REMARK    7  A    between atoms: N_15  and  C_18
REMARK                            x       y       z     vdW  Elec       q    Type
REMARK                         _______ _______ _______ _____ _____    ______ ____
ROOT
ATOM      1  C   UNL     1       9.846  -2.695  23.952  0.00  0.00    +0.019 C 
ENDROOT
BRANCH   1   2
ATOM      2  C   UNL     1      10.312  -1.696  22.887  0.00  0.00    +0.042 C 
BRANCH   2   3
ATOM      3  C   UNL     1       9.267  -1.503  21.798  0.00  0.00    +0.229 C 
BRANCH   3   4
ATOM      4  O   UNL     1       9.430  -0.223  21.190  0.00  0.00    -0.492 OA
BRANCH   4  12
ATOM      5  O   UNL     1      11.596   5.888  23.902  0.00  0.00    -0.268 OA
ATOM      6  C   UNL     1      10.716   5.041  23.802  0.00  0.00    +0.249 A 
ATOM      7  C   UNL     1       9.417   5.218  24.498  0.00  0.00    +0.071 A 
ATOM      8  C   UNL     1       8.436   4.311  24.384  0.00  0.00    +0.015 A 
ATOM      9  C   UNL     1       8.637   3.121  23.561  0.00  0.00    -0.001 A 
ATOM     10  C   UNL     1       9.870   2.931  22.918  0.00  0.00    +0.053 A 
ATOM     11  C   UNL     1      10.101   1.798  22.136  0.00  0.00    +0.072 A 
ATOM     12  C   UNL     1       9.093   0.847  21.976  0.00  0.00    +0.122 A 
ATOM     13  C   UNL     1       7.858   1.043  22.605  0.00  0.00    +0.046 A 
ATOM     14  C   UNL     1       7.631   2.171  23.398  0.00  0.00    +0.013 A 
ATOM     15  N   UNL     1      10.871   3.901  23.064  0.00  0.00    -0.322 N 
ATOM     16  H   UNL     1      11.761   3.791  22.596  0.00  0.00    +0.169 HD
ENDBRANCH   4  12
ENDBRANCH   3   4
ENDBRANCH   2   3
ENDBRANCH   1   2
BRANCH   1  17
ATOM     17  C   UNL     1       8.448  -3.295  23.718  0.00  0.00    +0.084 C 
BRANCH  17  18
ATOM     18  N   UNL     1       8.380  -4.755  23.868  0.00  0.00    -0.299 NA
ATOM     19  C   UNL     1       7.432  -5.348  22.888  0.00  0.00    +0.103 C 
ATOM     20  C   UNL     1       5.929  -5.069  23.161  0.00  0.00    +0.120 C 
ATOM     21  N   UNL     1       5.592  -5.461  24.539  0.00  0.00    -0.327 N 
ATOM     22  C   UNL     1       6.473  -4.911  25.575  0.00  0.00    +0.120 C 
ATOM     23  C   UNL     1       7.956  -5.186  25.223  0.00  0.00    +0.103 C 
BRANCH  21  24
ATOM     24  C   UNL     1       4.287  -5.862  24.847  0.00  0.00    +0.038 A 
ATOM     25  C   UNL     1       4.020  -7.255  24.856  0.00  0.00    +0.024 A 
ATOM     26  C   UNL     1       2.813  -7.790  25.286  0.00  0.00    +0.003 A 
ATOM     27  C   UNL     1       1.804  -6.955  25.739  0.00  0.00    +0.016 A 
ATOM     28  C   UNL     1       2.016  -5.566  25.710  0.00  0.00    +0.021 A 
ATOM     29  S   UNL     1       0.881  -4.374  26.233  0.00  0.00    -0.097 S 
ATOM     30  C   UNL     1       1.908  -3.097  25.792  0.00  0.00    +0.046 A 
ATOM     31  C   UNL     1       3.092  -3.556  25.266  0.00  0.00    +0.018 A 
ATOM     32  C   UNL     1       3.214  -4.997  25.253  0.00  0.00    +0.010 A 
ENDBRANCH  21  24
ENDBRANCH  17  18
ENDBRANCH   1  17
TORSDOF 7
ENDMDL
MODEL 9
REMARK VINA RESULT:      -7.5      4.213     11.497
REMARK  Name = 
REMARK  7 active torsions:
REMARK  status: ('A' for Active; 'I' for Inactive)
REMARK    1  A    between atoms: C_6  and  O_7
REMARK    2  A    between atoms: O_7  and  C_8
REMARK    3  A    between atoms: C_8  and  C_9
REMARK    4  A    between atoms: C_9  and  C_10
REMARK    5  A    between atoms: C_10  and  C_11
REMARK    6  A    between atoms: C_11  and  N_12
REMARK    7  A    between atoms: N_15  and  C_18
REMARK                            x       y       z     vdW  Elec       q    Type
REMARK                         _______ _______ _______ _____ _____    ______ ____
ROOT
ATOM      1  C   UNL     1       8.912  -3.007  23.788  0.00  0.00    +0.019 C 
ENDROOT
BRANCH   1   2
ATOM      2  C   UNL     1       7.748  -3.592  22.980  0.00  0.00    +0.042 C 
BRANCH   2   3
ATOM      3  C   UNL     1       7.055  -4.722  23.727  0.00  0.00    +0.229 C 
BRANCH   3   4
ATOM      4  O   UNL     1       5.715  -4.345  24.042  0.00  0.00    -0.492 OA
BRANCH   4  12
ATOM      5  O   UNL     1       0.570  -8.568  21.787  0.00  0.00    -0.268 OA
ATOM      6  C   UNL     1       1.313  -8.218  22.696  0.00  0.00    +0.249 A 
ATOM      7  C   UNL     1       1.261  -8.895  24.016  0.00  0.00    +0.071 A 
ATOM      8  C   UNL     1       2.080  -8.538  25.016  0.00  0.00    +0.015 A 
ATOM      9  C   UNL     1       3.048  -7.463  24.814  0.00  0.00    -0.001 A 
ATOM     10  C   UNL     1       3.091  -6.799  23.579  0.00  0.00    +0.053 A 
ATOM     11  C   UNL     1       3.993  -5.758  23.358  0.00  0.00    +0.072 A 
ATOM     12  C   UNL     1       4.877  -5.378  24.369  0.00  0.00    +0.122 A 
ATOM     13  C   UNL     1       4.845  -6.049  25.596  0.00  0.00    +0.046 A 
ATOM     14  C   UNL     1       3.933  -7.084  25.822  0.00  0.00    +0.013 A 
ATOM     15  N   UNL     1       2.216  -7.200  22.560  0.00  0.00    -0.322 N 
ATOM     16  H   UNL     1       2.241  -6.745  21.657  0.00  0.00    +0.169 HD
ENDBRANCH   4  12
ENDBRANCH   3   4
ENDBRANCH   2   3
ENDBRANCH   1   2
BRANCH   1  17
ATOM     17  C   UNL     1       9.495  -1.692  23.237  0.00  0.00    +0.084 C 
BRANCH  17  18
ATOM     18  N   UNL     1       8.486  -0.707  22.823  0.00  0.00    -0.299 NA
ATOM     19  C   UNL     1       9.014   0.177  21.750  0.00  0.00    +0.103 C 
ATOM     20  C   UNL     1      10.091   1.201  22.201  0.00  0.00    +0.120 C 
ATOM     21  N   UNL     1       9.590   1.982  23.343  0.00  0.00    -0.327 N 
ATOM     22  C   UNL     1       9.057   1.186  24.454  0.00  0.00    +0.120 C 
ATOM     23  C   UNL     1       8.021   0.159  23.934  0.00  0.00    +0.103 C 
BRANCH  21  24
ATOM     24  C   UNL     1      10.060   3.283  23.554  0.00  0.00    +0.038 A 
ATOM     25  C   UNL     1      11.445   3.514  23.362  0.00  0.00    +0.024 A 
ATOM     26  C   UNL     1      12.013   4.781  23.394  0.00  0.00    +0.003 A 
ATOM     27  C   UNL     1      11.217   5.893  23.616  0.00  0.00    +0.016 A 
ATOM     28  C   UNL     1       9.843   5.703  23.848  0.00  0.00    +0.021 A 
ATOM     29  S   UNL     1       8.699   6.963  24.139  0.00  0.00    -0.097 S 
ATOM     30  C   UNL     1       7.429   5.859  24.354  0.00  0.00    +0.046 A 
ATOM     31  C   UNL     1       7.853   4.560  24.202  0.00  0.00    +0.018 A 
ATOM     32  C   UNL     1       9.250   4.433  23.850  0.00  0.00    +0.010 A 
ENDBRANCH  21  24
ENDBRANCH  17  18
ENDBRANCH   1  17
TORSDOF 7
ENDMDL
