MODEL 1
REMARK VINA RESULT:      -6.2      0.000      0.000
REMARK  Name = 
REMARK  13 active torsions:
REMARK  status: ('A' for Active; 'I' for Inactive)
REMARK    1  A    between atoms: C_1  and  O_2
REMARK    2  A    between atoms: O_2  and  C_3
REMARK    3  A    between atoms: C_6  and  C_8
REMARK    4  A    between atoms: C_8  and  O_9
REMARK    5  A    between atoms: C_10  and  O_12
REMARK    6  A    between atoms: C_13  and  O_15
REMARK    7  A    between atoms: O_15  and  C_16
REMARK    8  A    between atoms: C_19  and  C_21
REMARK    9  A    between atoms: C_21  and  O_22
REMARK   10  A    between atoms: C_23  and  O_25
REMARK   11  A    between atoms: C_26  and  O_28
REMARK   12  A    between atoms: C_29  and  O_31
REMARK   13  A    between atoms: C_32  and  O_34
REMARK                            x       y       z     vdW  Elec       q    Type
REMARK                         _______ _______ _______ _____ _____    ______ ____
ROOT
ATOM      1  O   UNL     1       8.547  -2.583  24.817  0.00  0.00    -0.340 OA
ENDROOT
BRANCH   1   4
ATOM      2  C   UNL     1       7.664  -5.307  26.650  0.00  0.00    +0.281 C 
ATOM      3  C   UNL     1       8.961  -4.826  25.962  0.00  0.00    +0.202 C 
ATOM      4  C   UNL     1       8.722  -4.019  24.665  0.00  0.00    +0.186 C 
ATOM      5  C   UNL     1       7.624  -4.674  23.803  0.00  0.00    +0.177 C 
ATOM      6  C   UNL     1       6.416  -5.238  24.566  0.00  0.00    +0.178 C 
ATOM      7  O   UNL     1       6.767  -5.962  25.751  0.00  0.00    -0.341 OA
BRANCH   2   9
ATOM      8  C   UNL     1       5.985  -4.757  28.218  0.00  0.00    +0.197 C 
ATOM      9  O   UNL     1       7.030  -4.264  27.389  0.00  0.00    -0.352 OA
ENDBRANCH   2   9
BRANCH   3  10
ATOM     10  O   UNL     1       9.742  -6.010  25.661  0.00  0.00    -0.384 OA
ATOM     11  H   UNL     1      10.614  -5.921  26.082  0.00  0.00    +0.210 HD
ENDBRANCH   3  10
BRANCH   5  12
ATOM     12  O   UNL     1       8.246  -5.772  23.081  0.00  0.00    -0.386 OA
ATOM     13  H   UNL     1       8.268  -6.549  23.672  0.00  0.00    +0.210 HD
ENDBRANCH   5  12
BRANCH   6  14
ATOM     14  C   UNL     1       5.308  -4.218  24.822  0.00  0.00    +0.190 C 
BRANCH  14  15
ATOM     15  O   UNL     1       5.557  -3.039  24.046  0.00  0.00    -0.392 OA
ATOM     16  H   UNL     1       6.133  -3.317  23.311  0.00  0.00    +0.210 HD
ENDBRANCH  14  15
ENDBRANCH   6  14
ENDBRANCH   1   4
BRANCH   1  17
ATOM     17  C   UNL     1       8.724  -1.871  23.560  0.00  0.00    +0.282 C 
ATOM     18  C   UNL     1      10.169  -1.333  23.240  0.00  0.00    +0.201 C 
ATOM     19  C   UNL     1      10.389   0.200  23.296  0.00  0.00    +0.179 C 
ATOM     20  C   UNL     1       9.103   0.969  22.980  0.00  0.00    +0.177 C 
ATOM     21  C   UNL     1       7.900   0.412  23.745  0.00  0.00    +0.178 C 
ATOM     22  O   UNL     1       7.670  -0.933  23.318  0.00  0.00    -0.341 OA
BRANCH  18  23
ATOM     23  O   UNL     1      10.446  -1.704  21.859  0.00  0.00    -0.384 OA
ATOM     24  H   UNL     1      11.397  -1.953  21.830  0.00  0.00    +0.210 HD
ENDBRANCH  18  23
BRANCH  19  25
ATOM     25  O   UNL     1      11.003   0.651  24.502  0.00  0.00    -0.386 OA
ATOM     26  H   UNL     1      10.281   0.711  25.164  0.00  0.00    +0.210 HD
ENDBRANCH  19  25
BRANCH  20  27
ATOM     27  O   UNL     1       8.862   0.819  21.561  0.00  0.00    -0.386 OA
ATOM     28  H   UNL     1       9.526   1.346  21.082  0.00  0.00    +0.210 HD
ENDBRANCH  20  27
BRANCH  21  29
ATOM     29  C   UNL     1       7.915   0.597  25.274  0.00  0.00    +0.190 C 
BRANCH  29  30
ATOM     30  O   UNL     1       8.480   1.835  25.682  0.00  0.00    -0.392 OA
ATOM     31  H   UNL     1       8.494   2.409  24.897  0.00  0.00    +0.210 HD
ENDBRANCH  29  30
ENDBRANCH  21  29
ENDBRANCH   1  17
TORSDOF 12
ENDMDL
MODEL 2
REMARK VINA RESULT:      -6.1      1.445      5.677
REMARK  Name = 
REMARK  13 active torsions:
REMARK  status: ('A' for Active; 'I' for Inactive)
REMARK    1  A    between atoms: C_1  and  O_2
REMARK    2  A    between atoms: O_2  and  C_3
REMARK    3  A    between atoms: C_6  and  C_8
REMARK    4  A    between atoms: C_8  and  O_9
REMARK    5  A    between atoms: C_10  and  O_12
REMARK    6  A    between atoms: C_13  and  O_15
REMARK    7  A    between atoms: O_15  and  C_16
REMARK    8  A    between atoms: C_19  and  C_21
REMARK    9  A    between atoms: C_21  and  O_22
REMARK   10  A    between atoms: C_23  and  O_25
REMARK   11  A    between atoms: C_26  and  O_28
REMARK   12  A    between atoms: C_29  and  O_31
REMARK   13  A    between atoms: C_32  and  O_34
REMARK                            x       y       z     vdW  Elec       q    Type
REMARK                         _______ _______ _______ _____ _____    ______ ____
ROOT
ATOM      1  O   UNL     1       9.134  -1.907  25.293  0.00  0.00    -0.340 OA
ENDROOT
BRANCH   1   4
ATOM      2  C   UNL     1       7.286  -0.161  23.035  0.00  0.00    +0.281 C 
ATOM      3  C   UNL     1       7.631  -1.652  23.247  0.00  0.00    +0.202 C 
ATOM      4  C   UNL     1       9.037  -1.894  23.842  0.00  0.00    +0.186 C 
ATOM      5  C   UNL     1      10.083  -0.978  23.174  0.00  0.00    +0.177 C 
ATOM      6  C   UNL     1       9.631   0.461  22.884  0.00  0.00    +0.178 C 
ATOM      7  O   UNL     1       8.310   0.553  22.339  0.00  0.00    -0.341 OA
BRANCH   2   9
ATOM      8  C   UNL     1       6.051   1.593  24.023  0.00  0.00    +0.197 C 
ATOM      9  O   UNL     1       6.906   0.480  24.251  0.00  0.00    -0.352 OA
ENDBRANCH   2   9
BRANCH   3  10
ATOM     10  O   UNL     1       7.534  -2.295  21.950  0.00  0.00    -0.384 OA
ATOM     11  H   UNL     1       6.756  -1.942  21.487  0.00  0.00    +0.210 HD
ENDBRANCH   3  10
BRANCH   5  12
ATOM     12  O   UNL     1      10.443  -1.595  21.908  0.00  0.00    -0.386 OA
ATOM     13  H   UNL     1      10.175  -2.534  21.942  0.00  0.00    +0.210 HD
ENDBRANCH   5  12
BRANCH   6  14
ATOM     14  C   UNL     1       9.841   1.427  24.048  0.00  0.00    +0.190 C 
BRANCH  14  15
ATOM     15  O   UNL     1      10.482   0.739  25.130  0.00  0.00    -0.392 OA
ATOM     16  H   UNL     1       9.768   0.463  25.733  0.00  0.00    +0.210 HD
ENDBRANCH  14  15
ENDBRANCH   6  14
ENDBRANCH   1   4
BRANCH   1  17
ATOM     17  C   UNL     1       9.183  -3.258  25.830  0.00  0.00    +0.282 C 
ATOM     18  C   UNL     1       9.041  -4.442  24.802  0.00  0.00    +0.201 C 
ATOM     19  C   UNL     1       7.726  -5.262  24.834  0.00  0.00    +0.179 C 
ATOM     20  C   UNL     1       7.092  -5.262  26.228  0.00  0.00    +0.177 C 
ATOM     21  C   UNL     1       7.051  -3.858  26.838  0.00  0.00    +0.178 C 
ATOM     22  O   UNL     1       8.392  -3.397  27.015  0.00  0.00    -0.341 OA
BRANCH  18  23
ATOM     23  O   UNL     1      10.090  -5.397  25.132  0.00  0.00    -0.384 OA
ATOM     24  H   UNL     1      10.692  -4.934  25.757  0.00  0.00    +0.210 HD
ENDBRANCH  18  23
BRANCH  19  25
ATOM     25  O   UNL     1       6.793  -4.896  23.819  0.00  0.00    -0.386 OA
ATOM     26  H   UNL     1       6.247  -5.695  23.656  0.00  0.00    +0.210 HD
ENDBRANCH  19  25
BRANCH  20  27
ATOM     27  O   UNL     1       7.916  -6.108  27.064  0.00  0.00    -0.386 OA
ATOM     28  H   UNL     1       8.449  -5.536  27.643  0.00  0.00    +0.210 HD
ENDBRANCH  20  27
BRANCH  21  29
ATOM     29  C   UNL     1       6.117  -2.842  26.155  0.00  0.00    +0.190 C 
BRANCH  29  30
ATOM     30  O   UNL     1       6.381  -1.497  26.532  0.00  0.00    -0.392 OA
ATOM     31  H   UNL     1       7.296  -1.307  26.266  0.00  0.00    +0.210 HD
ENDBRANCH  29  30
ENDBRANCH  21  29
ENDBRANCH   1  17
TORSDOF 12
ENDMDL
MODEL 3
REMARK VINA RESULT:      -6.0      1.300      1.907
REMARK  Name = 
REMARK  13 active torsions:
REMARK  status: ('A' for Active; 'I' for Inactive)
REMARK    1  A    between atoms: C_1  and  O_2
REMARK    2  A    between atoms: O_2  and  C_3
REMARK    3  A    between atoms: C_6  and  C_8
REMARK    4  A    between atoms: C_8  and  O_9
REMARK    5  A    between atoms: C_10  and  O_12
REMARK    6  A    between atoms: C_13  and  O_15
REMARK    7  A    between atoms: O_15  and  C_16
REMARK    8  A    between atoms: C_19  and  C_21
REMARK    9  A    between atoms: C_21  and  O_22
REMARK   10  A    between atoms: C_23  and  O_25
REMARK   11  A    between atoms: C_26  and  O_28
REMARK   12  A    between atoms: C_29  and  O_31
REMARK   13  A    between atoms: C_32  and  O_34
REMARK                            x       y       z     vdW  Elec       q    Type
REMARK                         _______ _______ _______ _____ _____    ______ ____
ROOT
ATOM      1  O   UNL     1       7.671  -2.174  23.744  0.00  0.00    -0.340 OA
ENDROOT
BRANCH   1   4
ATOM      2  C   UNL     1       6.535  -5.143  24.948  0.00  0.00    +0.281 C 
ATOM      3  C   UNL     1       7.425  -4.714  23.761  0.00  0.00    +0.202 C 
ATOM      4  C   UNL     1       7.043  -3.345  23.153  0.00  0.00    +0.186 C 
ATOM      5  C   UNL     1       5.513  -3.208  23.020  0.00  0.00    +0.177 C 
ATOM      6  C   UNL     1       4.684  -3.765  24.186  0.00  0.00    +0.178 C 
ATOM      7  O   UNL     1       5.139  -5.037  24.664  0.00  0.00    -0.341 OA
BRANCH   2   9
ATOM      8  C   UNL     1       8.258  -4.702  26.502  0.00  0.00    +0.197 C 
ATOM      9  O   UNL     1       6.896  -4.480  26.158  0.00  0.00    -0.352 OA
ENDBRANCH   2   9
BRANCH   3  10
ATOM     10  O   UNL     1       7.305  -5.746  22.749  0.00  0.00    -0.384 OA
ATOM     11  H   UNL     1       7.095  -6.587  23.189  0.00  0.00    +0.210 HD
ENDBRANCH   3  10
BRANCH   5  12
ATOM     12  O   UNL     1       5.124  -3.923  21.815  0.00  0.00    -0.386 OA
ATOM     13  H   UNL     1       5.798  -4.608  21.640  0.00  0.00    +0.210 HD
ENDBRANCH   5  12
BRANCH   6  14
ATOM     14  C   UNL     1       4.460  -2.771  25.324  0.00  0.00    +0.190 C 
BRANCH  14  15
ATOM     15  O   UNL     1       5.024  -1.502  24.966  0.00  0.00    -0.392 OA
ATOM     16  H   UNL     1       4.685  -0.864  25.621  0.00  0.00    +0.210 HD
ENDBRANCH  14  15
ENDBRANCH   6  14
ENDBRANCH   1   4
BRANCH   1  17
ATOM     17  C   UNL     1       8.360  -1.359  22.755  0.00  0.00    +0.282 C 
ATOM     18  C   UNL     1       9.924  -1.239  22.891  0.00  0.00    +0.201 C 
ATOM     19  C   UNL     1      10.499   0.128  23.345  0.00  0.00    +0.179 C 
ATOM     20  C   UNL     1       9.586   1.289  22.940  0.00  0.00    +0.177 C 
ATOM     21  C   UNL     1       8.118   1.007  23.274  0.00  0.00    +0.178 C 
ATOM     22  O   UNL     1       7.685  -0.121  22.510  0.00  0.00    -0.341 OA
BRANCH  18  23
ATOM     23  O   UNL     1      10.467  -1.453  21.557  0.00  0.00    -0.384 OA
ATOM     24  H   UNL     1      10.649  -0.558  21.191  0.00  0.00    +0.210 HD
ENDBRANCH  18  23
BRANCH  19  25
ATOM     25  O   UNL     1      10.850   0.177  24.726  0.00  0.00    -0.386 OA
ATOM     26  H   UNL     1      11.035   1.120  24.923  0.00  0.00    +0.210 HD
ENDBRANCH  19  25
BRANCH  20  27
ATOM     27  O   UNL     1       9.715   1.444  21.507  0.00  0.00    -0.386 OA
ATOM     28  H   UNL     1      10.605   1.789  21.317  0.00  0.00    +0.210 HD
ENDBRANCH  20  27
BRANCH  21  29
ATOM     29  C   UNL     1       7.758   0.935  24.769  0.00  0.00    +0.190 C 
BRANCH  29  30
ATOM     30  O   UNL     1       8.502   1.844  25.569  0.00  0.00    -0.392 OA
ATOM     31  H   UNL     1       8.004   1.963  26.396  0.00  0.00    +0.210 HD
ENDBRANCH  29  30
ENDBRANCH  21  29
ENDBRANCH   1  17
TORSDOF 12
ENDMDL
MODEL 4
REMARK VINA RESULT:      -6.0      1.222      2.355
REMARK  Name = 
REMARK  13 active torsions:
REMARK  status: ('A' for Active; 'I' for Inactive)
REMARK    1  A    between atoms: C_1  and  O_2
REMARK    2  A    between atoms: O_2  and  C_3
REMARK    3  A    between atoms: C_6  and  C_8
REMARK    4  A    between atoms: C_8  and  O_9
REMARK    5  A    between atoms: C_10  and  O_12
REMARK    6  A    between atoms: C_13  and  O_15
REMARK    7  A    between atoms: O_15  and  C_16
REMARK    8  A    between atoms: C_19  and  C_21
REMARK    9  A    between atoms: C_21  and  O_22
REMARK   10  A    between atoms: C_23  and  O_25
REMARK   11  A    between atoms: C_26  and  O_28
REMARK   12  A    between atoms: C_29  and  O_31
REMARK   13  A    between atoms: C_32  and  O_34
REMARK                            x       y       z     vdW  Elec       q    Type
REMARK                         _______ _______ _______ _____ _____    ______ ____
ROOT
ATOM      1  O   UNL     1       7.977  -2.415  23.338  0.00  0.00    -0.340 OA
ENDROOT
BRANCH   1   4
ATOM      2  C   UNL     1       7.436  -4.879  25.617  0.00  0.00    +0.281 C 
ATOM      3  C   UNL     1       8.606  -4.488  24.687  0.00  0.00    +0.202 C 
ATOM      4  C   UNL     1       8.160  -3.858  23.348  0.00  0.00    +0.186 C 
ATOM      5  C   UNL     1       6.961  -4.623  22.751  0.00  0.00    +0.177 C 
ATOM      6  C   UNL     1       5.892  -5.087  23.752  0.00  0.00    +0.178 C 
ATOM      7  O   UNL     1       6.431  -5.649  24.954  0.00  0.00    -0.341 OA
BRANCH   2   9
ATOM      8  C   UNL     1       6.165  -4.131  27.463  0.00  0.00    +0.197 C 
ATOM      9  O   UNL     1       6.895  -3.751  26.302  0.00  0.00    -0.352 OA
ENDBRANCH   2   9
BRANCH   3  10
ATOM     10  O   UNL     1       9.361  -5.699  24.428  0.00  0.00    -0.384 OA
ATOM     11  H   UNL     1      10.186  -5.664  24.939  0.00  0.00    +0.210 HD
ENDBRANCH   3  10
BRANCH   5  12
ATOM     12  O   UNL     1       7.495  -5.804  22.091  0.00  0.00    -0.386 OA
ATOM     13  H   UNL     1       7.660  -6.483  22.774  0.00  0.00    +0.210 HD
ENDBRANCH   5  12
BRANCH   6  14
ATOM     14  C   UNL     1       4.812  -4.046  24.037  0.00  0.00    +0.190 C 
BRANCH  14  15
ATOM     15  O   UNL     1       5.337  -2.734  23.793  0.00  0.00    -0.392 OA
ATOM     16  H   UNL     1       4.727  -2.115  24.235  0.00  0.00    +0.210 HD
ENDBRANCH  14  15
ENDBRANCH   6  14
ENDBRANCH   1   4
BRANCH   1  17
ATOM     17  C   UNL     1       8.965  -1.729  24.156  0.00  0.00    +0.282 C 
ATOM     18  C   UNL     1       8.454  -0.533  25.043  0.00  0.00    +0.201 C 
ATOM     19  C   UNL     1       8.879   0.898  24.625  0.00  0.00    +0.179 C 
ATOM     20  C   UNL     1      10.219   0.897  23.884  0.00  0.00    +0.177 C 
ATOM     21  C   UNL     1      10.277  -0.187  22.805  0.00  0.00    +0.178 C 
ATOM     22  O   UNL     1      10.174  -1.466  23.437  0.00  0.00    -0.341 OA
BRANCH  18  23
ATOM     23  O   UNL     1       9.031  -0.727  26.365  0.00  0.00    -0.384 OA
ATOM     24  H   UNL     1       9.125  -1.700  26.480  0.00  0.00    +0.210 HD
ENDBRANCH  18  23
BRANCH  19  25
ATOM     25  O   UNL     1       7.872   1.616  23.913  0.00  0.00    -0.386 OA
ATOM     26  H   UNL     1       7.422   2.178  24.579  0.00  0.00    +0.210 HD
ENDBRANCH  19  25
BRANCH  20  27
ATOM     27  O   UNL     1      11.244   0.626  24.870  0.00  0.00    -0.386 OA
ATOM     28  H   UNL     1      11.845   1.391  24.901  0.00  0.00    +0.210 HD
ENDBRANCH  20  27
BRANCH  21  29
ATOM     29  C   UNL     1       9.341  -0.000  21.596  0.00  0.00    +0.190 C 
BRANCH  29  30
ATOM     30  O   UNL     1       9.209   1.356  21.195  0.00  0.00    -0.392 OA
ATOM     31  H   UNL     1       9.084   1.878  22.006  0.00  0.00    +0.210 HD
ENDBRANCH  29  30
ENDBRANCH  21  29
ENDBRANCH   1  17
TORSDOF 12
ENDMDL
MODEL 5
REMARK VINA RESULT:      -6.0      1.364      3.809
REMARK  Name = 
REMARK  13 active torsions:
REMARK  status: ('A' for Active; 'I' for Inactive)
REMARK    1  A    between atoms: C_1  and  O_2
REMARK    2  A    between atoms: O_2  and  C_3
REMARK    3  A    between atoms: C_6  and  C_8
REMARK    4  A    between atoms: C_8  and  O_9
REMARK    5  A    between atoms: C_10  and  O_12
REMARK    6  A    between atoms: C_13  and  O_15
REMARK    7  A    between atoms: O_15  and  C_16
REMARK    8  A    between atoms: C_19  and  C_21
REMARK    9  A    between atoms: C_21  and  O_22
REMARK   10  A    between atoms: C_23  and  O_25
REMARK   11  A    between atoms: C_26  and  O_28
REMARK   12  A    between atoms: C_29  and  O_31
REMARK   13  A    between atoms: C_32  and  O_34
REMARK                            x       y       z     vdW  Elec       q    Type
REMARK                         _______ _______ _______ _____ _____    ______ ____
ROOT
ATOM      1  O   UNL     1       7.703  -1.967  23.865  0.00  0.00    -0.340 OA
ENDROOT
BRANCH   1   4
ATOM      2  C   UNL     1       6.656  -5.199  24.001  0.00  0.00    +0.281 C 
ATOM      3  C   UNL     1       5.956  -3.822  24.007  0.00  0.00    +0.202 C 
ATOM      4  C   UNL     1       6.770  -2.707  24.701  0.00  0.00    +0.186 C 
ATOM      5  C   UNL     1       7.407  -3.221  26.008  0.00  0.00    +0.177 C 
ATOM      6  C   UNL     1       7.979  -4.645  25.963  0.00  0.00    +0.178 C 
ATOM      7  O   UNL     1       7.134  -5.587  25.291  0.00  0.00    -0.341 OA
BRANCH   2   9
ATOM      8  C   UNL     1       7.130  -5.609  21.723  0.00  0.00    +0.197 C 
ATOM      9  O   UNL     1       7.668  -5.283  22.998  0.00  0.00    -0.352 OA
ENDBRANCH   2   9
BRANCH   3  10
ATOM     10  O   UNL     1       4.689  -3.997  24.691  0.00  0.00    -0.384 OA
ATOM     11  H   UNL     1       4.351  -4.887  24.493  0.00  0.00    +0.210 HD
ENDBRANCH   3  10
BRANCH   5  12
ATOM     12  O   UNL     1       6.372  -3.188  27.028  0.00  0.00    -0.386 OA
ATOM     13  H   UNL     1       6.193  -4.107  27.307  0.00  0.00    +0.210 HD
ENDBRANCH   5  12
BRANCH   6  14
ATOM     14  C   UNL     1       9.425  -4.723  25.479  0.00  0.00    +0.190 C 
BRANCH  14  15
ATOM     15  O   UNL     1       9.748  -6.081  25.154  0.00  0.00    -0.392 OA
ATOM     16  H   UNL     1      10.587  -6.047  24.659  0.00  0.00    +0.210 HD
ENDBRANCH  14  15
ENDBRANCH   6  14
ENDBRANCH   1   4
BRANCH   1  17
ATOM     17  C   UNL     1       8.673  -1.218  24.649  0.00  0.00    +0.282 C 
ATOM     18  C   UNL     1       8.285   0.254  25.050  0.00  0.00    +0.201 C 
ATOM     19  C   UNL     1       9.050   1.409  24.353  0.00  0.00    +0.179 C 
ATOM     20  C   UNL     1      10.460   0.981  23.933  0.00  0.00    +0.177 C 
ATOM     21  C   UNL     1      10.460  -0.377  23.228  0.00  0.00    +0.178 C 
ATOM     22  O   UNL     1      10.005  -1.371  24.150  0.00  0.00    -0.341 OA
BRANCH  18  23
ATOM     23  O   UNL     1       8.602   0.390  26.464  0.00  0.00    -0.384 OA
ATOM     24  H   UNL     1       8.174   1.225  26.759  0.00  0.00    +0.210 HD
ENDBRANCH  18  23
BRANCH  19  25
ATOM     25  O   UNL     1       8.330   2.015  23.281  0.00  0.00    -0.386 OA
ATOM     26  H   UNL     1       8.677   2.930  23.210  0.00  0.00    +0.210 HD
ENDBRANCH  19  25
BRANCH  20  27
ATOM     27  O   UNL     1      11.245   0.876  25.145  0.00  0.00    -0.386 OA
ATOM     28  H   UNL     1      12.173   0.726  24.893  0.00  0.00    +0.210 HD
ENDBRANCH  20  27
BRANCH  21  29
ATOM     29  C   UNL     1       9.777  -0.433  21.848  0.00  0.00    +0.190 C 
BRANCH  29  30
ATOM     30  O   UNL     1       9.702  -1.747  21.313  0.00  0.00    -0.392 OA
ATOM     31  H   UNL     1      10.581  -2.147  21.429  0.00  0.00    +0.210 HD
ENDBRANCH  29  30
ENDBRANCH  21  29
ENDBRANCH   1  17
TORSDOF 12
ENDMDL
MODEL 6
REMARK VINA RESULT:      -5.8      1.784      2.597
REMARK  Name = 
REMARK  13 active torsions:
REMARK  status: ('A' for Active; 'I' for Inactive)
REMARK    1  A    between atoms: C_1  and  O_2
REMARK    2  A    between atoms: O_2  and  C_3
REMARK    3  A    between atoms: C_6  and  C_8
REMARK    4  A    between atoms: C_8  and  O_9
REMARK    5  A    between atoms: C_10  and  O_12
REMARK    6  A    between atoms: C_13  and  O_15
REMARK    7  A    between atoms: O_15  and  C_16
REMARK    8  A    between atoms: C_19  and  C_21
REMARK    9  A    between atoms: C_21  and  O_22
REMARK   10  A    between atoms: C_23  and  O_25
REMARK   11  A    between atoms: C_26  and  O_28
REMARK   12  A    between atoms: C_29  and  O_31
REMARK   13  A    between atoms: C_32  and  O_34
REMARK                            x       y       z     vdW  Elec       q    Type
REMARK                         _______ _______ _______ _____ _____    ______ ____
ROOT
ATOM      1  O   UNL     1       8.194  -0.816  24.833  0.00  0.00    -0.340 OA
ENDROOT
BRANCH   1   4
ATOM      2  C   UNL     1       6.545  -3.743  25.353  0.00  0.00    +0.281 C 
ATOM      3  C   UNL     1       7.636  -2.954  26.110  0.00  0.00    +0.202 C 
ATOM      4  C   UNL     1       8.596  -2.168  25.188  0.00  0.00    +0.186 C 
ATOM      5  C   UNL     1       9.007  -3.017  23.967  0.00  0.00    +0.177 C 
ATOM      6  C   UNL     1       7.896  -3.870  23.337  0.00  0.00    +0.178 C 
ATOM      7  O   UNL     1       7.072  -4.545  24.294  0.00  0.00    -0.341 OA
BRANCH   2   9
ATOM      8  C   UNL     1       4.965  -2.102  25.977  0.00  0.00    +0.197 C 
ATOM      9  O   UNL     1       5.477  -2.903  24.919  0.00  0.00    -0.352 OA
ENDBRANCH   2   9
BRANCH   3  10
ATOM     10  O   UNL     1       8.389  -3.918  26.889  0.00  0.00    -0.384 OA
ATOM     11  H   UNL     1       7.791  -4.328  27.536  0.00  0.00    +0.210 HD
ENDBRANCH   3  10
BRANCH   5  12
ATOM     12  O   UNL     1      10.062  -3.914  24.408  0.00  0.00    -0.386 OA
ATOM     13  H   UNL     1      10.076  -3.908  25.385  0.00  0.00    +0.210 HD
ENDBRANCH   5  12
BRANCH   6  14
ATOM     14  C   UNL     1       7.070  -3.138  22.281  0.00  0.00    +0.190 C 
BRANCH  14  15
ATOM     15  O   UNL     1       5.875  -3.881  22.011  0.00  0.00    -0.392 OA
ATOM     16  H   UNL     1       5.578  -3.600  21.126  0.00  0.00    +0.210 HD
ENDBRANCH  14  15
ENDBRANCH   6  14
ENDBRANCH   1   4
BRANCH   1  17
ATOM     17  C   UNL     1       9.168  -0.159  23.974  0.00  0.00    +0.282 C 
ATOM     18  C   UNL     1       9.949   1.065  24.584  0.00  0.00    +0.201 C 
ATOM     19  C   UNL     1       9.605   2.474  24.038  0.00  0.00    +0.179 C 
ATOM     20  C   UNL     1       9.106   2.416  22.591  0.00  0.00    +0.177 C 
ATOM     21  C   UNL     1       8.057   1.319  22.392  0.00  0.00    +0.178 C 
ATOM     22  O   UNL     1       8.665   0.052  22.651  0.00  0.00    -0.341 OA
BRANCH  18  23
ATOM     23  O   UNL     1      11.351   0.861  24.249  0.00  0.00    -0.384 OA
ATOM     24  H   UNL     1      11.613   0.016  24.678  0.00  0.00    +0.210 HD
ENDBRANCH  18  23
BRANCH  19  25
ATOM     25  O   UNL     1       8.729   3.222  24.879  0.00  0.00    -0.386 OA
ATOM     26  H   UNL     1       7.820   2.961  24.618  0.00  0.00    +0.210 HD
ENDBRANCH  19  25
BRANCH  20  27
ATOM     27  O   UNL     1      10.254   2.117  21.762  0.00  0.00    -0.386 OA
ATOM     28  H   UNL     1      10.450   1.167  21.846  0.00  0.00    +0.210 HD
ENDBRANCH  20  27
BRANCH  21  29
ATOM     29  C   UNL     1       6.704   1.529  23.099  0.00  0.00    +0.190 C 
BRANCH  29  30
ATOM     30  O   UNL     1       5.999   0.317  23.329  0.00  0.00    -0.392 OA
ATOM     31  H   UNL     1       6.627  -0.408  23.167  0.00  0.00    +0.210 HD
ENDBRANCH  29  30
ENDBRANCH  21  29
ENDBRANCH   1  17
TORSDOF 12
ENDMDL
MODEL 7
REMARK VINA RESULT:      -5.7      1.841      6.124
REMARK  Name = 
REMARK  13 active torsions:
REMARK  status: ('A' for Active; 'I' for Inactive)
REMARK    1  A    between atoms: C_1  and  O_2
REMARK    2  A    between atoms: O_2  and  C_3
REMARK    3  A    between atoms: C_6  and  C_8
REMARK    4  A    between atoms: C_8  and  O_9
REMARK    5  A    between atoms: C_10  and  O_12
REMARK    6  A    between atoms: C_13  and  O_15
REMARK    7  A    between atoms: O_15  and  C_16
REMARK    8  A    between atoms: C_19  and  C_21
REMARK    9  A    between atoms: C_21  and  O_22
REMARK   10  A    between atoms: C_23  and  O_25
REMARK   11  A    between atoms: C_26  and  O_28
REMARK   12  A    between atoms: C_29  and  O_31
REMARK   13  A    between atoms: C_32  and  O_34
REMARK                            x       y       z     vdW  Elec       q    Type
REMARK                         _______ _______ _______ _____ _____    ______ ____
ROOT
ATOM      1  O   UNL     1       7.606  -1.627  22.591  0.00  0.00    -0.340 OA
ENDROOT
BRANCH   1   4
ATOM      2  C   UNL     1       9.025   0.732  24.586  0.00  0.00    +0.281 C 
ATOM      3  C   UNL     1       7.851  -0.262  24.733  0.00  0.00    +0.202 C 
ATOM      4  C   UNL     1       7.096  -0.541  23.413  0.00  0.00    +0.186 C 
ATOM      5  C   UNL     1       6.869   0.762  22.621  0.00  0.00    +0.177 C 
ATOM      6  C   UNL     1       8.037   1.759  22.617  0.00  0.00    +0.178 C 
ATOM      7  O   UNL     1       8.657   1.929  23.897  0.00  0.00    -0.341 OA
BRANCH   2   9
ATOM      8  C   UNL     1      11.385   0.634  24.586  0.00  0.00    +0.197 C 
ATOM      9  O   UNL     1      10.183   0.117  24.027  0.00  0.00    -0.352 OA
ENDBRANCH   2   9
BRANCH   3  10
ATOM     10  O   UNL     1       6.938   0.306  25.706  0.00  0.00    -0.384 OA
ATOM     11  H   UNL     1       6.858  -0.312  26.452  0.00  0.00    +0.210 HD
ENDBRANCH   3  10
BRANCH   5  12
ATOM     12  O   UNL     1       5.719   1.426  23.213  0.00  0.00    -0.386 OA
ATOM     13  H   UNL     1       5.481   2.184  22.645  0.00  0.00    +0.210 HD
ENDBRANCH   5  12
BRANCH   6  14
ATOM     14  C   UNL     1       9.061   1.517  21.510  0.00  0.00    +0.190 C 
BRANCH  14  15
ATOM     15  O   UNL     1      10.212   2.339  21.737  0.00  0.00    -0.392 OA
ATOM     16  H   UNL     1       9.898   3.261  21.691  0.00  0.00    +0.210 HD
ENDBRANCH  14  15
ENDBRANCH   6  14
ENDBRANCH   1   4
BRANCH   1  17
ATOM     17  C   UNL     1       6.865  -2.863  22.787  0.00  0.00    +0.282 C 
ATOM     18  C   UNL     1       5.760  -2.864  23.910  0.00  0.00    +0.201 C 
ATOM     19  C   UNL     1       6.045  -3.689  25.191  0.00  0.00    +0.179 C 
ATOM     20  C   UNL     1       6.975  -4.873  24.907  0.00  0.00    +0.177 C 
ATOM     21  C   UNL     1       8.184  -4.462  24.062  0.00  0.00    +0.178 C 
ATOM     22  O   UNL     1       7.718  -4.011  22.788  0.00  0.00    -0.341 OA
BRANCH  18  23
ATOM     23  O   UNL     1       4.579  -3.478  23.321  0.00  0.00    -0.384 OA
ATOM     24  H   UNL     1       4.676  -4.446  23.465  0.00  0.00    +0.210 HD
ENDBRANCH  18  23
BRANCH  19  25
ATOM     25  O   UNL     1       6.495  -2.906  26.295  0.00  0.00    -0.386 OA
ATOM     26  H   UNL     1       6.076  -3.299  27.091  0.00  0.00    +0.210 HD
ENDBRANCH  19  25
BRANCH  20  27
ATOM     27  O   UNL     1       6.201  -5.847  24.168  0.00  0.00    -0.386 OA
ATOM     28  H   UNL     1       6.414  -6.731  24.514  0.00  0.00    +0.210 HD
ENDBRANCH  20  27
BRANCH  21  29
ATOM     29  C   UNL     1       9.201  -3.521  24.735  0.00  0.00    +0.190 C 
BRANCH  29  30
ATOM     30  O   UNL     1      10.111  -2.932  23.816  0.00  0.00    -0.392 OA
ATOM     31  H   UNL     1      10.834  -3.571  23.690  0.00  0.00    +0.210 HD
ENDBRANCH  29  30
ENDBRANCH  21  29
ENDBRANCH   1  17
TORSDOF 12
ENDMDL
MODEL 8
REMARK VINA RESULT:      -5.6      1.422      6.038
REMARK  Name = 
REMARK  13 active torsions:
REMARK  status: ('A' for Active; 'I' for Inactive)
REMARK    1  A    between atoms: C_1  and  O_2
REMARK    2  A    between atoms: O_2  and  C_3
REMARK    3  A    between atoms: C_6  and  C_8
REMARK    4  A    between atoms: C_8  and  O_9
REMARK    5  A    between atoms: C_10  and  O_12
REMARK    6  A    between atoms: C_13  and  O_15
REMARK    7  A    between atoms: O_15  and  C_16
REMARK    8  A    between atoms: C_19  and  C_21
REMARK    9  A    between atoms: C_21  and  O_22
REMARK   10  A    between atoms: C_23  and  O_25
REMARK   11  A    between atoms: C_26  and  O_28
REMARK   12  A    between atoms: C_29  and  O_31
REMARK   13  A    between atoms: C_32  and  O_34
REMARK                            x       y       z     vdW  Elec       q    Type
REMARK                         _______ _______ _______ _____ _____    ______ ____
ROOT
ATOM      1  O   UNL     1       7.736  -1.382  24.398  0.00  0.00    -0.340 OA
ENDROOT
BRANCH   1   4
ATOM      2  C   UNL     1       9.930   0.823  23.026  0.00  0.00    +0.281 C 
ATOM      3  C   UNL     1       9.909  -0.047  24.302  0.00  0.00    +0.202 C 
ATOM      4  C   UNL     1       8.498  -0.250  24.901  0.00  0.00    +0.186 C 
ATOM      5  C   UNL     1       7.700   1.069  24.889  0.00  0.00    +0.177 C 
ATOM      6  C   UNL     1       7.861   1.943  23.637  0.00  0.00    +0.178 C 
ATOM      7  O   UNL     1       9.214   2.051  23.177  0.00  0.00    -0.341 OA
BRANCH   2   9
ATOM      8  C   UNL     1      10.031  -1.234  21.869  0.00  0.00    +0.197 C 
ATOM      9  O   UNL     1       9.520   0.093  21.871  0.00  0.00    -0.352 OA
ENDBRANCH   2   9
BRANCH   3  10
ATOM     10  O   UNL     1      10.761   0.611  25.274  0.00  0.00    -0.384 OA
ATOM     11  H   UNL     1      10.355   0.519  26.153  0.00  0.00    +0.210 HD
ENDBRANCH   3  10
BRANCH   5  12
ATOM     12  O   UNL     1       8.144   1.847  26.035  0.00  0.00    -0.386 OA
ATOM     13  H   UNL     1       8.259   2.773  25.746  0.00  0.00    +0.210 HD
ENDBRANCH   5  12
BRANCH   6  14
ATOM     14  C   UNL     1       6.895   1.597  22.506  0.00  0.00    +0.190 C 
BRANCH  14  15
ATOM     15  O   UNL     1       6.429   0.252  22.671  0.00  0.00    -0.392 OA
ATOM     16  H   UNL     1       7.180  -0.323  22.435  0.00  0.00    +0.210 HD
ENDBRANCH  14  15
ENDBRANCH   6  14
ENDBRANCH   1   4
BRANCH   1  17
ATOM     17  C   UNL     1       8.115  -2.631  25.042  0.00  0.00    +0.282 C 
ATOM     18  C   UNL     1       8.596  -3.801  24.106  0.00  0.00    +0.201 C 
ATOM     19  C   UNL     1       7.652  -5.020  23.944  0.00  0.00    +0.179 C 
ATOM     20  C   UNL     1       6.772  -5.224  25.181  0.00  0.00    +0.177 C 
ATOM     21  C   UNL     1       6.139  -3.913  25.655  0.00  0.00    +0.178 C 
ATOM     22  O   UNL     1       7.182  -3.020  26.055  0.00  0.00    -0.341 OA
BRANCH  18  23
ATOM     23  O   UNL     1       9.806  -4.338  24.713  0.00  0.00    -0.384 OA
ATOM     24  H   UNL     1      10.557  -3.964  24.199  0.00  0.00    +0.210 HD
ENDBRANCH  18  23
BRANCH  19  25
ATOM     25  O   UNL     1       6.890  -5.004  22.739  0.00  0.00    -0.386 OA
ATOM     26  H   UNL     1       7.501  -5.298  22.030  0.00  0.00    +0.210 HD
ENDBRANCH  19  25
BRANCH  20  27
ATOM     27  O   UNL     1       7.633  -5.730  26.229  0.00  0.00    -0.386 OA
ATOM     28  H   UNL     1       8.368  -6.212  25.812  0.00  0.00    +0.210 HD
ENDBRANCH  20  27
BRANCH  21  29
ATOM     29  C   UNL     1       5.089  -3.283  24.722  0.00  0.00    +0.190 C 
BRANCH  29  30
ATOM     30  O   UNL     1       4.823  -1.919  25.018  0.00  0.00    -0.392 OA
ATOM     31  H   UNL     1       4.560  -1.496  24.182  0.00  0.00    +0.210 HD
ENDBRANCH  29  30
ENDBRANCH  21  29
ENDBRANCH   1  17
TORSDOF 12
ENDMDL
MODEL 9
REMARK VINA RESULT:      -5.6      1.765      6.139
REMARK  Name = 
REMARK  13 active torsions:
REMARK  status: ('A' for Active; 'I' for Inactive)
REMARK    1  A    between atoms: C_1  and  O_2
REMARK    2  A    between atoms: O_2  and  C_3
REMARK    3  A    between atoms: C_6  and  C_8
REMARK    4  A    between atoms: C_8  and  O_9
REMARK    5  A    between atoms: C_10  and  O_12
REMARK    6  A    between atoms: C_13  and  O_15
REMARK    7  A    between atoms: O_15  and  C_16
REMARK    8  A    between atoms: C_19  and  C_21
REMARK    9  A    between atoms: C_21  and  O_22
REMARK   10  A    between atoms: C_23  and  O_25
REMARK   11  A    between atoms: C_26  and  O_28
REMARK   12  A    between atoms: C_29  and  O_31
REMARK   13  A    between atoms: C_32  and  O_34
REMARK                            x       y       z     vdW  Elec       q    Type
REMARK                         _______ _______ _______ _____ _____    ______ ____
ROOT
ATOM      1  O   UNL     1       8.135  -1.313  24.147  0.00  0.00    -0.340 OA
ENDROOT
BRANCH   1   4
ATOM      2  C   UNL     1       7.930   1.670  22.529  0.00  0.00    +0.281 C 
ATOM      3  C   UNL     1       8.656   0.332  22.267  0.00  0.00    +0.202 C 
ATOM      4  C   UNL     1       9.101  -0.403  23.552  0.00  0.00    +0.186 C 
ATOM      5  C   UNL     1       9.708   0.583  24.570  0.00  0.00    +0.177 C 
ATOM      6  C   UNL     1       9.003   1.943  24.692  0.00  0.00    +0.178 C 
ATOM      7  O   UNL     1       8.638   2.520  23.434  0.00  0.00    -0.341 OA
BRANCH   2   9
ATOM      8  C   UNL     1       5.771   2.622  22.650  0.00  0.00    +0.197 C 
ATOM      9  O   UNL     1       6.570   1.476  22.916  0.00  0.00    -0.352 OA
ENDBRANCH   2   9
BRANCH   3  10
ATOM     10  O   UNL     1       9.818   0.636  21.454  0.00  0.00    -0.384 OA
ATOM     11  H   UNL     1       9.631   1.435  20.934  0.00  0.00    +0.210 HD
ENDBRANCH   3  10
BRANCH   5  12
ATOM     12  O   UNL     1      11.081   0.829  24.159  0.00  0.00    -0.386 OA
ATOM     13  H   UNL     1      11.542   1.276  24.896  0.00  0.00    +0.210 HD
ENDBRANCH   5  12
BRANCH   6  14
ATOM     14  C   UNL     1       7.846   1.958  25.689  0.00  0.00    +0.190 C 
BRANCH  14  15
ATOM     15  O   UNL     1       7.870   0.754  26.467  0.00  0.00    -0.392 OA
ATOM     16  H   UNL     1       7.179   0.859  27.146  0.00  0.00    +0.210 HD
ENDBRANCH  14  15
ENDBRANCH   6  14
ENDBRANCH   1   4
BRANCH   1  17
ATOM     17  C   UNL     1       8.773  -2.359  24.932  0.00  0.00    +0.282 C 
ATOM     18  C   UNL     1       8.829  -3.798  24.295  0.00  0.00    +0.201 C 
ATOM     19  C   UNL     1       7.927  -4.892  24.922  0.00  0.00    +0.179 C 
ATOM     20  C   UNL     1       7.663  -4.625  26.407  0.00  0.00    +0.177 C 
ATOM     21  C   UNL     1       7.271  -3.169  26.666  0.00  0.00    +0.178 C 
ATOM     22  O   UNL     1       8.369  -2.328  26.304  0.00  0.00    -0.341 OA
BRANCH  18  23
ATOM     23  O   UNL     1      10.191  -4.277  24.485  0.00  0.00    -0.384 OA
ATOM     24  H   UNL     1      10.414  -4.092  25.426  0.00  0.00    +0.210 HD
ENDBRANCH  18  23
BRANCH  19  25
ATOM     25  O   UNL     1       6.723  -5.134  24.197  0.00  0.00    -0.386 OA
ATOM     26  H   UNL     1       6.963  -5.063  23.248  0.00  0.00    +0.210 HD
ENDBRANCH  19  25
BRANCH  20  27
ATOM     27  O   UNL     1       8.897  -4.907  27.110  0.00  0.00    -0.386 OA
ATOM     28  H   UNL     1       9.383  -4.071  27.217  0.00  0.00    +0.210 HD
ENDBRANCH  20  27
BRANCH  21  29
ATOM     29  C   UNL     1       5.912  -2.715  26.101  0.00  0.00    +0.190 C 
BRANCH  29  30
ATOM     30  O   UNL     1       5.776  -1.302  26.035  0.00  0.00    -0.392 OA
ATOM     31  H   UNL     1       4.831  -1.105  26.155  0.00  0.00    +0.210 HD
ENDBRANCH  29  30
ENDBRANCH  21  29
ENDBRANCH   1  17
TORSDOF 12
ENDMDL
