MODEL 1
REMARK VINA RESULT:      -5.2      0.000      0.000
REMARK  Name = 
REMARK  4 active torsions:
REMARK  status: ('A' for Active; 'I' for Inactive)
REMARK    1  A    between atoms: C_7  and  C_13
REMARK    2  A    between atoms: C_9  and  O_11
REMARK    3  A    between atoms: C_13  and  O_14
REMARK    4  A    between atoms: N_16  and  C_17
REMARK                            x       y       z     vdW  Elec       q    Type
REMARK                         _______ _______ _______ _____ _____    ______ ____
ROOT
ATOM      1  C   UNL     1       9.232   1.711  23.242  0.00  0.00    +0.059 C 
ATOM      2  N   UNL     1       8.710   0.769  24.226  0.00  0.00    -0.299 NA
ATOM      3  C   UNL     1       7.407   0.199  23.940  0.00  0.00    +0.105 C 
ATOM      4  C   UNL     1       9.809  -0.184  24.435  0.00  0.00    +0.073 C 
ATOM      5  C   UNL     1      10.127  -1.077  23.213  0.00  0.00    +0.143 C 
ATOM      6  C   UNL     1      10.031  -0.326  21.866  0.00  0.00    +0.131 C 
ATOM      7  C   UNL     1      10.963   0.805  24.675  0.00  0.00    +0.021 C 
ATOM      8  C   UNL     1       9.363   1.060  21.863  0.00  0.00    +0.051 C 
ATOM      9  C   UNL     1      10.586   2.048  23.870  0.00  0.00    +0.020 C 
ENDROOT
BRANCH   5  10
ATOM     10  C   UNL     1       9.421  -2.423  23.297  0.00  0.00    +0.312 C 
ATOM     11  O   UNL     1       8.341  -2.684  22.784  0.00  0.00    -0.251 OA
BRANCH  10  12
ATOM     12  O   UNL     1      10.044  -3.320  24.097  0.00  0.00    -0.480 OA
ATOM     13  H   UNL     1      10.561  -2.882  24.813  0.00  0.00    +0.295 HD
ENDBRANCH  10  12
ENDBRANCH   5  10
BRANCH   6  14
ATOM     14  O   UNL     1       9.432  -1.146  20.849  0.00  0.00    -0.391 OA
ATOM     15  H   UNL     1       9.667  -2.079  21.041  0.00  0.00    +0.210 HD
ENDBRANCH   6  14
TORSDOF 3
ENDMDL
MODEL 2
REMARK VINA RESULT:      -5.0      2.368      3.685
REMARK  Name = 
REMARK  4 active torsions:
REMARK  status: ('A' for Active; 'I' for Inactive)
REMARK    1  A    between atoms: C_7  and  C_13
REMARK    2  A    between atoms: C_9  and  O_11
REMARK    3  A    between atoms: C_13  and  O_14
REMARK    4  A    between atoms: N_16  and  C_17
REMARK                            x       y       z     vdW  Elec       q    Type
REMARK                         _______ _______ _______ _____ _____    ______ ____
ROOT
ATOM      1  C   UNL     1       8.854  -1.125  24.956  0.00  0.00    +0.059 C 
ATOM      2  N   UNL     1       7.883  -0.677  23.964  0.00  0.00    -0.299 NA
ATOM      3  C   UNL     1       7.193   0.564  24.255  0.00  0.00    +0.105 C 
ATOM      4  C   UNL     1       8.612  -0.738  22.689  0.00  0.00    +0.073 C 
ATOM      5  C   UNL     1       9.762   0.289  22.558  0.00  0.00    +0.143 C 
ATOM      6  C   UNL     1      10.556   0.488  23.869  0.00  0.00    +0.131 C 
ATOM      7  C   UNL     1       9.190  -2.161  22.791  0.00  0.00    +0.021 C 
ATOM      8  C   UNL     1       9.956  -0.084  25.165  0.00  0.00    +0.051 C 
ATOM      9  C   UNL     1       9.365  -2.404  24.290  0.00  0.00    +0.020 C 
ENDROOT
BRANCH   5  10
ATOM     10  C   UNL     1       9.315   1.549  21.831  0.00  0.00    +0.312 C 
ATOM     11  O   UNL     1       8.166   1.791  21.484  0.00  0.00    -0.251 OA
BRANCH  10  12
ATOM     12  O   UNL     1      10.331   2.374  21.489  0.00  0.00    -0.480 OA
ATOM     13  H   UNL     1      11.199   2.059  21.836  0.00  0.00    +0.295 HD
ENDBRANCH  10  12
ENDBRANCH   5  10
BRANCH   6  14
ATOM     14  O   UNL     1      10.898   1.869  24.070  0.00  0.00    -0.391 OA
ATOM     15  H   UNL     1      10.074   2.352  24.291  0.00  0.00    +0.210 HD
ENDBRANCH   6  14
TORSDOF 3
ENDMDL
MODEL 3
REMARK VINA RESULT:      -4.9      2.354      3.956
REMARK  Name = 
REMARK  4 active torsions:
REMARK  status: ('A' for Active; 'I' for Inactive)
REMARK    1  A    between atoms: C_7  and  C_13
REMARK    2  A    between atoms: C_9  and  O_11
REMARK    3  A    between atoms: C_13  and  O_14
REMARK    4  A    between atoms: N_16  and  C_17
REMARK                            x       y       z     vdW  Elec       q    Type
REMARK                         _______ _______ _______ _____ _____    ______ ____
ROOT
ATOM      1  C   UNL     1       8.026  -1.582  24.012  0.00  0.00    +0.059 C 
ATOM      2  N   UNL     1       7.577  -0.490  23.155  0.00  0.00    -0.299 NA
ATOM      3  C   UNL     1       7.015   0.665  23.829  0.00  0.00    +0.105 C 
ATOM      4  C   UNL     1       8.716  -0.237  22.261  0.00  0.00    +0.073 C 
ATOM      5  C   UNL     1       9.966   0.346  22.962  0.00  0.00    +0.143 C 
ATOM      6  C   UNL     1      10.226  -0.269  24.356  0.00  0.00    +0.131 C 
ATOM      7  C   UNL     1       9.000  -1.676  21.795  0.00  0.00    +0.021 C 
ATOM      8  C   UNL     1       9.106  -1.112  24.990  0.00  0.00    +0.051 C 
ATOM      9  C   UNL     1       8.560  -2.558  22.963  0.00  0.00    +0.020 C 
ENDROOT
BRANCH   5  10
ATOM     10  C   UNL     1      10.012   1.864  22.865  0.00  0.00    +0.312 C 
ATOM     11  O   UNL     1       9.705   2.636  23.764  0.00  0.00    -0.251 OA
BRANCH  10  12
ATOM     12  O   UNL     1      10.331   2.325  21.633  0.00  0.00    -0.480 OA
ATOM     13  H   UNL     1      11.142   2.884  21.645  0.00  0.00    +0.295 HD
ENDBRANCH  10  12
ENDBRANCH   5  10
BRANCH   6  14
ATOM     14  O   UNL     1      10.663   0.727  25.295  0.00  0.00    -0.391 OA
ATOM     15  H   UNL     1      10.093   1.516  25.181  0.00  0.00    +0.210 HD
ENDBRANCH   6  14
TORSDOF 3
ENDMDL
MODEL 4
REMARK VINA RESULT:      -4.9      1.617      2.250
REMARK  Name = 
REMARK  4 active torsions:
REMARK  status: ('A' for Active; 'I' for Inactive)
REMARK    1  A    between atoms: C_7  and  C_13
REMARK    2  A    between atoms: C_9  and  O_11
REMARK    3  A    between atoms: C_13  and  O_14
REMARK    4  A    between atoms: N_16  and  C_17
REMARK                            x       y       z     vdW  Elec       q    Type
REMARK                         _______ _______ _______ _____ _____    ______ ____
ROOT
ATOM      1  C   UNL     1       9.162   0.760  21.885  0.00  0.00    +0.059 C 
ATOM      2  N   UNL     1       8.236   1.011  22.985  0.00  0.00    -0.299 NA
ATOM      3  C   UNL     1       7.112   0.102  23.098  0.00  0.00    +0.105 C 
ATOM      4  C   UNL     1       9.101   1.134  24.167  0.00  0.00    +0.073 C 
ATOM      5  C   UNL     1       9.809  -0.177  24.584  0.00  0.00    +0.143 C 
ATOM      6  C   UNL     1      10.295  -1.018  23.381  0.00  0.00    +0.131 C 
ATOM      7  C   UNL     1      10.134   2.138  23.626  0.00  0.00    +0.021 C 
ATOM      8  C   UNL     1       9.774  -0.639  21.984  0.00  0.00    +0.051 C 
ATOM      9  C   UNL     1      10.184   1.873  22.121  0.00  0.00    +0.020 C 
ENDROOT
BRANCH   5  10
ATOM     10  C   UNL     1       9.038  -0.916  25.668  0.00  0.00    +0.312 C 
ATOM     11  O   UNL     1       8.227  -1.811  25.468  0.00  0.00    -0.251 OA
BRANCH  10  12
ATOM     12  O   UNL     1       9.240  -0.428  26.914  0.00  0.00    -0.480 OA
ATOM     13  H   UNL     1       9.852  -0.995  27.439  0.00  0.00    +0.295 HD
ENDBRANCH  10  12
ENDBRANCH   5  10
BRANCH   6  14
ATOM     14  O   UNL     1      10.085  -2.422  23.604  0.00  0.00    -0.391 OA
ATOM     15  H   UNL     1       9.449  -2.515  24.345  0.00  0.00    +0.210 HD
ENDBRANCH   6  14
TORSDOF 3
ENDMDL
MODEL 5
REMARK VINA RESULT:      -4.9      2.635      3.264
REMARK  Name = 
REMARK  4 active torsions:
REMARK  status: ('A' for Active; 'I' for Inactive)
REMARK    1  A    between atoms: C_7  and  C_13
REMARK    2  A    between atoms: C_9  and  O_11
REMARK    3  A    between atoms: C_13  and  O_14
REMARK    4  A    between atoms: N_16  and  C_17
REMARK                            x       y       z     vdW  Elec       q    Type
REMARK                         _______ _______ _______ _____ _____    ______ ____
ROOT
ATOM      1  C   UNL     1      10.603   2.038  23.762  0.00  0.00    +0.059 C 
ATOM      2  N   UNL     1       9.441   2.446  24.544  0.00  0.00    -0.299 NA
ATOM      3  C   UNL     1       8.798   3.682  24.142  0.00  0.00    +0.105 C 
ATOM      4  C   UNL     1       8.590   1.248  24.582  0.00  0.00    +0.073 C 
ATOM      5  C   UNL     1       7.984   0.847  23.216  0.00  0.00    +0.143 C 
ATOM      6  C   UNL     1       8.962   1.038  22.034  0.00  0.00    +0.131 C 
ATOM      7  C   UNL     1       9.635   0.205  25.017  0.00  0.00    +0.021 C 
ATOM      8  C   UNL     1      10.243   1.852  22.287  0.00  0.00    +0.051 C 
ATOM      9  C   UNL     1      10.959   0.722  24.457  0.00  0.00    +0.020 C 
ENDROOT
BRANCH   5  10
ATOM     10  C   UNL     1       6.579   1.403  23.036  0.00  0.00    +0.312 C 
ATOM     11  O   UNL     1       6.294   2.404  22.392  0.00  0.00    -0.251 OA
BRANCH  10  12
ATOM     12  O   UNL     1       5.635   0.748  23.751  0.00  0.00    -0.480 OA
ATOM     13  H   UNL     1       5.636   1.015  24.700  0.00  0.00    +0.295 HD
ENDBRANCH  10  12
ENDBRANCH   5  10
BRANCH   6  14
ATOM     14  O   UNL     1       8.289   1.555  20.874  0.00  0.00    -0.391 OA
ATOM     15  H   UNL     1       7.382   1.813  21.145  0.00  0.00    +0.210 HD
ENDBRANCH   6  14
TORSDOF 3
ENDMDL
MODEL 6
REMARK VINA RESULT:      -4.8      2.634      4.061
REMARK  Name = 
REMARK  4 active torsions:
REMARK  status: ('A' for Active; 'I' for Inactive)
REMARK    1  A    between atoms: C_7  and  C_13
REMARK    2  A    between atoms: C_9  and  O_11
REMARK    3  A    between atoms: C_13  and  O_14
REMARK    4  A    between atoms: N_16  and  C_17
REMARK                            x       y       z     vdW  Elec       q    Type
REMARK                         _______ _______ _______ _____ _____    ______ ____
ROOT
ATOM      1  C   UNL     1       9.376  -1.097  22.981  0.00  0.00    +0.059 C 
ATOM      2  N   UNL     1       9.146  -0.393  24.238  0.00  0.00    -0.299 NA
ATOM      3  C   UNL     1      10.308   0.216  24.854  0.00  0.00    +0.105 C 
ATOM      4  C   UNL     1       8.013   0.499  23.952  0.00  0.00    +0.073 C 
ATOM      5  C   UNL     1       8.328   1.638  22.953  0.00  0.00    +0.143 C 
ATOM      6  C   UNL     1       9.247   1.194  21.792  0.00  0.00    +0.131 C 
ATOM      7  C   UNL     1       7.047  -0.511  23.307  0.00  0.00    +0.021 C 
ATOM      8  C   UNL     1       9.961  -0.163  21.920  0.00  0.00    +0.051 C 
ATOM      9  C   UNL     1       7.953  -1.552  22.651  0.00  0.00    +0.020 C 
ENDROOT
BRANCH   5  10
ATOM     10  C   UNL     1       8.703   2.928  23.667  0.00  0.00    +0.312 C 
ATOM     11  O   UNL     1       8.864   3.044  24.875  0.00  0.00    -0.251 OA
BRANCH  10  12
ATOM     12  O   UNL     1       8.747   4.011  22.855  0.00  0.00    -0.480 OA
ATOM     13  H   UNL     1       8.026   4.000  22.182  0.00  0.00    +0.295 HD
ENDBRANCH  10  12
ENDBRANCH   5  10
BRANCH   6  14
ATOM     14  O   UNL     1      10.209   2.211  21.467  0.00  0.00    -0.391 OA
ATOM     15  H   UNL     1      10.964   2.117  22.086  0.00  0.00    +0.210 HD
ENDBRANCH   6  14
TORSDOF 3
ENDMDL
MODEL 7
REMARK VINA RESULT:      -4.8      1.521      2.340
REMARK  Name = 
REMARK  4 active torsions:
REMARK  status: ('A' for Active; 'I' for Inactive)
REMARK    1  A    between atoms: C_7  and  C_13
REMARK    2  A    between atoms: C_9  and  O_11
REMARK    3  A    between atoms: C_13  and  O_14
REMARK    4  A    between atoms: N_16  and  C_17
REMARK                            x       y       z     vdW  Elec       q    Type
REMARK                         _______ _______ _______ _____ _____    ______ ____
ROOT
ATOM      1  C   UNL     1       8.960   1.958  24.404  0.00  0.00    +0.059 C 
ATOM      2  N   UNL     1      10.004   0.959  24.205  0.00  0.00    -0.299 NA
ATOM      3  C   UNL     1       9.882  -0.260  24.982  0.00  0.00    +0.105 C 
ATOM      4  C   UNL     1      10.081   0.800  22.746  0.00  0.00    +0.073 C 
ATOM      5  C   UNL     1       8.833   0.150  22.104  0.00  0.00    +0.143 C 
ATOM      6  C   UNL     1       7.505   0.620  22.739  0.00  0.00    +0.131 C 
ATOM      7  C   UNL     1      10.174   2.279  22.332  0.00  0.00    +0.021 C 
ATOM      8  C   UNL     1       7.578   1.393  24.067  0.00  0.00    +0.051 C 
ATOM      9  C   UNL     1       9.415   3.037  23.421  0.00  0.00    +0.020 C 
ENDROOT
BRANCH   5  10
ATOM     10  C   UNL     1       9.008  -1.350  21.918  0.00  0.00    +0.312 C 
ATOM     11  O   UNL     1       8.123  -2.184  22.054  0.00  0.00    -0.251 OA
BRANCH  10  12
ATOM     12  O   UNL     1      10.287  -1.727  21.682  0.00  0.00    -0.480 OA
ATOM     13  H   UNL     1      10.435  -1.965  20.737  0.00  0.00    +0.295 HD
ENDBRANCH  10  12
ENDBRANCH   5  10
BRANCH   6  14
ATOM     14  O   UNL     1       6.572  -0.466  22.870  0.00  0.00    -0.391 OA
ATOM     15  H   UNL     1       6.129  -0.376  23.739  0.00  0.00    +0.210 HD
ENDBRANCH   6  14
TORSDOF 3
ENDMDL
MODEL 8
REMARK VINA RESULT:      -4.8      4.393      5.475
REMARK  Name = 
REMARK  4 active torsions:
REMARK  status: ('A' for Active; 'I' for Inactive)
REMARK    1  A    between atoms: C_7  and  C_13
REMARK    2  A    between atoms: C_9  and  O_11
REMARK    3  A    between atoms: C_13  and  O_14
REMARK    4  A    between atoms: N_16  and  C_17
REMARK                            x       y       z     vdW  Elec       q    Type
REMARK                         _______ _______ _______ _____ _____    ______ ____
ROOT
ATOM      1  C   UNL     1       7.587  -2.952  23.749  0.00  0.00    +0.059 C 
ATOM      2  N   UNL     1       6.532  -3.457  24.621  0.00  0.00    -0.299 NA
ATOM      3  C   UNL     1       5.203  -2.922  24.398  0.00  0.00    +0.105 C 
ATOM      4  C   UNL     1       6.670  -4.919  24.550  0.00  0.00    +0.073 C 
ATOM      5  C   UNL     1       6.322  -5.530  23.172  0.00  0.00    +0.143 C 
ATOM      6  C   UNL     1       6.806  -4.670  21.982  0.00  0.00    +0.131 C 
ATOM      7  C   UNL     1       8.181  -5.047  24.812  0.00  0.00    +0.021 C 
ATOM      8  C   UNL     1       7.273  -3.235  22.278  0.00  0.00    +0.051 C 
ATOM      9  C   UNL     1       8.783  -3.754  24.264  0.00  0.00    +0.020 C 
ENDROOT
BRANCH   5  10
ATOM     10  C   UNL     1       4.883  -6.022  23.119  0.00  0.00    +0.312 C 
ATOM     11  O   UNL     1       3.933  -5.374  22.698  0.00  0.00    -0.251 OA
BRANCH  10  12
ATOM     12  O   UNL     1       4.697  -7.236  23.687  0.00  0.00    -0.480 OA
ATOM     13  H   UNL     1       4.755  -7.967  23.028  0.00  0.00    +0.295 HD
ENDBRANCH  10  12
ENDBRANCH   5  10
BRANCH   6  14
ATOM     14  O   UNL     1       5.837  -4.648  20.922  0.00  0.00    -0.391 OA
ATOM     15  H   UNL     1       5.097  -4.070  21.205  0.00  0.00    +0.210 HD
ENDBRANCH   6  14
TORSDOF 3
ENDMDL
MODEL 9
REMARK VINA RESULT:      -4.7      4.038      5.816
REMARK  Name = 
REMARK  4 active torsions:
REMARK  status: ('A' for Active; 'I' for Inactive)
REMARK    1  A    between atoms: C_7  and  C_13
REMARK    2  A    between atoms: C_9  and  O_11
REMARK    3  A    between atoms: C_13  and  O_14
REMARK    4  A    between atoms: N_16  and  C_17
REMARK                            x       y       z     vdW  Elec       q    Type
REMARK                         _______ _______ _______ _____ _____    ______ ____
ROOT
ATOM      1  C   UNL     1       5.731  -3.140  26.155  0.00  0.00    +0.059 C 
ATOM      2  N   UNL     1       6.809  -2.591  25.340  0.00  0.00    -0.299 NA
ATOM      3  C   UNL     1       7.934  -2.025  26.061  0.00  0.00    +0.105 C 
ATOM      4  C   UNL     1       7.119  -3.658  24.379  0.00  0.00    +0.073 C 
ATOM      5  C   UNL     1       7.749  -4.925  25.005  0.00  0.00    +0.143 C 
ATOM      6  C   UNL     1       7.134  -5.300  26.373  0.00  0.00    +0.131 C 
ATOM      7  C   UNL     1       5.697  -3.973  23.880  0.00  0.00    +0.021 C 
ATOM      8  C   UNL     1       6.238  -4.259  27.067  0.00  0.00    +0.051 C 
ATOM      9  C   UNL     1       4.787  -3.647  25.063  0.00  0.00    +0.020 C 
ENDROOT
BRANCH   5  10
ATOM     10  C   UNL     1       9.268  -4.900  24.922  0.00  0.00    +0.312 C 
ATOM     11  O   UNL     1       9.936  -3.952  24.531  0.00  0.00    -0.251 OA
BRANCH  10  12
ATOM     12  O   UNL     1       9.853  -6.083  25.225  0.00  0.00    -0.480 OA
ATOM     13  H   UNL     1       9.328  -6.851  24.897  0.00  0.00    +0.295 HD
ENDBRANCH  10  12
ENDBRANCH   5  10
BRANCH   6  14
ATOM     14  O   UNL     1       8.140  -5.753  27.293  0.00  0.00    -0.391 OA
ATOM     15  H   UNL     1       7.722  -6.402  27.897  0.00  0.00    +0.210 HD
ENDBRANCH   6  14
TORSDOF 3
ENDMDL
