MODEL 1
REMARK VINA RESULT:      -7.9      0.000      0.000
REMARK  Name = 
REMARK  12 active torsions:
REMARK  status: ('A' for Active; 'I' for Inactive)
REMARK    1  A    between atoms: C_1  and  C_2
REMARK    2  A    between atoms: C_5  and  N_8
REMARK    3  A    between atoms: C_10  and  C_36
REMARK    4  A    between atoms: C_12  and  N_13
REMARK    5  A    between atoms: N_16  and  C_17
REMARK    6  A    between atoms: C_20  and  O_21
REMARK    7  A    between atoms: O_21  and  C_22
REMARK    8  A    between atoms: C_22  and  C_23
REMARK    9  A    between atoms: C_23  and  N_24
REMARK   10  A    between atoms: C_36  and  C_37
REMARK   11  A    between atoms: C_36  and  C_38
REMARK   12  A    between atoms: C_36  and  C_39
REMARK                            x       y       z     vdW  Elec       q    Type
REMARK                         _______ _______ _______ _____ _____    ______ ____
ROOT
ATOM      1  N   UNL     1       7.331   1.840  22.185  0.00  0.00    -0.254 N 
ATOM      2  H   UNL     1       7.612   1.773  21.221  0.00  0.00    +0.158 HD
ATOM      3  C   UNL     1       7.543   0.740  23.070  0.00  0.00    +0.309 C 
ATOM      4  N   UNL     1       8.183  -0.306  22.444  0.00  0.00    -0.269 N 
ATOM      5  H   UNL     1       8.595  -0.149  21.545  0.00  0.00    +0.156 HD
ATOM      6  O   UNL     1       7.150   0.800  24.222  0.00  0.00    -0.252 OA
ENDROOT
BRANCH   4   7
ATOM      7  C   UNL     1       8.384  -1.596  23.026  0.00  0.00    +0.043 A 
ATOM      8  C   UNL     1       7.485  -2.681  22.774  0.00  0.00    +0.007 A 
ATOM      9  C   UNL     1       6.395  -2.600  21.872  0.00  0.00    +0.010 A 
ATOM     10  C   UNL     1       5.474  -3.643  21.731  0.00  0.00    +0.001 A 
ATOM     11  C   UNL     1       5.620  -4.802  22.475  0.00  0.00    +0.001 A 
ATOM     12  C   UNL     1       6.727  -4.950  23.309  0.00  0.00    +0.012 A 
ATOM     13  C   UNL     1       7.687  -3.928  23.454  0.00  0.00    +0.026 A 
ATOM     14  C   UNL     1       8.826  -4.117  24.273  0.00  0.00    +0.128 A 
ATOM     15  C   UNL     1       9.689  -3.044  24.484  0.00  0.00    +0.048 A 
ATOM     16  C   UNL     1       9.449  -1.804  23.905  0.00  0.00    +0.027 A 
BRANCH  14  17
ATOM     17  O   UNL     1       9.086  -5.379  24.797  0.00  0.00    -0.490 OA
BRANCH  17  18
ATOM     18  C   UNL     1       9.022  -5.408  26.230  0.00  0.00    +0.244 C 
BRANCH  18  19
ATOM     19  C   UNL     1       7.695  -4.911  26.852  0.00  0.00    +0.125 C 
BRANCH  19  20
ATOM     20  N   UNL     1       6.821  -6.065  27.185  0.00  0.00    -0.295 NA
ATOM     21  C   UNL     1       5.619  -6.181  26.329  0.00  0.00    +0.112 C 
ATOM     22  C   UNL     1       4.447  -5.232  26.681  0.00  0.00    +0.175 C 
ATOM     23  O   UNL     1       4.177  -5.125  28.088  0.00  0.00    -0.377 OA
ATOM     24  C   UNL     1       5.373  -4.899  28.837  0.00  0.00    +0.175 C 
ATOM     25  C   UNL     1       6.343  -6.056  28.587  0.00  0.00    +0.112 C 
ENDBRANCH  19  20
ENDBRANCH  18  19
ENDBRANCH  17  18
ENDBRANCH  14  17
ENDBRANCH   4   7
BRANCH   1  27
ATOM     26  N   UNL     1       7.287   4.152  23.202  0.00  0.00    -0.218 N 
ATOM     27  C   UNL     1       6.706   3.029  22.604  0.00  0.00    +0.130 A 
ATOM     28  C   UNL     1       5.353   3.288  22.597  0.00  0.00    +0.069 A 
ATOM     29  C   UNL     1       5.170   4.518  23.267  0.00  0.00    +0.071 A 
ATOM     30  N   UNL     1       6.345   5.017  23.668  0.00  0.00    -0.169 NA
BRANCH  26  35
ATOM     31  C   UNL     1      12.910   5.173  23.401  0.00  0.00    +0.044 C 
ATOM     32  C   UNL     1      11.438   4.890  23.493  0.00  0.00    -0.050 A 
ATOM     33  C   UNL     1      10.531   5.950  23.597  0.00  0.00    +0.005 A 
ATOM     34  C   UNL     1       9.155   5.712  23.570  0.00  0.00    +0.028 A 
ATOM     35  C   UNL     1       8.672   4.407  23.411  0.00  0.00    +0.067 A 
ATOM     36  C   UNL     1       9.573   3.334  23.417  0.00  0.00    +0.028 A 
ATOM     37  C   UNL     1      10.950   3.580  23.439  0.00  0.00    +0.005 A 
ENDBRANCH  26  35
BRANCH  29  38
ATOM     38  C   UNL     1       3.845   5.225  23.537  0.00  0.00    +0.006 C 
ATOM     39  C   UNL     1       4.032   6.487  24.403  0.00  0.00    +0.017 C 
ATOM     40  C   UNL     1       2.866   4.291  24.287  0.00  0.00    +0.017 C 
ATOM     41  C   UNL     1       3.191   5.634  22.203  0.00  0.00    +0.017 C 
ENDBRANCH  29  38
ENDBRANCH   1  27
TORSDOF 8
ENDMDL
MODEL 2
REMARK VINA RESULT:      -7.8      2.256      3.386
REMARK  Name = 
REMARK  12 active torsions:
REMARK  status: ('A' for Active; 'I' for Inactive)
REMARK    1  A    between atoms: C_1  and  C_2
REMARK    2  A    between atoms: C_5  and  N_8
REMARK    3  A    between atoms: C_10  and  C_36
REMARK    4  A    between atoms: C_12  and  N_13
REMARK    5  A    between atoms: N_16  and  C_17
REMARK    6  A    between atoms: C_20  and  O_21
REMARK    7  A    between atoms: O_21  and  C_22
REMARK    8  A    between atoms: C_22  and  C_23
REMARK    9  A    between atoms: C_23  and  N_24
REMARK   10  A    between atoms: C_36  and  C_37
REMARK   11  A    between atoms: C_36  and  C_38
REMARK   12  A    between atoms: C_36  and  C_39
REMARK                            x       y       z     vdW  Elec       q    Type
REMARK                         _______ _______ _______ _____ _____    ______ ____
ROOT
ATOM      1  N   UNL     1       8.200   1.904  25.581  0.00  0.00    -0.254 N 
ATOM      2  H   UNL     1       9.060   1.770  26.087  0.00  0.00    +0.158 HD
ATOM      3  C   UNL     1       7.634   0.825  24.837  0.00  0.00    +0.309 C 
ATOM      4  N   UNL     1       8.372  -0.329  24.963  0.00  0.00    -0.269 N 
ATOM      5  H   UNL     1       9.080  -0.372  25.671  0.00  0.00    +0.156 HD
ATOM      6  O   UNL     1       6.625   1.003  24.177  0.00  0.00    -0.252 OA
ENDROOT
BRANCH   4   7
ATOM      7  C   UNL     1       8.146  -1.523  24.209  0.00  0.00    +0.043 A 
ATOM      8  C   UNL     1       8.201  -2.817  24.817  0.00  0.00    +0.007 A 
ATOM      9  C   UNL     1       8.387  -3.020  26.208  0.00  0.00    +0.010 A 
ATOM     10  C   UNL     1       8.544  -4.298  26.752  0.00  0.00    +0.001 A 
ATOM     11  C   UNL     1       8.506  -5.412  25.929  0.00  0.00    +0.001 A 
ATOM     12  C   UNL     1       8.241  -5.255  24.570  0.00  0.00    +0.012 A 
ATOM     13  C   UNL     1       8.053  -3.982  23.994  0.00  0.00    +0.026 A 
ATOM     14  C   UNL     1       7.742  -3.849  22.620  0.00  0.00    +0.128 A 
ATOM     15  C   UNL     1       7.680  -2.574  22.064  0.00  0.00    +0.048 A 
ATOM     16  C   UNL     1       7.917  -1.442  22.834  0.00  0.00    +0.027 A 
BRANCH  14  17
ATOM     17  O   UNL     1       7.449  -4.987  21.875  0.00  0.00    -0.490 OA
BRANCH  17  18
ATOM     18  C   UNL     1       6.071  -5.052  21.481  0.00  0.00    +0.244 C 
BRANCH  18  19
ATOM     19  C   UNL     1       5.117  -5.740  22.487  0.00  0.00    +0.125 C 
BRANCH  19  20
ATOM     20  N   UNL     1       4.024  -4.811  22.874  0.00  0.00    -0.295 NA
ATOM     21  C   UNL     1       4.423  -3.783  23.862  0.00  0.00    +0.112 C 
ATOM     22  C   UNL     1       4.499  -4.257  25.334  0.00  0.00    +0.175 C 
ATOM     23  O   UNL     1       3.403  -5.091  25.741  0.00  0.00    -0.377 OA
ATOM     24  C   UNL     1       3.152  -6.130  24.793  0.00  0.00    +0.175 C 
ATOM     25  C   UNL     1       2.838  -5.499  23.435  0.00  0.00    +0.112 C 
ENDBRANCH  19  20
ENDBRANCH  18  19
ENDBRANCH  17  18
ENDBRANCH  14  17
ENDBRANCH   4   7
BRANCH   1  27
ATOM     26  N   UNL     1       8.148   4.395  25.172  0.00  0.00    -0.218 N 
ATOM     27  C   UNL     1       7.612   3.182  25.614  0.00  0.00    +0.130 A 
ATOM     28  C   UNL     1       6.406   3.513  26.191  0.00  0.00    +0.069 A 
ATOM     29  C   UNL     1       6.305   4.920  26.146  0.00  0.00    +0.071 A 
ATOM     30  N   UNL     1       7.386   5.453  25.564  0.00  0.00    -0.169 NA
BRANCH  26  35
ATOM     31  C   UNL     1      13.345   5.124  22.900  0.00  0.00    +0.044 C 
ATOM     32  C   UNL     1      11.925   4.975  23.369  0.00  0.00    -0.050 A 
ATOM     33  C   UNL     1      11.285   3.736  23.264  0.00  0.00    +0.005 A 
ATOM     34  C   UNL     1      10.006   3.551  23.797  0.00  0.00    +0.028 A 
ATOM     35  C   UNL     1       9.367   4.602  24.466  0.00  0.00    +0.067 A 
ATOM     36  C   UNL     1       9.958   5.872  24.478  0.00  0.00    +0.028 A 
ATOM     37  C   UNL     1      11.240   6.049  23.946  0.00  0.00    +0.005 A 
ENDBRANCH  26  35
BRANCH  29  38
ATOM     38  C   UNL     1       5.158   5.774  26.681  0.00  0.00    +0.006 C 
ATOM     39  C   UNL     1       4.579   6.704  25.596  0.00  0.00    +0.017 C 
ATOM     40  C   UNL     1       5.636   6.667  27.849  0.00  0.00    +0.017 C 
ATOM     41  C   UNL     1       4.030   4.863  27.204  0.00  0.00    +0.017 C 
ENDBRANCH  29  38
ENDBRANCH   1  27
TORSDOF 8
ENDMDL
MODEL 3
REMARK VINA RESULT:      -7.6      2.392      9.846
REMARK  Name = 
REMARK  12 active torsions:
REMARK  status: ('A' for Active; 'I' for Inactive)
REMARK    1  A    between atoms: C_1  and  C_2
REMARK    2  A    between atoms: C_5  and  N_8
REMARK    3  A    between atoms: C_10  and  C_36
REMARK    4  A    between atoms: C_12  and  N_13
REMARK    5  A    between atoms: N_16  and  C_17
REMARK    6  A    between atoms: C_20  and  O_21
REMARK    7  A    between atoms: O_21  and  C_22
REMARK    8  A    between atoms: C_22  and  C_23
REMARK    9  A    between atoms: C_23  and  N_24
REMARK   10  A    between atoms: C_36  and  C_37
REMARK   11  A    between atoms: C_36  and  C_38
REMARK   12  A    between atoms: C_36  and  C_39
REMARK                            x       y       z     vdW  Elec       q    Type
REMARK                         _______ _______ _______ _____ _____    ______ ____
ROOT
ATOM      1  N   UNL     1       6.284  -2.848  26.734  0.00  0.00    -0.254 N 
ATOM      2  H   UNL     1       7.160  -2.684  27.204  0.00  0.00    +0.158 HD
ATOM      3  C   UNL     1       5.846  -1.958  25.708  0.00  0.00    +0.309 C 
ATOM      4  N   UNL     1       6.767  -0.964  25.463  0.00  0.00    -0.269 N 
ATOM      5  H   UNL     1       7.685  -1.052  25.853  0.00  0.00    +0.156 HD
ATOM      6  O   UNL     1       4.760  -2.122  25.181  0.00  0.00    -0.252 OA
ENDROOT
BRANCH   4   7
ATOM      7  C   UNL     1       6.537   0.161  24.611  0.00  0.00    +0.043 A 
ATOM      8  C   UNL     1       7.306   0.372  23.423  0.00  0.00    +0.007 A 
ATOM      9  C   UNL     1       8.277  -0.545  22.947  0.00  0.00    +0.010 A 
ATOM     10  C   UNL     1       9.085  -0.257  21.843  0.00  0.00    +0.001 A 
ATOM     11  C   UNL     1       8.941   0.947  21.173  0.00  0.00    +0.001 A 
ATOM     12  C   UNL     1       7.940   1.835  21.561  0.00  0.00    +0.012 A 
ATOM     13  C   UNL     1       7.091   1.563  22.654  0.00  0.00    +0.026 A 
ATOM     14  C   UNL     1       6.053   2.460  23.003  0.00  0.00    +0.128 A 
ATOM     15  C   UNL     1       5.313   2.216  24.158  0.00  0.00    +0.048 A 
ATOM     16  C   UNL     1       5.578   1.114  24.961  0.00  0.00    +0.027 A 
BRANCH  14  17
ATOM     17  O   UNL     1       5.760   3.525  22.158  0.00  0.00    -0.490 OA
BRANCH  17  18
ATOM     18  C   UNL     1       5.943   4.800  22.789  0.00  0.00    +0.244 C 
BRANCH  18  19
ATOM     19  C   UNL     1       7.356   5.418  22.655  0.00  0.00    +0.125 C 
BRANCH  19  20
ATOM     20  N   UNL     1       7.939   5.661  24.000  0.00  0.00    -0.295 NA
ATOM     21  C   UNL     1       9.017   6.675  24.018  0.00  0.00    +0.112 C 
ATOM     22  C   UNL     1      10.407   6.190  23.537  0.00  0.00    +0.175 C 
ATOM     23  O   UNL     1      10.786   4.899  24.038  0.00  0.00    -0.377 OA
ATOM     24  C   UNL     1       9.734   3.944  23.880  0.00  0.00    +0.175 C 
ATOM     25  C   UNL     1       8.496   4.441  24.628  0.00  0.00    +0.112 C 
ENDBRANCH  19  20
ENDBRANCH  18  19
ENDBRANCH  17  18
ENDBRANCH  14  17
ENDBRANCH   4   7
BRANCH   1  27
ATOM     26  N   UNL     1       5.080  -5.040  26.387  0.00  0.00    -0.218 N 
ATOM     27  C   UNL     1       5.515  -3.951  27.149  0.00  0.00    +0.130 A 
ATOM     28  C   UNL     1       4.943  -4.130  28.389  0.00  0.00    +0.069 A 
ATOM     29  C   UNL     1       4.121  -5.274  28.297  0.00  0.00    +0.071 A 
ATOM     30  N   UNL     1       4.176  -5.798  27.067  0.00  0.00    -0.169 NA
BRANCH  26  35
ATOM     31  C   UNL     1       6.305  -5.685  20.839  0.00  0.00    +0.044 C 
ATOM     32  C   UNL     1       6.003  -5.659  22.310  0.00  0.00    -0.050 A 
ATOM     33  C   UNL     1       7.028  -5.403  23.227  0.00  0.00    +0.005 A 
ATOM     34  C   UNL     1       6.744  -5.265  24.588  0.00  0.00    +0.028 A 
ATOM     35  C   UNL     1       5.422  -5.353  25.041  0.00  0.00    +0.067 A 
ATOM     36  C   UNL     1       4.409  -5.716  24.144  0.00  0.00    +0.028 A 
ATOM     37  C   UNL     1       4.699  -5.849  22.782  0.00  0.00    +0.005 A 
ENDBRANCH  26  35
BRANCH  29  38
ATOM     38  C   UNL     1       3.258  -5.872  29.405  0.00  0.00    +0.006 C 
ATOM     39  C   UNL     1       4.109  -6.570  30.485  0.00  0.00    +0.017 C 
ATOM     40  C   UNL     1       2.283  -6.927  28.832  0.00  0.00    +0.017 C 
ATOM     41  C   UNL     1       2.425  -4.761  30.073  0.00  0.00    +0.017 C 
ENDBRANCH  29  38
ENDBRANCH   1  27
TORSDOF 8
ENDMDL
MODEL 4
REMARK VINA RESULT:      -7.5      2.655      3.927
REMARK  Name = 
REMARK  12 active torsions:
REMARK  status: ('A' for Active; 'I' for Inactive)
REMARK    1  A    between atoms: C_1  and  C_2
REMARK    2  A    between atoms: C_5  and  N_8
REMARK    3  A    between atoms: C_10  and  C_36
REMARK    4  A    between atoms: C_12  and  N_13
REMARK    5  A    between atoms: N_16  and  C_17
REMARK    6  A    between atoms: C_20  and  O_21
REMARK    7  A    between atoms: O_21  and  C_22
REMARK    8  A    between atoms: C_22  and  C_23
REMARK    9  A    between atoms: C_23  and  N_24
REMARK   10  A    between atoms: C_36  and  C_37
REMARK   11  A    between atoms: C_36  and  C_38
REMARK   12  A    between atoms: C_36  and  C_39
REMARK                            x       y       z     vdW  Elec       q    Type
REMARK                         _______ _______ _______ _____ _____    ______ ____
ROOT
ATOM      1  N   UNL     1       7.160   2.861  26.839  0.00  0.00    -0.254 N 
ATOM      2  H   UNL     1       7.700   2.977  27.681  0.00  0.00    +0.158 HD
ATOM      3  C   UNL     1       7.239   1.640  26.103  0.00  0.00    +0.309 C 
ATOM      4  N   UNL     1       8.062   0.723  26.716  0.00  0.00    -0.269 N 
ATOM      5  H   UNL     1       8.359   0.897  27.657  0.00  0.00    +0.156 HD
ATOM      6  O   UNL     1       6.632   1.522  25.053  0.00  0.00    -0.252 OA
ENDROOT
BRANCH   4   7
ATOM      7  C   UNL     1       8.463  -0.520  26.136  0.00  0.00    +0.043 A 
ATOM      8  C   UNL     1       9.178  -0.576  24.898  0.00  0.00    +0.007 A 
ATOM      9  C   UNL     1       9.625   0.575  24.201  0.00  0.00    +0.010 A 
ATOM     10  C   UNL     1      10.226   0.488  22.942  0.00  0.00    +0.001 A 
ATOM     11  C   UNL     1      10.411  -0.749  22.345  0.00  0.00    +0.001 A 
ATOM     12  C   UNL     1      10.060  -1.906  23.038  0.00  0.00    +0.012 A 
ATOM     13  C   UNL     1       9.476  -1.854  24.320  0.00  0.00    +0.026 A 
ATOM     14  C   UNL     1       9.168  -3.044  25.022  0.00  0.00    +0.128 A 
ATOM     15  C   UNL     1       8.485  -2.953  26.233  0.00  0.00    +0.048 A 
ATOM     16  C   UNL     1       8.108  -1.721  26.754  0.00  0.00    +0.027 A 
BRANCH  14  17
ATOM     17  O   UNL     1       9.604  -4.265  24.519  0.00  0.00    -0.490 OA
BRANCH  17  18
ATOM     18  C   UNL     1       8.593  -5.281  24.575  0.00  0.00    +0.244 C 
BRANCH  18  19
ATOM     19  C   UNL     1       8.016  -5.729  23.210  0.00  0.00    +0.125 C 
BRANCH  19  20
ATOM     20  N   UNL     1       6.537  -5.583  23.208  0.00  0.00    -0.295 NA
ATOM     21  C   UNL     1       5.886  -6.041  21.959  0.00  0.00    +0.112 C 
ATOM     22  C   UNL     1       5.954  -5.058  20.764  0.00  0.00    +0.175 C 
ATOM     23  O   UNL     1       5.695  -3.689  21.113  0.00  0.00    -0.377 OA
ATOM     24  C   UNL     1       6.448  -3.286  22.259  0.00  0.00    +0.175 C 
ATOM     25  C   UNL     1       6.082  -4.192  23.436  0.00  0.00    +0.112 C 
ENDBRANCH  19  20
ENDBRANCH  18  19
ENDBRANCH  17  18
ENDBRANCH  14  17
ENDBRANCH   4   7
BRANCH   1  27
ATOM     26  N   UNL     1       6.754   5.061  25.667  0.00  0.00    -0.218 N 
ATOM     27  C   UNL     1       6.368   3.944  26.414  0.00  0.00    +0.130 A 
ATOM     28  C   UNL     1       5.049   4.169  26.739  0.00  0.00    +0.069 A 
ATOM     29  C   UNL     1       4.721   5.451  26.246  0.00  0.00    +0.071 A 
ATOM     30  N   UNL     1       5.774   6.005  25.633  0.00  0.00    -0.169 NA
BRANCH  26  35
ATOM     31  C   UNL     1      12.086   5.780  23.731  0.00  0.00    +0.044 C 
ATOM     32  C   UNL     1      10.641   5.666  24.123  0.00  0.00    -0.050 A 
ATOM     33  C   UNL     1       9.898   4.550  23.726  0.00  0.00    +0.005 A 
ATOM     34  C   UNL     1       8.587   4.374  24.175  0.00  0.00    +0.028 A 
ATOM     35  C   UNL     1       8.016   5.304  25.053  0.00  0.00    +0.067 A 
ATOM     36  C   UNL     1       8.716   6.476  25.366  0.00  0.00    +0.028 A 
ATOM     37  C   UNL     1      10.030   6.644  24.916  0.00  0.00    +0.005 A 
ENDBRANCH  26  35
BRANCH  29  38
ATOM     38  C   UNL     1       3.378   6.165  26.373  0.00  0.00    +0.006 C 
ATOM     39  C   UNL     1       2.211   5.172  26.541  0.00  0.00    +0.017 C 
ATOM     40  C   UNL     1       3.086   7.014  25.114  0.00  0.00    +0.017 C 
ATOM     41  C   UNL     1       3.403   7.108  27.592  0.00  0.00    +0.017 C 
ENDBRANCH  29  38
ENDBRANCH   1  27
TORSDOF 8
ENDMDL
MODEL 5
REMARK VINA RESULT:      -7.5      2.283      3.674
REMARK  Name = 
REMARK  12 active torsions:
REMARK  status: ('A' for Active; 'I' for Inactive)
REMARK    1  A    between atoms: C_1  and  C_2
REMARK    2  A    between atoms: C_5  and  N_8
REMARK    3  A    between atoms: C_10  and  C_36
REMARK    4  A    between atoms: C_12  and  N_13
REMARK    5  A    between atoms: N_16  and  C_17
REMARK    6  A    between atoms: C_20  and  O_21
REMARK    7  A    between atoms: O_21  and  C_22
REMARK    8  A    between atoms: C_22  and  C_23
REMARK    9  A    between atoms: C_23  and  N_24
REMARK   10  A    between atoms: C_36  and  C_37
REMARK   11  A    between atoms: C_36  and  C_38
REMARK   12  A    between atoms: C_36  and  C_39
REMARK                            x       y       z     vdW  Elec       q    Type
REMARK                         _______ _______ _______ _____ _____    ______ ____
ROOT
ATOM      1  N   UNL     1       7.202   2.883  25.620  0.00  0.00    -0.254 N 
ATOM      2  H   UNL     1       7.711   3.208  26.426  0.00  0.00    +0.158 HD
ATOM      3  C   UNL     1       6.939   1.490  25.455  0.00  0.00    +0.309 C 
ATOM      4  N   UNL     1       7.414   0.749  26.513  0.00  0.00    -0.269 N 
ATOM      5  H   UNL     1       7.705   1.228  27.343  0.00  0.00    +0.156 HD
ATOM      6  O   UNL     1       6.375   1.091  24.451  0.00  0.00    -0.252 OA
ENDROOT
BRANCH   4   7
ATOM      7  C   UNL     1       7.443  -0.680  26.553  0.00  0.00    +0.043 A 
ATOM      8  C   UNL     1       6.277  -1.446  26.867  0.00  0.00    +0.007 A 
ATOM      9  C   UNL     1       4.996  -0.873  27.069  0.00  0.00    +0.010 A 
ATOM     10  C   UNL     1       3.901  -1.640  27.480  0.00  0.00    +0.001 A 
ATOM     11  C   UNL     1       4.047  -3.002  27.689  0.00  0.00    +0.001 A 
ATOM     12  C   UNL     1       5.270  -3.612  27.419  0.00  0.00    +0.012 A 
ATOM     13  C   UNL     1       6.386  -2.872  26.979  0.00  0.00    +0.026 A 
ATOM     14  C   UNL     1       7.606  -3.519  26.669  0.00  0.00    +0.128 A 
ATOM     15  C   UNL     1       8.719  -2.744  26.352  0.00  0.00    +0.048 A 
ATOM     16  C   UNL     1       8.646  -1.356  26.334  0.00  0.00    +0.027 A 
BRANCH  14  17
ATOM     17  O   UNL     1       7.649  -4.910  26.632  0.00  0.00    -0.490 OA
BRANCH  17  18
ATOM     18  C   UNL     1       8.001  -5.419  25.338  0.00  0.00    +0.244 C 
BRANCH  18  19
ATOM     19  C   UNL     1       6.961  -5.177  24.217  0.00  0.00    +0.125 C 
BRANCH  19  20
ATOM     20  N   UNL     1       7.643  -4.739  22.972  0.00  0.00    -0.295 NA
ATOM     21  C   UNL     1       7.245  -3.392  22.505  0.00  0.00    +0.112 C 
ATOM     22  C   UNL     1       5.892  -3.311  21.756  0.00  0.00    +0.175 C 
ATOM     23  O   UNL     1       5.682  -4.365  20.804  0.00  0.00    -0.377 OA
ATOM     24  C   UNL     1       5.977  -5.647  21.364  0.00  0.00    +0.175 C 
ATOM     25  C   UNL     1       7.434  -5.660  21.831  0.00  0.00    +0.112 C 
ENDBRANCH  19  20
ENDBRANCH  18  19
ENDBRANCH  17  18
ENDBRANCH  14  17
ENDBRANCH   4   7
BRANCH   1  27
ATOM     26  N   UNL     1       7.596   4.713  23.925  0.00  0.00    -0.218 N 
ATOM     27  C   UNL     1       6.797   3.841  24.671  0.00  0.00    +0.130 A 
ATOM     28  C   UNL     1       5.501   4.182  24.354  0.00  0.00    +0.069 A 
ATOM     29  C   UNL     1       5.573   5.300  23.495  0.00  0.00    +0.071 A 
ATOM     30  N   UNL     1       6.847   5.644  23.272  0.00  0.00    -0.169 NA
BRANCH  26  35
ATOM     31  C   UNL     1      13.238   4.906  23.015  0.00  0.00    +0.044 C 
ATOM     32  C   UNL     1      11.786   4.828  23.393  0.00  0.00    -0.050 A 
ATOM     33  C   UNL     1      11.095   5.993  23.743  0.00  0.00    +0.005 A 
ATOM     34  C   UNL     1       9.720   5.954  23.988  0.00  0.00    +0.028 A 
ATOM     35  C   UNL     1       9.017   4.750  23.858  0.00  0.00    +0.067 A 
ATOM     36  C   UNL     1       9.723   3.564  23.615  0.00  0.00    +0.028 A 
ATOM     37  C   UNL     1      11.099   3.610  23.367  0.00  0.00    +0.005 A 
ENDBRANCH  26  35
BRANCH  29  38
ATOM     38  C   UNL     1       4.400   6.062  22.885  0.00  0.00    +0.006 C 
ATOM     39  C   UNL     1       3.424   5.123  22.148  0.00  0.00    +0.017 C 
ATOM     40  C   UNL     1       4.898   7.107  21.859  0.00  0.00    +0.017 C 
ATOM     41  C   UNL     1       3.628   6.806  23.992  0.00  0.00    +0.017 C 
ENDBRANCH  29  38
ENDBRANCH   1  27
TORSDOF 8
ENDMDL
MODEL 6
REMARK VINA RESULT:      -7.4      2.035      3.571
REMARK  Name = 
REMARK  12 active torsions:
REMARK  status: ('A' for Active; 'I' for Inactive)
REMARK    1  A    between atoms: C_1  and  C_2
REMARK    2  A    between atoms: C_5  and  N_8
REMARK    3  A    between atoms: C_10  and  C_36
REMARK    4  A    between atoms: C_12  and  N_13
REMARK    5  A    between atoms: N_16  and  C_17
REMARK    6  A    between atoms: C_20  and  O_21
REMARK    7  A    between atoms: O_21  and  C_22
REMARK    8  A    between atoms: C_22  and  C_23
REMARK    9  A    between atoms: C_23  and  N_24
REMARK   10  A    between atoms: C_36  and  C_37
REMARK   11  A    between atoms: C_36  and  C_38
REMARK   12  A    between atoms: C_36  and  C_39
REMARK                            x       y       z     vdW  Elec       q    Type
REMARK                         _______ _______ _______ _____ _____    ______ ____
ROOT
ATOM      1  N   UNL     1       6.179   3.176  25.379  0.00  0.00    -0.254 N 
ATOM      2  H   UNL     1       6.444   3.519  26.288  0.00  0.00    +0.158 HD
ATOM      3  C   UNL     1       6.331   1.792  25.065  0.00  0.00    +0.309 C 
ATOM      4  N   UNL     1       6.809   1.072  26.137  0.00  0.00    -0.269 N 
ATOM      5  H   UNL     1       6.821   1.506  27.040  0.00  0.00    +0.156 HD
ATOM      6  O   UNL     1       6.067   1.388  23.947  0.00  0.00    -0.252 OA
ENDROOT
BRANCH   4   7
ATOM      7  C   UNL     1       7.214  -0.298  26.078  0.00  0.00    +0.043 A 
ATOM      8  C   UNL     1       8.310  -0.721  25.262  0.00  0.00    +0.007 A 
ATOM      9  C   UNL     1       9.133   0.173  24.532  0.00  0.00    +0.010 A 
ATOM     10  C   UNL     1      10.128  -0.283  23.662  0.00  0.00    +0.001 A 
ATOM     11  C   UNL     1      10.341  -1.642  23.503  0.00  0.00    +0.001 A 
ATOM     12  C   UNL     1       9.608  -2.548  24.268  0.00  0.00    +0.012 A 
ATOM     13  C   UNL     1       8.616  -2.120  25.173  0.00  0.00    +0.026 A 
ATOM     14  C   UNL     1       7.914  -3.055  25.971  0.00  0.00    +0.128 A 
ATOM     15  C   UNL     1       6.861  -2.606  26.765  0.00  0.00    +0.048 A 
ATOM     16  C   UNL     1       6.497  -1.265  26.785  0.00  0.00    +0.027 A 
BRANCH  14  17
ATOM     17  O   UNL     1       8.328  -4.383  25.987  0.00  0.00    -0.490 OA
BRANCH  17  18
ATOM     18  C   UNL     1       7.348  -5.276  25.439  0.00  0.00    +0.244 C 
BRANCH  18  19
ATOM     19  C   UNL     1       7.292  -5.343  23.894  0.00  0.00    +0.125 C 
BRANCH  19  20
ATOM     20  N   UNL     1       5.879  -5.338  23.432  0.00  0.00    -0.295 NA
ATOM     21  C   UNL     1       5.674  -5.961  22.105  0.00  0.00    +0.112 C 
ATOM     22  C   UNL     1       6.045  -5.084  20.884  0.00  0.00    +0.175 C 
ATOM     23  O   UNL     1       5.607  -3.720  20.983  0.00  0.00    -0.377 OA
ATOM     24  C   UNL     1       5.943  -3.150  22.250  0.00  0.00    +0.175 C 
ATOM     25  C   UNL     1       5.291  -3.981  23.357  0.00  0.00    +0.112 C 
ENDBRANCH  19  20
ENDBRANCH  18  19
ENDBRANCH  17  18
ENDBRANCH  14  17
ENDBRANCH   4   7
BRANCH   1  27
ATOM     26  N   UNL     1       6.421   5.010  23.660  0.00  0.00    -0.218 N 
ATOM     27  C   UNL     1       5.694   4.108  24.443  0.00  0.00    +0.130 A 
ATOM     28  C   UNL     1       4.372   4.389  24.178  0.00  0.00    +0.069 A 
ATOM     29  C   UNL     1       4.357   5.504  23.312  0.00  0.00    +0.071 A 
ATOM     30  N   UNL     1       5.604   5.903  23.035  0.00  0.00    -0.169 NA
BRANCH  26  35
ATOM     31  C   UNL     1      12.123   5.413  23.799  0.00  0.00    +0.044 C 
ATOM     32  C   UNL     1      10.634   5.326  23.619  0.00  0.00    -0.050 A 
ATOM     33  C   UNL     1      10.026   4.078  23.449  0.00  0.00    +0.005 A 
ATOM     34  C   UNL     1       8.634   3.969  23.393  0.00  0.00    +0.028 A 
ATOM     35  C   UNL     1       7.835   5.110  23.534  0.00  0.00    +0.067 A 
ATOM     36  C   UNL     1       8.441   6.372  23.594  0.00  0.00    +0.028 A 
ATOM     37  C   UNL     1       9.835   6.474  23.655  0.00  0.00    +0.005 A 
ENDBRANCH  26  35
BRANCH  29  38
ATOM     38  C   UNL     1       3.127   6.209  22.747  0.00  0.00    +0.006 C 
ATOM     39  C   UNL     1       3.480   7.108  21.546  0.00  0.00    +0.017 C 
ATOM     40  C   UNL     1       2.468   7.107  23.819  0.00  0.00    +0.017 C 
ATOM     41  C   UNL     1       2.090   5.163  22.293  0.00  0.00    +0.017 C 
ENDBRANCH  29  38
ENDBRANCH   1  27
TORSDOF 8
ENDMDL
MODEL 7
REMARK VINA RESULT:      -7.3      2.538      9.281
REMARK  Name = 
REMARK  12 active torsions:
REMARK  status: ('A' for Active; 'I' for Inactive)
REMARK    1  A    between atoms: C_1  and  C_2
REMARK    2  A    between atoms: C_5  and  N_8
REMARK    3  A    between atoms: C_10  and  C_36
REMARK    4  A    between atoms: C_12  and  N_13
REMARK    5  A    between atoms: N_16  and  C_17
REMARK    6  A    between atoms: C_20  and  O_21
REMARK    7  A    between atoms: O_21  and  C_22
REMARK    8  A    between atoms: C_22  and  C_23
REMARK    9  A    between atoms: C_23  and  N_24
REMARK   10  A    between atoms: C_36  and  C_37
REMARK   11  A    between atoms: C_36  and  C_38
REMARK   12  A    between atoms: C_36  and  C_39
REMARK                            x       y       z     vdW  Elec       q    Type
REMARK                         _______ _______ _______ _____ _____    ______ ____
ROOT
ATOM      1  N   UNL     1       6.769  -3.207  26.959  0.00  0.00    -0.254 N 
ATOM      2  H   UNL     1       7.647  -3.416  27.405  0.00  0.00    +0.158 HD
ATOM      3  C   UNL     1       6.661  -2.082  26.087  0.00  0.00    +0.309 C 
ATOM      4  N   UNL     1       7.863  -1.428  25.941  0.00  0.00    -0.269 N 
ATOM      5  H   UNL     1       8.696  -1.874  26.272  0.00  0.00    +0.156 HD
ATOM      6  O   UNL     1       5.584  -1.795  25.594  0.00  0.00    -0.252 OA
ENDROOT
BRANCH   4   7
ATOM      7  C   UNL     1       8.029  -0.180  25.264  0.00  0.00    +0.043 A 
ATOM      8  C   UNL     1       8.455  -0.116  23.900  0.00  0.00    +0.007 A 
ATOM      9  C   UNL     1       8.653  -1.261  23.088  0.00  0.00    +0.010 A 
ATOM     10  C   UNL     1       9.172  -1.167  21.794  0.00  0.00    +0.001 A 
ATOM     11  C   UNL     1       9.496   0.071  21.264  0.00  0.00    +0.001 A 
ATOM     12  C   UNL     1       9.236   1.224  22.002  0.00  0.00    +0.012 A 
ATOM     13  C   UNL     1       8.689   1.166  23.300  0.00  0.00    +0.026 A 
ATOM     14  C   UNL     1       8.392   2.352  24.014  0.00  0.00    +0.128 A 
ATOM     15  C   UNL     1       7.965   2.253  25.335  0.00  0.00    +0.048 A 
ATOM     16  C   UNL     1       7.826   1.017  25.955  0.00  0.00    +0.027 A 
BRANCH  14  17
ATOM     17  O   UNL     1       8.478   3.578  23.362  0.00  0.00    -0.490 OA
BRANCH  17  18
ATOM     18  C   UNL     1       7.448   4.491  23.763  0.00  0.00    +0.244 C 
BRANCH  18  19
ATOM     19  C   UNL     1       6.235   4.597  22.807  0.00  0.00    +0.125 C 
BRANCH  19  20
ATOM     20  N   UNL     1       5.019   4.994  23.563  0.00  0.00    -0.295 NA
ATOM     21  C   UNL     1       4.787   4.204  24.794  0.00  0.00    +0.112 C 
ATOM     22  C   UNL     1       4.164   2.801  24.587  0.00  0.00    +0.175 C 
ATOM     23  O   UNL     1       3.086   2.770  23.638  0.00  0.00    -0.377 OA
ATOM     24  C   UNL     1       3.428   3.454  22.431  0.00  0.00    +0.175 C 
ATOM     25  C   UNL     1       3.775   4.906  22.764  0.00  0.00    +0.112 C 
ENDBRANCH  19  20
ENDBRANCH  18  19
ENDBRANCH  17  18
ENDBRANCH  14  17
ENDBRANCH   4   7
BRANCH   1  27
ATOM     26  N   UNL     1       4.993  -4.913  26.396  0.00  0.00    -0.218 N 
ATOM     27  C   UNL     1       5.671  -4.038  27.251  0.00  0.00    +0.130 A 
ATOM     28  C   UNL     1       4.971  -4.082  28.436  0.00  0.00    +0.069 A 
ATOM     29  C   UNL     1       3.853  -4.916  28.218  0.00  0.00    +0.071 A 
ATOM     30  N   UNL     1       3.850  -5.384  26.964  0.00  0.00    -0.169 NA
BRANCH  26  35
ATOM     31  C   UNL     1       6.266  -5.700  20.877  0.00  0.00    +0.044 C 
ATOM     32  C   UNL     1       5.941  -5.637  22.342  0.00  0.00    -0.050 A 
ATOM     33  C   UNL     1       6.965  -5.440  23.274  0.00  0.00    +0.005 A 
ATOM     34  C   UNL     1       6.668  -5.267  24.628  0.00  0.00    +0.028 A 
ATOM     35  C   UNL     1       5.336  -5.263  25.059  0.00  0.00    +0.067 A 
ATOM     36  C   UNL     1       4.317  -5.568  24.148  0.00  0.00    +0.028 A 
ATOM     37  C   UNL     1       4.620  -5.736  22.793  0.00  0.00    +0.005 A 
ENDBRANCH  26  35
BRANCH  29  38
ATOM     38  C   UNL     1       2.761  -5.264  29.225  0.00  0.00    +0.006 C 
ATOM     39  C   UNL     1       2.870  -6.723  29.712  0.00  0.00    +0.017 C 
ATOM     40  C   UNL     1       1.358  -5.091  28.597  0.00  0.00    +0.017 C 
ATOM     41  C   UNL     1       2.859  -4.328  30.446  0.00  0.00    +0.017 C 
ENDBRANCH  29  38
ENDBRANCH   1  27
TORSDOF 8
ENDMDL
MODEL 8
REMARK VINA RESULT:      -7.3      1.258      2.370
REMARK  Name = 
REMARK  12 active torsions:
REMARK  status: ('A' for Active; 'I' for Inactive)
REMARK    1  A    between atoms: C_1  and  C_2
REMARK    2  A    between atoms: C_5  and  N_8
REMARK    3  A    between atoms: C_10  and  C_36
REMARK    4  A    between atoms: C_12  and  N_13
REMARK    5  A    between atoms: N_16  and  C_17
REMARK    6  A    between atoms: C_20  and  O_21
REMARK    7  A    between atoms: O_21  and  C_22
REMARK    8  A    between atoms: C_22  and  C_23
REMARK    9  A    between atoms: C_23  and  N_24
REMARK   10  A    between atoms: C_36  and  C_37
REMARK   11  A    between atoms: C_36  and  C_38
REMARK   12  A    between atoms: C_36  and  C_39
REMARK                            x       y       z     vdW  Elec       q    Type
REMARK                         _______ _______ _______ _____ _____    ______ ____
ROOT
ATOM      1  N   UNL     1       7.293   1.654  22.918  0.00  0.00    -0.254 N 
ATOM      2  H   UNL     1       8.037   1.675  22.239  0.00  0.00    +0.158 HD
ATOM      3  C   UNL     1       6.776   0.404  23.375  0.00  0.00    +0.309 C 
ATOM      4  N   UNL     1       7.445  -0.662  22.817  0.00  0.00    -0.269 N 
ATOM      5  H   UNL     1       8.302  -0.490  22.329  0.00  0.00    +0.156 HD
ATOM      6  O   UNL     1       5.837   0.380  24.150  0.00  0.00    -0.252 OA
ENDROOT
BRANCH   4   7
ATOM      7  C   UNL     1       7.050  -2.029  22.957  0.00  0.00    +0.043 A 
ATOM      8  C   UNL     1       7.830  -2.962  23.710  0.00  0.00    +0.007 A 
ATOM      9  C   UNL     1       8.988  -2.601  24.444  0.00  0.00    +0.010 A 
ATOM     10  C   UNL     1       9.787  -3.556  25.079  0.00  0.00    +0.001 A 
ATOM     11  C   UNL     1       9.449  -4.899  25.013  0.00  0.00    +0.001 A 
ATOM     12  C   UNL     1       8.273  -5.281  24.371  0.00  0.00    +0.012 A 
ATOM     13  C   UNL     1       7.432  -4.340  23.743  0.00  0.00    +0.026 A 
ATOM     14  C   UNL     1       6.220  -4.746  23.134  0.00  0.00    +0.128 A 
ATOM     15  C   UNL     1       5.477  -3.808  22.423  0.00  0.00    +0.048 A 
ATOM     16  C   UNL     1       5.904  -2.491  22.306  0.00  0.00    +0.027 A 
BRANCH  14  17
ATOM     17  O   UNL     1       5.774  -6.052  23.310  0.00  0.00    -0.490 OA
BRANCH  17  18
ATOM     18  C   UNL     1       4.610  -6.132  24.145  0.00  0.00    +0.244 C 
BRANCH  18  19
ATOM     19  C   UNL     1       4.849  -6.664  25.579  0.00  0.00    +0.125 C 
BRANCH  19  20
ATOM     20  N   UNL     1       4.304  -5.708  26.578  0.00  0.00    -0.295 NA
ATOM     21  C   UNL     1       5.026  -4.417  26.637  0.00  0.00    +0.112 C 
ATOM     22  C   UNL     1       6.362  -4.427  27.421  0.00  0.00    +0.175 C 
ATOM     23  O   UNL     1       6.309  -5.146  28.663  0.00  0.00    -0.377 OA
ATOM     24  C   UNL     1       5.703  -6.431  28.503  0.00  0.00    +0.175 C 
ATOM     25  C   UNL     1       4.285  -6.246  27.958  0.00  0.00    +0.112 C 
ENDBRANCH  19  20
ENDBRANCH  18  19
ENDBRANCH  17  18
ENDBRANCH  14  17
ENDBRANCH   4   7
BRANCH   1  27
ATOM     26  N   UNL     1       7.476   4.013  23.803  0.00  0.00    -0.218 N 
ATOM     27  C   UNL     1       6.776   2.886  23.360  0.00  0.00    +0.130 A 
ATOM     28  C   UNL     1       5.446   3.198  23.542  0.00  0.00    +0.069 A 
ATOM     29  C   UNL     1       5.406   4.464  24.163  0.00  0.00    +0.071 A 
ATOM     30  N   UNL     1       6.644   4.936  24.357  0.00  0.00    -0.169 NA
BRANCH  26  35
ATOM     31  C   UNL     1      13.080   4.916  23.106  0.00  0.00    +0.044 C 
ATOM     32  C   UNL     1      11.637   4.650  23.429  0.00  0.00    -0.050 A 
ATOM     33  C   UNL     1      10.798   5.709  23.790  0.00  0.00    +0.005 A 
ATOM     34  C   UNL     1       9.431   5.497  23.984  0.00  0.00    +0.028 A 
ATOM     35  C   UNL     1       8.884   4.222  23.789  0.00  0.00    +0.067 A 
ATOM     36  C   UNL     1       9.736   3.140  23.534  0.00  0.00    +0.028 A 
ATOM     37  C   UNL     1      11.104   3.360  23.337  0.00  0.00    +0.005 A 
ENDBRANCH  26  35
BRANCH  29  38
ATOM     38  C   UNL     1       4.160   5.236  24.590  0.00  0.00    +0.006 C 
ATOM     39  C   UNL     1       3.791   4.964  26.062  0.00  0.00    +0.017 C 
ATOM     40  C   UNL     1       2.942   4.833  23.727  0.00  0.00    +0.017 C 
ATOM     41  C   UNL     1       4.396   6.748  24.411  0.00  0.00    +0.017 C 
ENDBRANCH  29  38
ENDBRANCH   1  27
TORSDOF 8
ENDMDL
MODEL 9
REMARK VINA RESULT:      -7.0      3.330      7.422
REMARK  Name = 
REMARK  12 active torsions:
REMARK  status: ('A' for Active; 'I' for Inactive)
REMARK    1  A    between atoms: C_1  and  C_2
REMARK    2  A    between atoms: C_5  and  N_8
REMARK    3  A    between atoms: C_10  and  C_36
REMARK    4  A    between atoms: C_12  and  N_13
REMARK    5  A    between atoms: N_16  and  C_17
REMARK    6  A    between atoms: C_20  and  O_21
REMARK    7  A    between atoms: O_21  and  C_22
REMARK    8  A    between atoms: C_22  and  C_23
REMARK    9  A    between atoms: C_23  and  N_24
REMARK   10  A    between atoms: C_36  and  C_37
REMARK   11  A    between atoms: C_36  and  C_38
REMARK   12  A    between atoms: C_36  and  C_39
REMARK                            x       y       z     vdW  Elec       q    Type
REMARK                         _______ _______ _______ _____ _____    ______ ____
ROOT
ATOM      1  N   UNL     1       7.732  -2.392  26.222  0.00  0.00    -0.254 N 
ATOM      2  H   UNL     1       8.443  -2.681  26.875  0.00  0.00    +0.158 HD
ATOM      3  C   UNL     1       6.415  -2.935  26.312  0.00  0.00    +0.309 C 
ATOM      4  N   UNL     1       6.288  -3.799  27.376  0.00  0.00    -0.269 N 
ATOM      5  H   UNL     1       7.014  -3.823  28.066  0.00  0.00    +0.156 HD
ATOM      6  O   UNL     1       5.573  -2.631  25.487  0.00  0.00    -0.252 OA
ENDROOT
BRANCH   4   7
ATOM      7  C   UNL     1       5.141  -4.616  27.624  0.00  0.00    +0.043 A 
ATOM      8  C   UNL     1       3.988  -4.106  28.299  0.00  0.00    +0.007 A 
ATOM      9  C   UNL     1       3.846  -2.750  28.690  0.00  0.00    +0.010 A 
ATOM     10  C   UNL     1       2.754  -2.309  29.443  0.00  0.00    +0.001 A 
ATOM     11  C   UNL     1       1.764  -3.203  29.818  0.00  0.00    +0.001 A 
ATOM     12  C   UNL     1       1.828  -4.524  29.381  0.00  0.00    +0.012 A 
ATOM     13  C   UNL     1       2.903  -4.994  28.599  0.00  0.00    +0.026 A 
ATOM     14  C   UNL     1       2.925  -6.330  28.129  0.00  0.00    +0.128 A 
ATOM     15  C   UNL     1       4.057  -6.789  27.461  0.00  0.00    +0.048 A 
ATOM     16  C   UNL     1       5.153  -5.962  27.251  0.00  0.00    +0.027 A 
BRANCH  14  17
ATOM     17  O   UNL     1       1.798  -7.128  28.294  0.00  0.00    -0.490 OA
BRANCH  17  18
ATOM     18  C   UNL     1       1.368  -7.740  27.070  0.00  0.00    +0.244 C 
BRANCH  18  19
ATOM     19  C   UNL     1       0.832  -6.771  25.988  0.00  0.00    +0.125 C 
BRANCH  19  20
ATOM     20  N   UNL     1       1.022  -7.356  24.636  0.00  0.00    -0.295 NA
ATOM     21  C   UNL     1       2.438  -7.597  24.275  0.00  0.00    +0.112 C 
ATOM     22  C   UNL     1       3.237  -6.352  23.815  0.00  0.00    +0.175 C 
ATOM     23  O   UNL     1       2.522  -5.494  22.913  0.00  0.00    -0.377 OA
ATOM     24  C   UNL     1       1.203  -5.213  23.387  0.00  0.00    +0.175 C 
ATOM     25  C   UNL     1       0.443  -6.531  23.551  0.00  0.00    +0.112 C 
ENDBRANCH  19  20
ENDBRANCH  18  19
ENDBRANCH  17  18
ENDBRANCH  14  17
ENDBRANCH   4   7
BRANCH   1  27
ATOM     26  N   UNL     1       8.123  -1.666  23.835  0.00  0.00    -0.218 N 
ATOM     27  C   UNL     1       8.098  -1.474  25.220  0.00  0.00    +0.130 A 
ATOM     28  C   UNL     1       8.607  -0.209  25.415  0.00  0.00    +0.069 A 
ATOM     29  C   UNL     1       8.995   0.274  24.147  0.00  0.00    +0.071 A 
ATOM     30  N   UNL     1       8.737  -0.633  23.196  0.00  0.00    -0.169 NA
BRANCH  26  35
ATOM     31  C   UNL     1       5.870  -6.320  21.393  0.00  0.00    +0.044 C 
ATOM     32  C   UNL     1       6.559  -5.097  21.926  0.00  0.00    -0.050 A 
ATOM     33  C   UNL     1       6.095  -3.826  21.569  0.00  0.00    +0.005 A 
ATOM     34  C   UNL     1       6.652  -2.680  22.143  0.00  0.00    +0.028 A 
ATOM     35  C   UNL     1       7.663  -2.798  23.104  0.00  0.00    +0.067 A 
ATOM     36  C   UNL     1       8.204  -4.060  23.384  0.00  0.00    +0.028 A 
ATOM     37  C   UNL     1       7.639  -5.204  22.809  0.00  0.00    +0.005 A 
ENDBRANCH  26  35
BRANCH  29  38
ATOM     38  C   UNL     1       9.635   1.625  23.838  0.00  0.00    +0.006 C 
ATOM     39  C   UNL     1       8.958   2.773  24.613  0.00  0.00    +0.017 C 
ATOM     40  C   UNL     1       9.523   1.955  22.332  0.00  0.00    +0.017 C 
ATOM     41  C   UNL     1      11.130   1.591  24.212  0.00  0.00    +0.017 C 
ENDBRANCH  29  38
ENDBRANCH   1  27
TORSDOF 8
ENDMDL
