MODEL 1
REMARK VINA RESULT:      -6.2      0.000      0.000
REMARK  Name = 
REMARK  25 active torsions:
REMARK  status: ('A' for Active; 'I' for Inactive)
REMARK    1  A    between atoms: C_1  and  C_2
REMARK    2  A    between atoms: C_2  and  C_3
REMARK    3  A    between atoms: C_8  and  C_10
REMARK    4  A    between atoms: C_11  and  O_13
REMARK    5  A    between atoms: O_13  and  C_14
REMARK    6  A    between atoms: C_17  and  C_18
REMARK    7  A    between atoms: C_17  and  O_19
REMARK    8  A    between atoms: O_19  and  C_20
REMARK    9  A    between atoms: C_21  and  O_23
REMARK   10  A    between atoms: C_24  and  C_26
REMARK   11  A    between atoms: C_28  and  C_30
REMARK   12  A    between atoms: C_31  and  O_33
REMARK   13  A    between atoms: O_33  and  C_34
REMARK   14  A    between atoms: C_37  and  C_39
REMARK   15  A    between atoms: C_41  and  N_46
REMARK   16  A    between atoms: C_43  and  O_45
REMARK   17  A    between atoms: N_46  and  C_47
REMARK   18  A    between atoms: N_46  and  C_48
REMARK   19  A    between atoms: C_49  and  C_50
REMARK   20  A    between atoms: C_49  and  O_51
REMARK   21  A    between atoms: C_53  and  C_55
REMARK   22  A    between atoms: C_58  and  C_60
REMARK   23  A    between atoms: C_61  and  O_63
REMARK   24  A    between atoms: C_64  and  C_65
REMARK   25  A    between atoms: C_64  and  O_66
REMARK                            x       y       z     vdW  Elec       q    Type
REMARK                         _______ _______ _______ _____ _____    ______ ____
ROOT
ATOM      1  C   UNL     1       2.857   4.253  24.137  0.00  0.00    +0.210 C 
ATOM      2  C   UNL     1       4.360   4.972  24.374  0.00  0.00    +0.126 C 
ATOM      3  C   UNL     1       4.023   6.328  25.063  0.00  0.00    +0.048 C 
ATOM      4  C   UNL     1       5.398   5.246  23.126  0.00  0.00    +0.159 C 
ATOM      5  C   UNL     1       6.996   4.640  23.086  0.00  0.00    +0.084 C 
ATOM      6  C   UNL     1       7.791   5.470  24.090  0.00  0.00    +0.018 C 
ATOM      7  C   UNL     1       7.636   3.039  23.123  0.00  0.00    +0.142 C 
ATOM      8  O   UNL     1       7.806   2.413  22.077  0.00  0.00    -0.297 OA
ATOM      9  C   UNL     1       8.151   2.401  24.562  0.00  0.00    +0.055 C 
ATOM     10  C   UNL     1       9.690   2.564  24.388  0.00  0.00    +0.015 C 
ATOM     11  C   UNL     1       7.968   0.863  25.055  0.00  0.00    +0.048 C 
ATOM     12  C   UNL     1       7.550   0.417  26.667  0.00  0.00    +0.090 C 
ATOM     13  C   UNL     1       8.716  -0.516  27.125  0.00  0.00    +0.044 C 
ATOM     14  C   UNL     1       6.246  -0.559  26.872  0.00  0.00    +0.158 C 
ATOM     15  C   UNL     1       4.799  -0.599  28.003  0.00  0.00    +0.047 C 
ATOM     16  C   UNL     1       5.230  -0.369  29.458  0.00  0.00    +0.013 C 
ATOM     17  C   UNL     1       3.035  -0.080  27.641  0.00  0.00    +0.140 C 
ATOM     18  C   UNL     1       2.982   1.767  27.580  0.00  0.00    +0.124 C 
ATOM     19  C   UNL     1       4.397   2.397  27.792  0.00  0.00    +0.022 C 
ATOM     20  C   UNL     1       2.033   3.022  26.885  0.00  0.00    +0.313 C 
ATOM     21  O   UNL     1       1.088   3.415  27.591  0.00  0.00    -0.250 OA
ATOM     22  O   UNL     1       2.244   3.760  25.699  0.00  0.00    -0.458 OA
ENDROOT
BRANCH   1  24
ATOM     23  C   UNL     1       0.751   2.756  22.152  0.00  0.00    +0.007 C 
ATOM     24  C   UNL     1       2.208   3.413  22.603  0.00  0.00    +0.044 C 
ENDBRANCH   1  24
BRANCH   2  25
ATOM     25  O   UNL     1       5.120   4.403  25.460  0.00  0.00    -0.383 OA
ATOM     26  H   UNL     1       6.073   4.534  25.359  0.00  0.00    +0.210 HD
ENDBRANCH   2  25
BRANCH   4  27
ATOM     27  O   UNL     1       4.712   5.202  21.860  0.00  0.00    -0.388 OA
ATOM     28  H   UNL     1       4.890   6.008  21.345  0.00  0.00    +0.210 HD
ENDBRANCH   4  27
BRANCH  12  29
ATOM     29  O   UNL     1       7.499   1.552  27.519  0.00  0.00    -0.386 OA
ATOM     30  H   UNL     1       6.660   1.477  28.021  0.00  0.00    +0.210 HD
ENDBRANCH  12  29
BRANCH  14  31
ATOM     31  O   UNL     1       6.137  -1.005  25.520  0.00  0.00    -0.342 OA
BRANCH  31  32
ATOM     32  C   UNL     1       6.193  -2.410  25.399  0.00  0.00    +0.281 C 
ATOM     33  C   UNL     1       6.415  -2.721  23.940  0.00  0.00    +0.187 C 
ATOM     34  C   UNL     1       6.548  -4.302  23.310  0.00  0.00    +0.092 C 
ATOM     35  C   UNL     1       7.442  -4.703  24.416  0.00  0.00    +0.053 C 
ATOM     36  C   UNL     1       6.850  -4.403  25.774  0.00  0.00    +0.120 C 
ATOM     37  C   UNL     1       7.340  -5.127  26.900  0.00  0.00    +0.038 C 
ATOM     38  O   UNL     1       7.217  -3.085  26.045  0.00  0.00    -0.346 OA
BRANCH  34  39
ATOM     39  N   UNL     1       7.024  -4.994  21.870  0.00  0.00    -0.303 NA
ATOM     40  C   UNL     1       6.068  -5.232  20.735  0.00  0.00    +0.105 C 
ATOM     41  C   UNL     1       7.568  -6.394  21.964  0.00  0.00    +0.105 C 
ENDBRANCH  34  39
BRANCH  33  42
ATOM     42  O   UNL     1       5.693  -1.608  23.440  0.00  0.00    -0.385 OA
ATOM     43  H   UNL     1       4.726  -1.707  23.325  0.00  0.00    +0.210 HD
ENDBRANCH  33  42
ENDBRANCH  31  32
ENDBRANCH  14  31
BRANCH  17  44
ATOM     44  O   UNL     1       2.076  -1.285  26.735  0.00  0.00    -0.347 OA
BRANCH  44  45
ATOM     45  C   UNL     1       2.197  -2.971  26.212  0.00  0.00    +0.254 C 
ATOM     46  O   UNL     1       0.940  -3.696  26.214  0.00  0.00    -0.346 OA
ATOM     47  C   UNL     1       0.888  -5.030  26.797  0.00  0.00    +0.149 C 
ATOM     48  C   UNL     1       0.495  -6.087  25.756  0.00  0.00    +0.041 C 
ATOM     49  C   UNL     1       2.084  -5.614  27.662  0.00  0.00    +0.175 C 
ATOM     50  C   UNL     1       2.971  -4.478  28.069  0.00  0.00    +0.099 C 
ATOM     51  C   UNL     1       4.246  -4.721  28.908  0.00  0.00    +0.044 C 
ATOM     52  C   UNL     1       3.301  -4.011  26.652  0.00  0.00    +0.098 C 
BRANCH  49  53
ATOM     53  O   UNL     1       1.574  -6.384  28.747  0.00  0.00    -0.386 OA
ATOM     54  H   UNL     1       1.632  -5.829  29.543  0.00  0.00    +0.210 HD
ENDBRANCH  49  53
BRANCH  50  55
ATOM     55  O   UNL     1       2.286  -3.391  28.665  0.00  0.00    -0.374 OA
ATOM     56  C   UNL     1       2.535  -2.994  29.973  0.00  0.00    +0.194 C 
ENDBRANCH  50  55
ENDBRANCH  44  45
ENDBRANCH  17  44
TORSDOF 12
ENDMDL
MODEL 2
REMARK VINA RESULT:      -6.1      1.885      3.217
REMARK  Name = 
REMARK  25 active torsions:
REMARK  status: ('A' for Active; 'I' for Inactive)
REMARK    1  A    between atoms: C_1  and  C_2
REMARK    2  A    between atoms: C_2  and  C_3
REMARK    3  A    between atoms: C_8  and  C_10
REMARK    4  A    between atoms: C_11  and  O_13
REMARK    5  A    between atoms: O_13  and  C_14
REMARK    6  A    between atoms: C_17  and  C_18
REMARK    7  A    between atoms: C_17  and  O_19
REMARK    8  A    between atoms: O_19  and  C_20
REMARK    9  A    between atoms: C_21  and  O_23
REMARK   10  A    between atoms: C_24  and  C_26
REMARK   11  A    between atoms: C_28  and  C_30
REMARK   12  A    between atoms: C_31  and  O_33
REMARK   13  A    between atoms: O_33  and  C_34
REMARK   14  A    between atoms: C_37  and  C_39
REMARK   15  A    between atoms: C_41  and  N_46
REMARK   16  A    between atoms: C_43  and  O_45
REMARK   17  A    between atoms: N_46  and  C_47
REMARK   18  A    between atoms: N_46  and  C_48
REMARK   19  A    between atoms: C_49  and  C_50
REMARK   20  A    between atoms: C_49  and  O_51
REMARK   21  A    between atoms: C_53  and  C_55
REMARK   22  A    between atoms: C_58  and  C_60
REMARK   23  A    between atoms: C_61  and  O_63
REMARK   24  A    between atoms: C_64  and  C_65
REMARK   25  A    between atoms: C_64  and  O_66
REMARK                            x       y       z     vdW  Elec       q    Type
REMARK                         _______ _______ _______ _____ _____    ______ ____
ROOT
ATOM      1  C   UNL     1       1.602   3.775  26.511  0.00  0.00    +0.210 C 
ATOM      2  C   UNL     1       2.650   5.055  26.199  0.00  0.00    +0.126 C 
ATOM      3  C   UNL     1       2.317   6.092  27.314  0.00  0.00    +0.048 C 
ATOM      4  C   UNL     1       2.674   5.821  24.742  0.00  0.00    +0.159 C 
ATOM      5  C   UNL     1       4.082   5.965  23.783  0.00  0.00    +0.084 C 
ATOM      6  C   UNL     1       4.967   6.996  24.478  0.00  0.00    +0.018 C 
ATOM      7  C   UNL     1       5.126   4.796  23.063  0.00  0.00    +0.142 C 
ATOM      8  O   UNL     1       4.892   4.366  21.934  0.00  0.00    -0.297 OA
ATOM      9  C   UNL     1       6.519   4.358  23.843  0.00  0.00    +0.055 C 
ATOM     10  C   UNL     1       7.554   5.177  23.015  0.00  0.00    +0.015 C 
ATOM     11  C   UNL     1       7.159   2.864  23.911  0.00  0.00    +0.048 C 
ATOM     12  C   UNL     1       7.866   2.189  25.331  0.00  0.00    +0.090 C 
ATOM     13  C   UNL     1       9.322   1.824  24.900  0.00  0.00    +0.044 C 
ATOM     14  C   UNL     1       7.299   0.737  25.846  0.00  0.00    +0.158 C 
ATOM     15  C   UNL     1       6.818   0.013  27.464  0.00  0.00    +0.047 C 
ATOM     16  C   UNL     1       7.868   0.320  28.540  0.00  0.00    +0.013 C 
ATOM     17  C   UNL     1       5.091  -0.257  28.140  0.00  0.00    +0.140 C 
ATOM     18  C   UNL     1       4.405   1.388  28.632  0.00  0.00    +0.124 C 
ATOM     19  C   UNL     1       5.399   2.552  28.316  0.00  0.00    +0.022 C 
ATOM     20  C   UNL     1       2.879   2.151  28.851  0.00  0.00    +0.313 C 
ATOM     21  O   UNL     1       2.407   2.058  29.998  0.00  0.00    -0.250 OA
ATOM     22  O   UNL     1       2.148   2.976  27.968  0.00  0.00    -0.458 OA
ENDROOT
BRANCH   1  24
ATOM     23  C   UNL     1       0.580   2.571  23.660  0.00  0.00    +0.007 C 
ATOM     24  C   UNL     1       0.543   2.829  25.301  0.00  0.00    +0.044 C 
ENDBRANCH   1  24
BRANCH   2  25
ATOM     25  O   UNL     1       4.016   4.806  26.588  0.00  0.00    -0.383 OA
ATOM     26  H   UNL     1       4.110   4.014  27.136  0.00  0.00    +0.210 HD
ENDBRANCH   2  25
BRANCH   4  27
ATOM     27  O   UNL     1       1.470   5.560  23.996  0.00  0.00    -0.388 OA
ATOM     28  H   UNL     1       1.479   4.657  23.636  0.00  0.00    +0.210 HD
ENDBRANCH   4  27
BRANCH  12  29
ATOM     29  O   UNL     1       7.916   3.140  26.385  0.00  0.00    -0.386 OA
ATOM     30  H   UNL     1       7.038   3.574  26.400  0.00  0.00    +0.210 HD
ENDBRANCH  12  29
BRANCH  14  31
ATOM     31  O   UNL     1       6.624   0.368  24.643  0.00  0.00    -0.342 OA
BRANCH  31  32
ATOM     32  C   UNL     1       7.172  -0.783  24.037  0.00  0.00    +0.281 C 
ATOM     33  C   UNL     1       6.019  -1.681  23.666  0.00  0.00    +0.187 C 
ATOM     34  C   UNL     1       6.196  -3.199  22.905  0.00  0.00    +0.092 C 
ATOM     35  C   UNL     1       7.188  -2.647  21.961  0.00  0.00    +0.053 C 
ATOM     36  C   UNL     1       8.323  -1.939  22.664  0.00  0.00    +0.120 C 
ATOM     37  C   UNL     1       9.554  -1.774  21.964  0.00  0.00    +0.038 C 
ATOM     38  O   UNL     1       7.873  -0.632  22.851  0.00  0.00    -0.346 OA
BRANCH  34  39
ATOM     39  N   UNL     1       5.194  -4.299  22.152  0.00  0.00    -0.303 NA
ATOM     40  C   UNL     1       4.209  -5.144  22.912  0.00  0.00    +0.105 C 
ATOM     41  C   UNL     1       5.883  -5.416  21.416  0.00  0.00    +0.105 C 
ENDBRANCH  34  39
BRANCH  33  42
ATOM     42  O   UNL     1       5.186  -1.307  24.751  0.00  0.00    -0.385 OA
ATOM     43  H   UNL     1       5.220  -1.855  25.562  0.00  0.00    +0.210 HD
ENDBRANCH  33  42
ENDBRANCH  31  32
ENDBRANCH  14  31
BRANCH  17  44
ATOM     44  O   UNL     1       4.258  -1.703  27.500  0.00  0.00    -0.347 OA
BRANCH  44  45
ATOM     45  C   UNL     1       3.928  -3.375  27.974  0.00  0.00    +0.254 C 
ATOM     46  O   UNL     1       4.346  -3.714  29.322  0.00  0.00    -0.346 OA
ATOM     47  C   UNL     1       5.078  -4.953  29.549  0.00  0.00    +0.149 C 
ATOM     48  C   UNL     1       4.311  -5.899  30.483  0.00  0.00    +0.041 C 
ATOM     49  C   UNL     1       5.664  -5.813  28.351  0.00  0.00    +0.175 C 
ATOM     50  C   UNL     1       5.686  -4.958  27.122  0.00  0.00    +0.099 C 
ATOM     51  C   UNL     1       6.185  -5.514  25.770  0.00  0.00    +0.044 C 
ATOM     52  C   UNL     1       4.186  -4.664  27.099  0.00  0.00    +0.098 C 
BRANCH  49  53
ATOM     53  O   UNL     1       6.929  -6.360  28.712  0.00  0.00    -0.386 OA
ATOM     54  H   UNL     1       7.548  -6.147  27.994  0.00  0.00    +0.210 HD
ENDBRANCH  49  53
BRANCH  50  55
ATOM     55  O   UNL     1       6.304  -3.697  27.303  0.00  0.00    -0.374 OA
ATOM     56  C   UNL     1       7.528  -3.389  26.721  0.00  0.00    +0.194 C 
ENDBRANCH  50  55
ENDBRANCH  44  45
ENDBRANCH  17  44
TORSDOF 12
ENDMDL
MODEL 3
REMARK VINA RESULT:      -6.0      2.490      9.562
REMARK  Name = 
REMARK  25 active torsions:
REMARK  status: ('A' for Active; 'I' for Inactive)
REMARK    1  A    between atoms: C_1  and  C_2
REMARK    2  A    between atoms: C_2  and  C_3
REMARK    3  A    between atoms: C_8  and  C_10
REMARK    4  A    between atoms: C_11  and  O_13
REMARK    5  A    between atoms: O_13  and  C_14
REMARK    6  A    between atoms: C_17  and  C_18
REMARK    7  A    between atoms: C_17  and  O_19
REMARK    8  A    between atoms: O_19  and  C_20
REMARK    9  A    between atoms: C_21  and  O_23
REMARK   10  A    between atoms: C_24  and  C_26
REMARK   11  A    between atoms: C_28  and  C_30
REMARK   12  A    between atoms: C_31  and  O_33
REMARK   13  A    between atoms: O_33  and  C_34
REMARK   14  A    between atoms: C_37  and  C_39
REMARK   15  A    between atoms: C_41  and  N_46
REMARK   16  A    between atoms: C_43  and  O_45
REMARK   17  A    between atoms: N_46  and  C_47
REMARK   18  A    between atoms: N_46  and  C_48
REMARK   19  A    between atoms: C_49  and  C_50
REMARK   20  A    between atoms: C_49  and  O_51
REMARK   21  A    between atoms: C_53  and  C_55
REMARK   22  A    between atoms: C_58  and  C_60
REMARK   23  A    between atoms: C_61  and  O_63
REMARK   24  A    between atoms: C_64  and  C_65
REMARK   25  A    between atoms: C_64  and  O_66
REMARK                            x       y       z     vdW  Elec       q    Type
REMARK                         _______ _______ _______ _____ _____    ______ ____
ROOT
ATOM      1  C   UNL     1       5.973  -4.189  24.122  0.00  0.00    +0.210 C 
ATOM      2  C   UNL     1       5.037  -4.678  25.434  0.00  0.00    +0.126 C 
ATOM      3  C   UNL     1       5.875  -5.817  26.089  0.00  0.00    +0.048 C 
ATOM      4  C   UNL     1       3.484  -5.190  25.249  0.00  0.00    +0.159 C 
ATOM      5  C   UNL     1       2.160  -4.478  26.063  0.00  0.00    +0.084 C 
ATOM      6  C   UNL     1       2.263  -4.925  27.518  0.00  0.00    +0.018 C 
ATOM      7  C   UNL     1       1.517  -2.878  26.063  0.00  0.00    +0.142 C 
ATOM      8  O   UNL     1       0.664  -2.551  25.238  0.00  0.00    -0.297 OA
ATOM      9  C   UNL     1       1.951  -1.826  27.265  0.00  0.00    +0.055 C 
ATOM     10  C   UNL     1       0.671  -1.891  28.149  0.00  0.00    +0.015 C 
ATOM     11  C   UNL     1       2.236  -0.233  27.097  0.00  0.00    +0.048 C 
ATOM     12  C   UNL     1       3.520   0.599  27.891  0.00  0.00    +0.090 C 
ATOM     13  C   UNL     1       2.806   1.722  28.708  0.00  0.00    +0.044 C 
ATOM     14  C   UNL     1       4.551   1.473  26.958  0.00  0.00    +0.158 C 
ATOM     15  C   UNL     1       6.372   1.692  26.863  0.00  0.00    +0.047 C 
ATOM     16  C   UNL     1       6.975   1.911  28.258  0.00  0.00    +0.013 C 
ATOM     17  C   UNL     1       7.563   0.938  25.629  0.00  0.00    +0.140 C 
ATOM     18  C   UNL     1       7.765  -0.852  26.047  0.00  0.00    +0.124 C 
ATOM     19  C   UNL     1       6.872  -1.270  27.260  0.00  0.00    +0.022 C 
ATOM     20  C   UNL     1       8.197  -2.329  25.280  0.00  0.00    +0.313 C 
ATOM     21  O   UNL     1       9.411  -2.597  25.306  0.00  0.00    -0.250 OA
ATOM     22  O   UNL     1       7.371  -3.343  24.745  0.00  0.00    -0.458 OA
ENDROOT
BRANCH   1  24
ATOM     23  C   UNL     1       6.067  -4.153  20.865  0.00  0.00    +0.007 C 
ATOM     24  C   UNL     1       5.424  -3.865  22.370  0.00  0.00    +0.044 C 
ENDBRANCH   1  24
BRANCH   2  25
ATOM     25  O   UNL     1       5.070  -3.767  26.552  0.00  0.00    -0.383 OA
ATOM     26  H   UNL     1       4.194  -3.607  26.930  0.00  0.00    +0.210 HD
ENDBRANCH   2  25
BRANCH   4  27
ATOM     27  O   UNL     1       3.216  -5.557  23.882  0.00  0.00    -0.388 OA
ATOM     28  H   UNL     1       2.728  -6.398  23.842  0.00  0.00    +0.210 HD
ENDBRANCH   4  27
BRANCH  12  29
ATOM     29  O   UNL     1       4.215  -0.258  28.785  0.00  0.00    -0.386 OA
ATOM     30  H   UNL     1       4.458  -1.053  28.265  0.00  0.00    +0.210 HD
ENDBRANCH  12  29
BRANCH  14  31
ATOM     31  O   UNL     1       3.740   1.518  25.784  0.00  0.00    -0.342 OA
BRANCH  31  32
ATOM     32  C   UNL     1       3.305   2.823  25.467  0.00  0.00    +0.281 C 
ATOM     33  C   UNL     1       3.434   2.983  23.973  0.00  0.00    +0.187 C 
ATOM     34  C   UNL     1       3.025   4.407  23.125  0.00  0.00    +0.092 C 
ATOM     35  C   UNL     1       1.771   4.544  23.896  0.00  0.00    +0.053 C 
ATOM     36  C   UNL     1       2.005   4.511  25.389  0.00  0.00    +0.120 C 
ATOM     37  C   UNL     1       1.016   5.084  26.240  0.00  0.00    +0.038 C 
ATOM     38  O   UNL     1       1.986   3.157  25.727  0.00  0.00    -0.346 OA
BRANCH  34  39
ATOM     39  N   UNL     1       2.803   4.845  21.532  0.00  0.00    -0.303 NA
ATOM     40  C   UNL     1       2.436   6.245  21.124  0.00  0.00    +0.105 C 
ATOM     41  C   UNL     1       1.694   4.134  20.805  0.00  0.00    +0.105 C 
ENDBRANCH  34  39
BRANCH  33  42
ATOM     42  O   UNL     1       4.568   2.143  23.832  0.00  0.00    -0.385 OA
ATOM     43  H   UNL     1       4.610   1.337  24.385  0.00  0.00    +0.210 HD
ENDBRANCH  33  42
ENDBRANCH  31  32
ENDBRANCH  14  31
BRANCH  17  44
ATOM     44  O   UNL     1       7.608   1.757  24.041  0.00  0.00    -0.347 OA
BRANCH  44  45
ATOM     45  C   UNL     1       8.588   2.951  23.180  0.00  0.00    +0.254 C 
ATOM     46  O   UNL     1       9.715   3.465  23.935  0.00  0.00    -0.346 OA
ATOM     47  C   UNL     1       9.962   4.900  23.958  0.00  0.00    +0.149 C 
ATOM     48  C   UNL     1      11.328   5.249  23.350  0.00  0.00    +0.041 C 
ATOM     49  C   UNL     1       8.900   5.943  23.407  0.00  0.00    +0.175 C 
ATOM     50  C   UNL     1       7.578   5.251  23.287  0.00  0.00    +0.099 C 
ATOM     51  C   UNL     1       6.332   5.993  22.753  0.00  0.00    +0.044 C 
ATOM     52  C   UNL     1       8.049   4.163  22.322  0.00  0.00    +0.098 C 
BRANCH  49  53
ATOM     53  O   UNL     1       8.884   7.108  24.228  0.00  0.00    -0.386 OA
ATOM     54  H   UNL     1       9.737   7.141  24.693  0.00  0.00    +0.210 HD
ENDBRANCH  49  53
BRANCH  50  55
ATOM     55  O   UNL     1       7.176   4.558  24.455  0.00  0.00    -0.374 OA
ATOM     56  C   UNL     1       6.245   5.087  25.339  0.00  0.00    +0.194 C 
ENDBRANCH  50  55
ENDBRANCH  44  45
ENDBRANCH  17  44
TORSDOF 12
ENDMDL
MODEL 4
REMARK VINA RESULT:      -5.8      2.268      3.532
REMARK  Name = 
REMARK  25 active torsions:
REMARK  status: ('A' for Active; 'I' for Inactive)
REMARK    1  A    between atoms: C_1  and  C_2
REMARK    2  A    between atoms: C_2  and  C_3
REMARK    3  A    between atoms: C_8  and  C_10
REMARK    4  A    between atoms: C_11  and  O_13
REMARK    5  A    between atoms: O_13  and  C_14
REMARK    6  A    between atoms: C_17  and  C_18
REMARK    7  A    between atoms: C_17  and  O_19
REMARK    8  A    between atoms: O_19  and  C_20
REMARK    9  A    between atoms: C_21  and  O_23
REMARK   10  A    between atoms: C_24  and  C_26
REMARK   11  A    between atoms: C_28  and  C_30
REMARK   12  A    between atoms: C_31  and  O_33
REMARK   13  A    between atoms: O_33  and  C_34
REMARK   14  A    between atoms: C_37  and  C_39
REMARK   15  A    between atoms: C_41  and  N_46
REMARK   16  A    between atoms: C_43  and  O_45
REMARK   17  A    between atoms: N_46  and  C_47
REMARK   18  A    between atoms: N_46  and  C_48
REMARK   19  A    between atoms: C_49  and  C_50
REMARK   20  A    between atoms: C_49  and  O_51
REMARK   21  A    between atoms: C_53  and  C_55
REMARK   22  A    between atoms: C_58  and  C_60
REMARK   23  A    between atoms: C_61  and  O_63
REMARK   24  A    between atoms: C_64  and  C_65
REMARK   25  A    between atoms: C_64  and  O_66
REMARK                            x       y       z     vdW  Elec       q    Type
REMARK                         _______ _______ _______ _____ _____    ______ ____
ROOT
ATOM      1  C   UNL     1       4.629   3.422  26.219  0.00  0.00    +0.210 C 
ATOM      2  C   UNL     1       6.040   4.073  25.569  0.00  0.00    +0.126 C 
ATOM      3  C   UNL     1       6.466   5.154  26.607  0.00  0.00    +0.048 C 
ATOM      4  C   UNL     1       6.079   4.729  24.060  0.00  0.00    +0.159 C 
ATOM      5  C   UNL     1       7.147   4.200  22.836  0.00  0.00    +0.084 C 
ATOM      6  C   UNL     1       8.530   4.711  23.227  0.00  0.00    +0.018 C 
ATOM      7  C   UNL     1       7.366   2.675  22.060  0.00  0.00    +0.142 C 
ATOM      8  O   UNL     1       6.718   2.392  21.052  0.00  0.00    -0.297 OA
ATOM      9  C   UNL     1       8.550   1.650  22.596  0.00  0.00    +0.055 C 
ATOM     10  C   UNL     1       9.627   1.893  21.498  0.00  0.00    +0.015 C 
ATOM     11  C   UNL     1       8.450   0.030  22.703  0.00  0.00    +0.048 C 
ATOM     12  C   UNL     1       9.077  -0.884  24.022  0.00  0.00    +0.090 C 
ATOM     13  C   UNL     1      10.077  -1.883  23.359  0.00  0.00    +0.044 C 
ATOM     14  C   UNL     1       8.051  -1.906  24.795  0.00  0.00    +0.158 C 
ATOM     15  C   UNL     1       7.672  -2.314  26.545  0.00  0.00    +0.047 C 
ATOM     16  C   UNL     1       8.959  -2.517  27.355  0.00  0.00    +0.013 C 
ATOM     17  C   UNL     1       6.208  -1.751  27.571  0.00  0.00    +0.140 C 
ATOM     18  C   UNL     1       6.461   0.029  28.003  0.00  0.00    +0.124 C 
ATOM     19  C   UNL     1       7.772   0.600  27.373  0.00  0.00    +0.022 C 
ATOM     20  C   UNL     1       5.531   1.411  28.430  0.00  0.00    +0.313 C 
ATOM     21  O   UNL     1       5.337   1.555  29.650  0.00  0.00    -0.250 OA
ATOM     22  O   UNL     1       5.071   2.474  27.620  0.00  0.00    -0.458 OA
ENDROOT
BRANCH   1  24
ATOM     23  C   UNL     1       2.491   3.134  23.777  0.00  0.00    +0.007 C 
ATOM     24  C   UNL     1       3.018   3.062  25.351  0.00  0.00    +0.044 C 
ENDBRANCH   1  24
BRANCH   2  25
ATOM     25  O   UNL     1       7.198   3.224  25.710  0.00  0.00    -0.383 OA
ATOM     26  H   UNL     1       7.978   3.704  26.022  0.00  0.00    +0.210 HD
ENDBRANCH   2  25
BRANCH   4  27
ATOM     27  O   UNL     1       4.752   5.047  23.597  0.00  0.00    -0.388 OA
ATOM     28  H   UNL     1       4.180   4.261  23.631  0.00  0.00    +0.210 HD
ENDBRANCH   4  27
BRANCH  12  29
ATOM     29  O   UNL     1       9.782  -0.055  24.935  0.00  0.00    -0.386 OA
ATOM     30  H   UNL     1      10.671   0.081  24.547  0.00  0.00    +0.210 HD
ENDBRANCH  12  29
BRANCH  14  31
ATOM     31  O   UNL     1       7.032  -1.932  23.794  0.00  0.00    -0.342 OA
BRANCH  31  32
ATOM     32  C   UNL     1       6.611  -3.241  23.474  0.00  0.00    +0.281 C 
ATOM     33  C   UNL     1       5.105  -3.253  23.550  0.00  0.00    +0.187 C 
ATOM     34  C   UNL     1       4.144  -4.630  23.243  0.00  0.00    +0.092 C 
ATOM     35  C   UNL     1       4.943  -4.960  22.045  0.00  0.00    +0.053 C 
ATOM     36  C   UNL     1       6.423  -5.036  22.340  0.00  0.00    +0.120 C 
ATOM     37  C   UNL     1       7.252  -5.779  21.451  0.00  0.00    +0.038 C 
ATOM     38  O   UNL     1       6.886  -3.727  22.206  0.00  0.00    -0.346 OA
BRANCH  34  39
ATOM     39  N   UNL     1       2.526  -4.944  22.994  0.00  0.00    -0.303 NA
ATOM     40  C   UNL     1       1.473  -4.614  24.015  0.00  0.00    +0.105 C 
ATOM     41  C   UNL     1       2.161  -6.392  22.800  0.00  0.00    +0.105 C 
ENDBRANCH  34  39
BRANCH  33  42
ATOM     42  O   UNL     1       5.002  -2.295  24.591  0.00  0.00    -0.385 OA
ATOM     43  H   UNL     1       4.181  -1.765  24.642  0.00  0.00    +0.210 HD
ENDBRANCH  33  42
ENDBRANCH  31  32
ENDBRANCH  14  31
BRANCH  17  44
ATOM     44  O   UNL     1       4.695  -2.655  27.269  0.00  0.00    -0.347 OA
BRANCH  44  45
ATOM     45  C   UNL     1       3.844  -4.079  27.881  0.00  0.00    +0.254 C 
ATOM     46  O   UNL     1       4.279  -4.525  29.192  0.00  0.00    -0.346 OA
ATOM     47  C   UNL     1       4.534  -5.942  29.413  0.00  0.00    +0.149 C 
ATOM     48  C   UNL     1       3.602  -6.524  30.485  0.00  0.00    +0.041 C 
ATOM     49  C   UNL     1       4.609  -6.978  28.213  0.00  0.00    +0.175 C 
ATOM     50  C   UNL     1       4.783  -6.213  26.938  0.00  0.00    +0.099 C 
ATOM     51  C   UNL     1       4.869  -6.937  25.576  0.00  0.00    +0.044 C 
ATOM     52  C   UNL     1       3.503  -5.388  27.066  0.00  0.00    +0.098 C 
BRANCH  49  53
ATOM     53  O   UNL     1       5.625  -7.947  28.464  0.00  0.00    -0.386 OA
ATOM     54  H   UNL     1       5.177  -8.775  28.702  0.00  0.00    +0.210 HD
ENDBRANCH  49  53
BRANCH  50  55
ATOM     55  O   UNL     1       5.835  -5.265  26.969  0.00  0.00    -0.374 OA
ATOM     56  C   UNL     1       7.051  -5.498  26.339  0.00  0.00    +0.194 C 
ENDBRANCH  50  55
ENDBRANCH  44  45
ENDBRANCH  17  44
TORSDOF 12
ENDMDL
MODEL 5
REMARK VINA RESULT:      -5.6      1.231      1.531
REMARK  Name = 
REMARK  25 active torsions:
REMARK  status: ('A' for Active; 'I' for Inactive)
REMARK    1  A    between atoms: C_1  and  C_2
REMARK    2  A    between atoms: C_2  and  C_3
REMARK    3  A    between atoms: C_8  and  C_10
REMARK    4  A    between atoms: C_11  and  O_13
REMARK    5  A    between atoms: O_13  and  C_14
REMARK    6  A    between atoms: C_17  and  C_18
REMARK    7  A    between atoms: C_17  and  O_19
REMARK    8  A    between atoms: O_19  and  C_20
REMARK    9  A    between atoms: C_21  and  O_23
REMARK   10  A    between atoms: C_24  and  C_26
REMARK   11  A    between atoms: C_28  and  C_30
REMARK   12  A    between atoms: C_31  and  O_33
REMARK   13  A    between atoms: O_33  and  C_34
REMARK   14  A    between atoms: C_37  and  C_39
REMARK   15  A    between atoms: C_41  and  N_46
REMARK   16  A    between atoms: C_43  and  O_45
REMARK   17  A    between atoms: N_46  and  C_47
REMARK   18  A    between atoms: N_46  and  C_48
REMARK   19  A    between atoms: C_49  and  C_50
REMARK   20  A    between atoms: C_49  and  O_51
REMARK   21  A    between atoms: C_53  and  C_55
REMARK   22  A    between atoms: C_58  and  C_60
REMARK   23  A    between atoms: C_61  and  O_63
REMARK   24  A    between atoms: C_64  and  C_65
REMARK   25  A    between atoms: C_64  and  O_66
REMARK                            x       y       z     vdW  Elec       q    Type
REMARK                         _______ _______ _______ _____ _____    ______ ____
ROOT
ATOM      1  C   UNL     1       2.306   3.930  23.844  0.00  0.00    +0.210 C 
ATOM      2  C   UNL     1       3.660   4.914  24.025  0.00  0.00    +0.126 C 
ATOM      3  C   UNL     1       3.110   6.178  24.751  0.00  0.00    +0.048 C 
ATOM      4  C   UNL     1       4.569   5.386  22.736  0.00  0.00    +0.159 C 
ATOM      5  C   UNL     1       6.248   5.088  22.615  0.00  0.00    +0.084 C 
ATOM      6  C   UNL     1       6.921   6.043  23.596  0.00  0.00    +0.018 C 
ATOM      7  C   UNL     1       7.175   3.633  22.598  0.00  0.00    +0.142 C 
ATOM      8  O   UNL     1       7.408   3.058  21.535  0.00  0.00    -0.297 OA
ATOM      9  C   UNL     1       7.865   3.091  24.001  0.00  0.00    +0.055 C 
ATOM     10  C   UNL     1       9.337   3.538  23.762  0.00  0.00    +0.015 C 
ATOM     11  C   UNL     1       7.994   1.541  24.477  0.00  0.00    +0.048 C 
ATOM     12  C   UNL     1       7.742   1.013  26.099  0.00  0.00    +0.090 C 
ATOM     13  C   UNL     1       9.081   0.310  26.488  0.00  0.00    +0.044 C 
ATOM     14  C   UNL     1       6.652  -0.190  26.346  0.00  0.00    +0.158 C 
ATOM     15  C   UNL     1       5.292  -0.507  27.539  0.00  0.00    +0.047 C 
ATOM     16  C   UNL     1       5.741  -0.212  28.977  0.00  0.00    +0.013 C 
ATOM     17  C   UNL     1       3.448  -0.321  27.265  0.00  0.00    +0.140 C 
ATOM     18  C   UNL     1       3.051   1.484  27.237  0.00  0.00    +0.124 C 
ATOM     19  C   UNL     1       4.333   2.364  27.395  0.00  0.00    +0.022 C 
ATOM     20  C   UNL     1       1.855   2.546  26.605  0.00  0.00    +0.313 C 
ATOM     21  O   UNL     1       0.887   2.751  27.359  0.00  0.00    -0.250 OA
ATOM     22  O   UNL     1       1.869   3.320  25.423  0.00  0.00    -0.458 OA
ENDROOT
BRANCH   1  24
ATOM     23  C   UNL     1       0.884   3.380  20.963  0.00  0.00    +0.007 C 
ATOM     24  C   UNL     1       1.752   2.996  22.327  0.00  0.00    +0.044 C 
ENDBRANCH   1  24
BRANCH   2  25
ATOM     25  O   UNL     1       4.561   4.488  25.067  0.00  0.00    -0.383 OA
ATOM     26  H   UNL     1       4.126   3.945  25.740  0.00  0.00    +0.210 HD
ENDBRANCH   2  25
BRANCH   4  27
ATOM     27  O   UNL     1       3.844   5.225  21.502  0.00  0.00    -0.388 OA
ATOM     28  H   UNL     1       2.926   5.529  21.601  0.00  0.00    +0.210 HD
ENDBRANCH   4  27
BRANCH  12  29
ATOM     29  O   UNL     1       7.521   2.112  26.971  0.00  0.00    -0.386 OA
ATOM     30  H   UNL     1       7.529   2.913  26.406  0.00  0.00    +0.210 HD
ENDBRANCH  12  29
BRANCH  14  31
ATOM     31  O   UNL     1       6.565  -0.637  24.993  0.00  0.00    -0.342 OA
BRANCH  31  32
ATOM     32  C   UNL     1       6.960  -1.983  24.833  0.00  0.00    +0.281 C 
ATOM     33  C   UNL     1       6.003  -2.613  23.852  0.00  0.00    +0.187 C 
ATOM     34  C   UNL     1       6.086  -4.241  23.347  0.00  0.00    +0.092 C 
ATOM     35  C   UNL     1       7.551  -4.147  23.175  0.00  0.00    +0.053 C 
ATOM     36  C   UNL     1       8.246  -3.631  24.414  0.00  0.00    +0.120 C 
ATOM     37  C   UNL     1       9.632  -3.918  24.580  0.00  0.00    +0.038 C 
ATOM     38  O   UNL     1       8.210  -2.241  24.294  0.00  0.00    -0.346 OA
BRANCH  34  39
ATOM     39  N   UNL     1       5.397  -5.173  22.149  0.00  0.00    -0.303 NA
ATOM     40  C   UNL     1       4.585  -6.402  22.450  0.00  0.00    +0.105 C 
ATOM     41  C   UNL     1       6.357  -5.807  21.178  0.00  0.00    +0.105 C 
ENDBRANCH  34  39
BRANCH  33  42
ATOM     42  O   UNL     1       4.875  -1.841  24.230  0.00  0.00    -0.385 OA
ATOM     43  H   UNL     1       4.049  -2.319  24.448  0.00  0.00    +0.210 HD
ENDBRANCH  33  42
ENDBRANCH  31  32
ENDBRANCH  14  31
BRANCH  17  44
ATOM     44  O   UNL     1       2.687  -1.677  26.383  0.00  0.00    -0.347 OA
BRANCH  44  45
ATOM     45  C   UNL     1       1.821  -3.180  26.731  0.00  0.00    +0.254 C 
ATOM     46  O   UNL     1       1.484  -3.372  28.129  0.00  0.00    -0.346 OA
ATOM     47  C   UNL     1       1.739  -4.664  28.752  0.00  0.00    +0.149 C 
ATOM     48  C   UNL     1       0.443  -5.318  29.250  0.00  0.00    +0.041 C 
ATOM     49  C   UNL     1       2.610  -5.782  28.037  0.00  0.00    +0.175 C 
ATOM     50  C   UNL     1       3.383  -5.141  26.927  0.00  0.00    +0.099 C 
ATOM     51  C   UNL     1       4.317  -5.972  26.019  0.00  0.00    +0.044 C 
ATOM     52  C   UNL     1       2.168  -4.614  26.165  0.00  0.00    +0.098 C 
BRANCH  49  53
ATOM     53  O   UNL     1       3.412  -6.467  28.997  0.00  0.00    -0.386 OA
ATOM     54  H   UNL     1       2.897  -6.513  29.819  0.00  0.00    +0.210 HD
ENDBRANCH  49  53
BRANCH  50  55
ATOM     55  O   UNL     1       4.105  -3.985  27.313  0.00  0.00    -0.374 OA
ATOM     56  C   UNL     1       5.476  -4.015  27.532  0.00  0.00    +0.194 C 
ENDBRANCH  50  55
ENDBRANCH  44  45
ENDBRANCH  17  44
TORSDOF 12
ENDMDL
MODEL 6
REMARK VINA RESULT:      -5.5      1.823      2.920
REMARK  Name = 
REMARK  25 active torsions:
REMARK  status: ('A' for Active; 'I' for Inactive)
REMARK    1  A    between atoms: C_1  and  C_2
REMARK    2  A    between atoms: C_2  and  C_3
REMARK    3  A    between atoms: C_8  and  C_10
REMARK    4  A    between atoms: C_11  and  O_13
REMARK    5  A    between atoms: O_13  and  C_14
REMARK    6  A    between atoms: C_17  and  C_18
REMARK    7  A    between atoms: C_17  and  O_19
REMARK    8  A    between atoms: O_19  and  C_20
REMARK    9  A    between atoms: C_21  and  O_23
REMARK   10  A    between atoms: C_24  and  C_26
REMARK   11  A    between atoms: C_28  and  C_30
REMARK   12  A    between atoms: C_31  and  O_33
REMARK   13  A    between atoms: O_33  and  C_34
REMARK   14  A    between atoms: C_37  and  C_39
REMARK   15  A    between atoms: C_41  and  N_46
REMARK   16  A    between atoms: C_43  and  O_45
REMARK   17  A    between atoms: N_46  and  C_47
REMARK   18  A    between atoms: N_46  and  C_48
REMARK   19  A    between atoms: C_49  and  C_50
REMARK   20  A    between atoms: C_49  and  O_51
REMARK   21  A    between atoms: C_53  and  C_55
REMARK   22  A    between atoms: C_58  and  C_60
REMARK   23  A    between atoms: C_61  and  O_63
REMARK   24  A    between atoms: C_64  and  C_65
REMARK   25  A    between atoms: C_64  and  O_66
REMARK                            x       y       z     vdW  Elec       q    Type
REMARK                         _______ _______ _______ _____ _____    ______ ____
ROOT
ATOM      1  C   UNL     1       1.657   4.175  26.825  0.00  0.00    +0.210 C 
ATOM      2  C   UNL     1       2.716   5.347  26.241  0.00  0.00    +0.126 C 
ATOM      3  C   UNL     1       2.541   6.537  27.232  0.00  0.00    +0.048 C 
ATOM      4  C   UNL     1       2.621   5.912  24.698  0.00  0.00    +0.159 C 
ATOM      5  C   UNL     1       3.927   5.854  23.597  0.00  0.00    +0.084 C 
ATOM      6  C   UNL     1       4.918   6.919  24.056  0.00  0.00    +0.018 C 
ATOM      7  C   UNL     1       4.845   4.547  22.946  0.00  0.00    +0.142 C 
ATOM      8  O   UNL     1       4.480   3.985  21.914  0.00  0.00    -0.297 OA
ATOM      9  C   UNL     1       6.293   4.143  23.640  0.00  0.00    +0.055 C 
ATOM     10  C   UNL     1       7.268   4.791  22.613  0.00  0.00    +0.015 C 
ATOM     11  C   UNL     1       6.877   2.640  23.849  0.00  0.00    +0.048 C 
ATOM     12  C   UNL     1       7.700   2.122  25.272  0.00  0.00    +0.090 C 
ATOM     13  C   UNL     1       9.088   1.627  24.757  0.00  0.00    +0.044 C 
ATOM     14  C   UNL     1       7.132   0.782  26.033  0.00  0.00    +0.158 C 
ATOM     15  C   UNL     1       6.792   0.303  27.773  0.00  0.00    +0.047 C 
ATOM     16  C   UNL     1       7.959   0.694  28.691  0.00  0.00    +0.013 C 
ATOM     17  C   UNL     1       5.135   0.216  28.644  0.00  0.00    +0.140 C 
ATOM     18  C   UNL     1       4.568   1.945  28.971  0.00  0.00    +0.124 C 
ATOM     19  C   UNL     1       5.569   3.003  28.405  0.00  0.00    +0.022 C 
ATOM     20  C   UNL     1       3.103   2.809  29.230  0.00  0.00    +0.313 C 
ATOM     21  O   UNL     1       2.749   2.893  30.419  0.00  0.00    -0.250 OA
ATOM     22  O   UNL     1       2.318   3.548  28.317  0.00  0.00    -0.458 OA
ENDROOT
BRANCH   1  24
ATOM     23  C   UNL     1       0.449   2.400  24.374  0.00  0.00    +0.007 C 
ATOM     24  C   UNL     1       0.443   3.135  25.864  0.00  0.00    +0.044 C 
ENDBRANCH   1  24
BRANCH   2  25
ATOM     25  O   UNL     1       4.104   5.080  26.527  0.00  0.00    -0.383 OA
ATOM     26  H   UNL     1       4.706   5.611  25.987  0.00  0.00    +0.210 HD
ENDBRANCH   2  25
BRANCH   4  27
ATOM     27  O   UNL     1       1.336   5.619  24.115  0.00  0.00    -0.388 OA
ATOM     28  H   UNL     1       1.310   4.703  23.787  0.00  0.00    +0.210 HD
ENDBRANCH   4  27
BRANCH  12  29
ATOM     29  O   UNL     1       7.895   3.199  26.177  0.00  0.00    -0.386 OA
ATOM     30  H   UNL     1       8.393   2.829  26.935  0.00  0.00    +0.210 HD
ENDBRANCH  12  29
BRANCH  14  31
ATOM     31  O   UNL     1       6.324   0.293  24.962  0.00  0.00    -0.342 OA
BRANCH  31  32
ATOM     32  C   UNL     1       6.854  -0.868  24.360  0.00  0.00    +0.281 C 
ATOM     33  C   UNL     1       5.693  -1.785  24.066  0.00  0.00    +0.187 C 
ATOM     34  C   UNL     1       5.849  -3.319  23.334  0.00  0.00    +0.092 C 
ATOM     35  C   UNL     1       6.790  -2.782  22.331  0.00  0.00    +0.053 C 
ATOM     36  C   UNL     1       7.950  -2.047  22.962  0.00  0.00    +0.120 C 
ATOM     37  C   UNL     1       9.144  -1.888  22.201  0.00  0.00    +0.038 C 
ATOM     38  O   UNL     1       7.496  -0.739  23.139  0.00  0.00    -0.346 OA
BRANCH  34  39
ATOM     39  N   UNL     1       4.824  -4.446  22.657  0.00  0.00    -0.303 NA
ATOM     40  C   UNL     1       3.506  -4.815  23.280  0.00  0.00    +0.105 C 
ATOM     41  C   UNL     1       5.375  -5.840  22.528  0.00  0.00    +0.105 C 
ENDBRANCH  34  39
BRANCH  33  42
ATOM     42  O   UNL     1       4.909  -1.391  25.180  0.00  0.00    -0.385 OA
ATOM     43  H   UNL     1       5.181  -1.710  26.064  0.00  0.00    +0.210 HD
ENDBRANCH  33  42
ENDBRANCH  31  32
ENDBRANCH  14  31
BRANCH  17  44
ATOM     44  O   UNL     1       4.184  -1.256  28.291  0.00  0.00    -0.347 OA
BRANCH  44  45
ATOM     45  C   UNL     1       4.349  -3.013  28.407  0.00  0.00    +0.254 C 
ATOM     46  O   UNL     1       4.866  -3.651  27.210  0.00  0.00    -0.346 OA
ATOM     47  C   UNL     1       4.209  -4.849  26.703  0.00  0.00    +0.149 C 
ATOM     48  C   UNL     1       5.157  -6.056  26.704  0.00  0.00    +0.041 C 
ATOM     49  C   UNL     1       2.800  -5.330  27.252  0.00  0.00    +0.175 C 
ATOM     50  C   UNL     1       2.167  -4.191  27.990  0.00  0.00    +0.099 C 
ATOM     51  C   UNL     1       0.788  -4.347  28.668  0.00  0.00    +0.044 C 
ATOM     52  C   UNL     1       3.289  -4.015  29.013  0.00  0.00    +0.098 C 
BRANCH  49  53
ATOM     53  O   UNL     1       2.012  -5.855  26.186  0.00  0.00    -0.386 OA
ATOM     54  H   UNL     1       1.102  -5.543  26.325  0.00  0.00    +0.210 HD
ENDBRANCH  49  53
BRANCH  50  55
ATOM     55  O   UNL     1       2.136  -2.975  27.265  0.00  0.00    -0.374 OA
ATOM     56  C   UNL     1       0.948  -2.432  26.792  0.00  0.00    +0.194 C 
ENDBRANCH  50  55
ENDBRANCH  44  45
ENDBRANCH  17  44
TORSDOF 12
ENDMDL
MODEL 7
REMARK VINA RESULT:      -5.3      2.515      9.529
REMARK  Name = 
REMARK  25 active torsions:
REMARK  status: ('A' for Active; 'I' for Inactive)
REMARK    1  A    between atoms: C_1  and  C_2
REMARK    2  A    between atoms: C_2  and  C_3
REMARK    3  A    between atoms: C_8  and  C_10
REMARK    4  A    between atoms: C_11  and  O_13
REMARK    5  A    between atoms: O_13  and  C_14
REMARK    6  A    between atoms: C_17  and  C_18
REMARK    7  A    between atoms: C_17  and  O_19
REMARK    8  A    between atoms: O_19  and  C_20
REMARK    9  A    between atoms: C_21  and  O_23
REMARK   10  A    between atoms: C_24  and  C_26
REMARK   11  A    between atoms: C_28  and  C_30
REMARK   12  A    between atoms: C_31  and  O_33
REMARK   13  A    between atoms: O_33  and  C_34
REMARK   14  A    between atoms: C_37  and  C_39
REMARK   15  A    between atoms: C_41  and  N_46
REMARK   16  A    between atoms: C_43  and  O_45
REMARK   17  A    between atoms: N_46  and  C_47
REMARK   18  A    between atoms: N_46  and  C_48
REMARK   19  A    between atoms: C_49  and  C_50
REMARK   20  A    between atoms: C_49  and  O_51
REMARK   21  A    between atoms: C_53  and  C_55
REMARK   22  A    between atoms: C_58  and  C_60
REMARK   23  A    between atoms: C_61  and  O_63
REMARK   24  A    between atoms: C_64  and  C_65
REMARK   25  A    between atoms: C_64  and  O_66
REMARK                            x       y       z     vdW  Elec       q    Type
REMARK                         _______ _______ _______ _____ _____    ______ ____
ROOT
ATOM      1  C   UNL     1       6.812  -2.822  25.189  0.00  0.00    +0.210 C 
ATOM      2  C   UNL     1       5.798  -3.633  26.261  0.00  0.00    +0.126 C 
ATOM      3  C   UNL     1       6.752  -4.605  27.018  0.00  0.00    +0.048 C 
ATOM      4  C   UNL     1       4.478  -4.470  25.743  0.00  0.00    +0.159 C 
ATOM      5  C   UNL     1       2.893  -4.161  26.304  0.00  0.00    +0.084 C 
ATOM      6  C   UNL     1       2.832  -4.705  27.728  0.00  0.00    +0.018 C 
ATOM      7  C   UNL     1       1.891  -2.758  26.248  0.00  0.00    +0.142 C 
ATOM      8  O   UNL     1       1.151  -2.561  25.284  0.00  0.00    -0.297 OA
ATOM      9  C   UNL     1       1.825  -1.751  27.560  0.00  0.00    +0.055 C 
ATOM     10  C   UNL     1       0.459  -2.192  28.164  0.00  0.00    +0.015 C 
ATOM     11  C   UNL     1       1.739  -0.127  27.527  0.00  0.00    +0.048 C 
ATOM     12  C   UNL     1       2.612   0.900  28.601  0.00  0.00    +0.090 C 
ATOM     13  C   UNL     1       1.506   1.748  29.308  0.00  0.00    +0.044 C 
ATOM     14  C   UNL     1       3.552   2.071  27.938  0.00  0.00    +0.158 C 
ATOM     15  C   UNL     1       5.250   2.711  28.223  0.00  0.00    +0.047 C 
ATOM     16  C   UNL     1       5.512   2.932  29.719  0.00  0.00    +0.013 C 
ATOM     17  C   UNL     1       6.796   2.369  27.221  0.00  0.00    +0.140 C 
ATOM     18  C   UNL     1       7.347   0.644  27.588  0.00  0.00    +0.124 C 
ATOM     19  C   UNL     1       6.375  -0.080  28.575  0.00  0.00    +0.022 C 
ATOM     20  C   UNL     1       8.261  -0.616  26.856  0.00  0.00    +0.313 C 
ATOM     21  O   UNL     1       9.478  -0.599  27.115  0.00  0.00    -0.250 OA
ATOM     22  O   UNL     1       7.821  -1.739  26.120  0.00  0.00    -0.458 OA
ENDROOT
BRANCH   1  24
ATOM     23  C   UNL     1       6.576  -3.378  21.987  0.00  0.00    +0.007 C 
ATOM     24  C   UNL     1       6.534  -2.471  23.379  0.00  0.00    +0.044 C 
ENDBRANCH   1  24
BRANCH   2  25
ATOM     25  O   UNL     1       5.400  -2.847  27.403  0.00  0.00    -0.383 OA
ATOM     26  H   UNL     1       5.917  -3.050  28.195  0.00  0.00    +0.210 HD
ENDBRANCH   2  25
BRANCH   4  27
ATOM     27  O   UNL     1       4.566  -4.759  24.334  0.00  0.00    -0.388 OA
ATOM     28  H   UNL     1       4.961  -5.637  24.189  0.00  0.00    +0.210 HD
ENDBRANCH   4  27
BRANCH  12  29
ATOM     29  O   UNL     1       3.317   0.147  29.577  0.00  0.00    -0.386 OA
ATOM     30  H   UNL     1       3.917  -0.447  29.079  0.00  0.00    +0.210 HD
ENDBRANCH  12  29
BRANCH  14  31
ATOM     31  O   UNL     1       2.987   2.037  26.627  0.00  0.00    -0.342 OA
BRANCH  31  32
ATOM     32  C   UNL     1       2.521   3.299  26.198  0.00  0.00    +0.281 C 
ATOM     33  C   UNL     1       2.379   3.233  24.698  0.00  0.00    +0.187 C 
ATOM     34  C   UNL     1       1.844   4.534  23.731  0.00  0.00    +0.092 C 
ATOM     35  C   UNL     1       0.753   4.834  24.681  0.00  0.00    +0.053 C 
ATOM     36  C   UNL     1       1.253   5.010  26.097  0.00  0.00    +0.120 C 
ATOM     37  C   UNL     1       0.443   5.742  27.013  0.00  0.00    +0.038 C 
ATOM     38  O   UNL     1       1.275   3.722  26.634  0.00  0.00    -0.346 OA
BRANCH  34  39
ATOM     39  N   UNL     1       1.344   4.743  22.154  0.00  0.00    -0.303 NA
ATOM     40  C   UNL     1       2.245   4.475  20.980  0.00  0.00    +0.105 C 
ATOM     41  C   UNL     1       0.942   6.143  21.775  0.00  0.00    +0.105 C 
ENDBRANCH  34  39
BRANCH  33  42
ATOM     42  O   UNL     1       3.457   2.336  24.488  0.00  0.00    -0.385 OA
ATOM     43  H   UNL     1       4.292   2.701  24.131  0.00  0.00    +0.210 HD
ENDBRANCH  33  42
ENDBRANCH  31  32
ENDBRANCH  14  31
BRANCH  17  44
ATOM     44  O   UNL     1       6.933   3.321  25.714  0.00  0.00    -0.347 OA
BRANCH  44  45
ATOM     45  C   UNL     1       6.477   4.913  25.093  0.00  0.00    +0.254 C 
ATOM     46  O   UNL     1       5.521   4.884  24.001  0.00  0.00    -0.346 OA
ATOM     47  C   UNL     1       5.759   5.710  22.825  0.00  0.00    +0.149 C 
ATOM     48  C   UNL     1       4.641   6.742  22.623  0.00  0.00    +0.041 C 
ATOM     49  C   UNL     1       7.148   6.437  22.577  0.00  0.00    +0.175 C 
ATOM     50  C   UNL     1       8.174   5.810  23.469  0.00  0.00    +0.099 C 
ATOM     51  C   UNL     1       9.635   6.312  23.481  0.00  0.00    +0.044 C 
ATOM     52  C   UNL     1       7.456   6.114  24.783  0.00  0.00    +0.098 C 
BRANCH  49  53
ATOM     53  O   UNL     1       7.475   6.409  21.189  0.00  0.00    -0.386 OA
ATOM     54  H   UNL     1       8.303   6.905  21.082  0.00  0.00    +0.210 HD
ENDBRANCH  49  53
BRANCH  50  55
ATOM     55  O   UNL     1       8.224   4.397  23.394  0.00  0.00    -0.374 OA
ATOM     56  C   UNL     1       9.428   3.706  23.340  0.00  0.00    +0.194 C 
ENDBRANCH  50  55
ENDBRANCH  44  45
ENDBRANCH  17  44
TORSDOF 12
ENDMDL
MODEL 8
REMARK VINA RESULT:      -4.4      2.716      9.459
REMARK  Name = 
REMARK  25 active torsions:
REMARK  status: ('A' for Active; 'I' for Inactive)
REMARK    1  A    between atoms: C_1  and  C_2
REMARK    2  A    between atoms: C_2  and  C_3
REMARK    3  A    between atoms: C_8  and  C_10
REMARK    4  A    between atoms: C_11  and  O_13
REMARK    5  A    between atoms: O_13  and  C_14
REMARK    6  A    between atoms: C_17  and  C_18
REMARK    7  A    between atoms: C_17  and  O_19
REMARK    8  A    between atoms: O_19  and  C_20
REMARK    9  A    between atoms: C_21  and  O_23
REMARK   10  A    between atoms: C_24  and  C_26
REMARK   11  A    between atoms: C_28  and  C_30
REMARK   12  A    between atoms: C_31  and  O_33
REMARK   13  A    between atoms: O_33  and  C_34
REMARK   14  A    between atoms: C_37  and  C_39
REMARK   15  A    between atoms: C_41  and  N_46
REMARK   16  A    between atoms: C_43  and  O_45
REMARK   17  A    between atoms: N_46  and  C_47
REMARK   18  A    between atoms: N_46  and  C_48
REMARK   19  A    between atoms: C_49  and  C_50
REMARK   20  A    between atoms: C_49  and  O_51
REMARK   21  A    between atoms: C_53  and  C_55
REMARK   22  A    between atoms: C_58  and  C_60
REMARK   23  A    between atoms: C_61  and  O_63
REMARK   24  A    between atoms: C_64  and  C_65
REMARK   25  A    between atoms: C_64  and  O_66
REMARK                            x       y       z     vdW  Elec       q    Type
REMARK                         _______ _______ _______ _____ _____    ______ ____
ROOT
ATOM      1  C   UNL     1       6.889  -2.720  25.348  0.00  0.00    +0.210 C 
ATOM      2  C   UNL     1       5.868  -3.563  26.388  0.00  0.00    +0.126 C 
ATOM      3  C   UNL     1       6.827  -4.513  27.167  0.00  0.00    +0.048 C 
ATOM      4  C   UNL     1       4.586  -4.432  25.831  0.00  0.00    +0.159 C 
ATOM      5  C   UNL     1       2.979  -4.168  26.351  0.00  0.00    +0.084 C 
ATOM      6  C   UNL     1       2.894  -4.722  27.770  0.00  0.00    +0.018 C 
ATOM      7  C   UNL     1       1.941  -2.793  26.274  0.00  0.00    +0.142 C 
ATOM      8  O   UNL     1       1.223  -2.610  25.291  0.00  0.00    -0.297 OA
ATOM      9  C   UNL     1       1.813  -1.794  27.588  0.00  0.00    +0.055 C 
ATOM     10  C   UNL     1       0.444  -2.274  28.153  0.00  0.00    +0.015 C 
ATOM     11  C   UNL     1       1.685  -0.173  27.560  0.00  0.00    +0.048 C 
ATOM     12  C   UNL     1       2.500   0.872  28.662  0.00  0.00    +0.090 C 
ATOM     13  C   UNL     1       1.354   1.686  29.343  0.00  0.00    +0.044 C 
ATOM     14  C   UNL     1       3.426   2.070  28.029  0.00  0.00    +0.158 C 
ATOM     15  C   UNL     1       5.098   2.754  28.363  0.00  0.00    +0.047 C 
ATOM     16  C   UNL     1       5.314   2.974  29.866  0.00  0.00    +0.013 C 
ATOM     17  C   UNL     1       6.680   2.459  27.402  0.00  0.00    +0.140 C 
ATOM     18  C   UNL     1       7.266   0.746  27.776  0.00  0.00    +0.124 C 
ATOM     19  C   UNL     1       6.288  -0.008  28.733  0.00  0.00    +0.022 C 
ATOM     20  C   UNL     1       8.233  -0.485  27.064  0.00  0.00    +0.313 C 
ATOM     21  O   UNL     1       9.441  -0.436  27.355  0.00  0.00    -0.250 OA
ATOM     22  O   UNL     1       7.843  -1.615  26.311  0.00  0.00    -0.458 OA
ENDROOT
BRANCH   1  24
ATOM     23  C   UNL     1       7.666  -2.149  22.236  0.00  0.00    +0.007 C 
ATOM     24  C   UNL     1       6.650  -2.367  23.532  0.00  0.00    +0.044 C 
ENDBRANCH   1  24
BRANCH   2  25
ATOM     25  O   UNL     1       5.418  -2.794  27.523  0.00  0.00    -0.383 OA
ATOM     26  H   UNL     1       4.463  -2.643  27.517  0.00  0.00    +0.210 HD
ENDBRANCH   2  25
BRANCH   4  27
ATOM     27  O   UNL     1       4.719  -4.712  24.424  0.00  0.00    -0.388 OA
ATOM     28  H   UNL     1       5.430  -4.175  24.034  0.00  0.00    +0.210 HD
ENDBRANCH   4  27
BRANCH  12  29
ATOM     29  O   UNL     1       3.199   0.132  29.653  0.00  0.00    -0.386 OA
ATOM     30  H   UNL     1       2.743  -0.733  29.718  0.00  0.00    +0.210 HD
ENDBRANCH  12  29
BRANCH  14  31
ATOM     31  O   UNL     1       2.898   2.029  26.704  0.00  0.00    -0.342 OA
BRANCH  31  32
ATOM     32  C   UNL     1       3.254   3.158  25.935  0.00  0.00    +0.281 C 
ATOM     33  C   UNL     1       2.116   3.422  24.981  0.00  0.00    +0.187 C 
ATOM     34  C   UNL     1       2.098   4.696  23.845  0.00  0.00    +0.092 C 
ATOM     35  C   UNL     1       2.608   5.647  24.854  0.00  0.00    +0.053 C 
ATOM     36  C   UNL     1       3.871   5.157  25.524  0.00  0.00    +0.120 C 
ATOM     37  C   UNL     1       4.722   6.116  26.147  0.00  0.00    +0.038 C 
ATOM     38  O   UNL     1       3.432   4.367  26.588  0.00  0.00    -0.346 OA
BRANCH  34  39
ATOM     39  N   UNL     1       0.968   5.417  22.854  0.00  0.00    -0.303 NA
ATOM     40  C   UNL     1       0.473   4.770  21.591  0.00  0.00    +0.105 C 
ATOM     41  C   UNL     1       1.371   6.736  22.252  0.00  0.00    +0.105 C 
ENDBRANCH  34  39
BRANCH  33  42
ATOM     42  O   UNL     1       1.739   2.065  24.821  0.00  0.00    -0.385 OA
ATOM     43  H   UNL     1       0.840   1.878  24.483  0.00  0.00    +0.210 HD
ENDBRANCH  33  42
ENDBRANCH  31  32
ENDBRANCH  14  31
BRANCH  17  44
ATOM     44  O   UNL     1       6.831   3.422  25.903  0.00  0.00    -0.347 OA
BRANCH  44  45
ATOM     45  C   UNL     1       7.553   3.285  24.294  0.00  0.00    +0.254 C 
ATOM     46  O   UNL     1       8.698   2.397  24.219  0.00  0.00    -0.346 OA
ATOM     47  C   UNL     1       9.894   2.837  23.515  0.00  0.00    +0.149 C 
ATOM     48  C   UNL     1      10.212   1.930  22.318  0.00  0.00    +0.041 C 
ATOM     49  C   UNL     1      10.091   4.343  23.054  0.00  0.00    +0.175 C 
ATOM     50  C   UNL     1       9.110   5.196  23.797  0.00  0.00    +0.099 C 
ATOM     51  C   UNL     1       9.031   6.720  23.555  0.00  0.00    +0.044 C 
ATOM     52  C   UNL     1       7.857   4.475  23.300  0.00  0.00    +0.098 C 
BRANCH  49  53
ATOM     53  O   UNL     1      11.453   4.733  23.216  0.00  0.00    -0.386 OA
ATOM     54  H   UNL     1      11.452   5.664  23.494  0.00  0.00    +0.210 HD
ENDBRANCH  49  53
BRANCH  50  55
ATOM     55  O   UNL     1       9.115   5.000  25.199  0.00  0.00    -0.374 OA
ATOM     56  C   UNL     1       9.092   6.067  26.090  0.00  0.00    +0.194 C 
ENDBRANCH  50  55
ENDBRANCH  44  45
ENDBRANCH  17  44
TORSDOF 12
ENDMDL
MODEL 9
REMARK VINA RESULT:      -4.1      2.062      3.675
REMARK  Name = 
REMARK  25 active torsions:
REMARK  status: ('A' for Active; 'I' for Inactive)
REMARK    1  A    between atoms: C_1  and  C_2
REMARK    2  A    between atoms: C_2  and  C_3
REMARK    3  A    between atoms: C_8  and  C_10
REMARK    4  A    between atoms: C_11  and  O_13
REMARK    5  A    between atoms: O_13  and  C_14
REMARK    6  A    between atoms: C_17  and  C_18
REMARK    7  A    between atoms: C_17  and  O_19
REMARK    8  A    between atoms: O_19  and  C_20
REMARK    9  A    between atoms: C_21  and  O_23
REMARK   10  A    between atoms: C_24  and  C_26
REMARK   11  A    between atoms: C_28  and  C_30
REMARK   12  A    between atoms: C_31  and  O_33
REMARK   13  A    between atoms: O_33  and  C_34
REMARK   14  A    between atoms: C_37  and  C_39
REMARK   15  A    between atoms: C_41  and  N_46
REMARK   16  A    between atoms: C_43  and  O_45
REMARK   17  A    between atoms: N_46  and  C_47
REMARK   18  A    between atoms: N_46  and  C_48
REMARK   19  A    between atoms: C_49  and  C_50
REMARK   20  A    between atoms: C_49  and  O_51
REMARK   21  A    between atoms: C_53  and  C_55
REMARK   22  A    between atoms: C_58  and  C_60
REMARK   23  A    between atoms: C_61  and  O_63
REMARK   24  A    between atoms: C_64  and  C_65
REMARK   25  A    between atoms: C_64  and  O_66
REMARK                            x       y       z     vdW  Elec       q    Type
REMARK                         _______ _______ _______ _____ _____    ______ ____
ROOT
ATOM      1  C   UNL     1       3.206   2.853  27.817  0.00  0.00    +0.210 C 
ATOM      2  C   UNL     1       4.049   4.008  26.928  0.00  0.00    +0.126 C 
ATOM      3  C   UNL     1       4.444   5.082  27.985  0.00  0.00    +0.048 C 
ATOM      4  C   UNL     1       3.381   4.757  25.623  0.00  0.00    +0.159 C 
ATOM      5  C   UNL     1       4.089   4.737  24.067  0.00  0.00    +0.084 C 
ATOM      6  C   UNL     1       5.296   5.667  24.137  0.00  0.00    +0.018 C 
ATOM      7  C   UNL     1       4.492   3.455  22.987  0.00  0.00    +0.142 C 
ATOM      8  O   UNL     1       3.666   3.046  22.172  0.00  0.00    -0.297 OA
ATOM      9  C   UNL     1       6.041   2.870  22.959  0.00  0.00    +0.055 C 
ATOM     10  C   UNL     1       6.562   3.563  21.666  0.00  0.00    +0.015 C 
ATOM     11  C   UNL     1       6.482   1.315  22.781  0.00  0.00    +0.048 C 
ATOM     12  C   UNL     1       7.760   0.574  23.669  0.00  0.00    +0.090 C 
ATOM     13  C   UNL     1       8.738   0.046  22.571  0.00  0.00    +0.044 C 
ATOM     14  C   UNL     1       7.415  -0.803  24.493  0.00  0.00    +0.158 C 
ATOM     15  C   UNL     1       7.784  -1.459  26.169  0.00  0.00    +0.047 C 
ATOM     16  C   UNL     1       9.264  -1.263  26.524  0.00  0.00    +0.013 C 
ATOM     17  C   UNL     1       6.647  -1.530  27.657  0.00  0.00    +0.140 C 
ATOM     18  C   UNL     1       6.472   0.183  28.328  0.00  0.00    +0.124 C 
ATOM     19  C   UNL     1       7.257   1.227  27.470  0.00  0.00    +0.022 C 
ATOM     20  C   UNL     1       5.361   1.113  29.256  0.00  0.00    +0.313 C 
ATOM     21  O   UNL     1       5.550   1.080  30.485  0.00  0.00    -0.250 OA
ATOM     22  O   UNL     1       4.356   2.009  28.828  0.00  0.00    -0.458 OA
ENDROOT
BRANCH   1  24
ATOM     23  C   UNL     1       0.769   1.704  25.985  0.00  0.00    +0.007 C 
ATOM     24  C   UNL     1       1.591   2.023  27.393  0.00  0.00    +0.044 C 
ENDBRANCH   1  24
BRANCH   2  25
ATOM     25  O   UNL     1       5.389   3.611  26.568  0.00  0.00    -0.383 OA
ATOM     26  H   UNL     1       5.443   3.243  25.675  0.00  0.00    +0.210 HD
ENDBRANCH   2  25
BRANCH   4  27
ATOM     27  O   UNL     1       1.946   4.627  25.627  0.00  0.00    -0.388 OA
ATOM     28  H   UNL     1       1.671   3.884  26.192  0.00  0.00    +0.210 HD
ENDBRANCH   4  27
BRANCH  12  29
ATOM     29  O   UNL     1       8.439   1.520  24.482  0.00  0.00    -0.386 OA
ATOM     30  H   UNL     1       7.773   2.197  24.723  0.00  0.00    +0.210 HD
ENDBRANCH  12  29
BRANCH  14  31
ATOM     31  O   UNL     1       6.181  -1.102  23.840  0.00  0.00    -0.342 OA
BRANCH  31  32
ATOM     32  C   UNL     1       5.972  -2.488  23.670  0.00  0.00    +0.281 C 
ATOM     33  C   UNL     1       4.573  -2.787  24.144  0.00  0.00    +0.187 C 
ATOM     34  C   UNL     1       3.871  -4.343  24.131  0.00  0.00    +0.092 C 
ATOM     35  C   UNL     1       4.388  -4.601  22.771  0.00  0.00    +0.053 C 
ATOM     36  C   UNL     1       5.877  -4.366  22.665  0.00  0.00    +0.120 C 
ATOM     37  C   UNL     1       6.587  -4.997  21.603  0.00  0.00    +0.038 C 
ATOM     38  O   UNL     1       6.009  -3.005  22.385  0.00  0.00    -0.346 OA
BRANCH  34  39
ATOM     39  N   UNL     1       2.345  -4.984  24.328  0.00  0.00    -0.303 NA
ATOM     40  C   UNL     1       2.086  -6.214  25.153  0.00  0.00    +0.105 C 
ATOM     41  C   UNL     1       1.662  -5.447  23.069  0.00  0.00    +0.105 C 
ENDBRANCH  34  39
BRANCH  33  42
ATOM     42  O   UNL     1       4.543  -1.792  25.154  0.00  0.00    -0.385 OA
ATOM     43  H   UNL     1       3.894  -1.898  25.879  0.00  0.00    +0.210 HD
ENDBRANCH  33  42
ENDBRANCH  31  32
ENDBRANCH  14  31
BRANCH  17  44
ATOM     44  O   UNL     1       5.474  -2.879  27.634  0.00  0.00    -0.347 OA
BRANCH  44  45
ATOM     45  C   UNL     1       4.694  -3.992  28.766  0.00  0.00    +0.254 C 
ATOM     46  O   UNL     1       3.961  -5.075  28.139  0.00  0.00    -0.346 OA
ATOM     47  C   UNL     1       2.621  -5.395  28.612  0.00  0.00    +0.149 C 
ATOM     48  C   UNL     1       2.543  -6.825  29.166  0.00  0.00    +0.041 C 
ATOM     49  C   UNL     1       1.831  -4.441  29.605  0.00  0.00    +0.175 C 
ATOM     50  C   UNL     1       2.496  -3.099  29.598  0.00  0.00    +0.099 C 
ATOM     51  C   UNL     1       1.976  -1.945  30.484  0.00  0.00    +0.044 C 
ATOM     52  C   UNL     1       3.868  -3.593  30.053  0.00  0.00    +0.098 C 
BRANCH  49  53
ATOM     53  O   UNL     1       0.447  -4.417  29.266  0.00  0.00    -0.386 OA
ATOM     54  H   UNL     1       0.115  -5.325  29.359  0.00  0.00    +0.210 HD
ENDBRANCH  49  53
BRANCH  50  55
ATOM     55  O   UNL     1       2.707  -2.563  28.305  0.00  0.00    -0.374 OA
ATOM     56  C   UNL     1       1.794  -1.703  27.708  0.00  0.00    +0.194 C 
ENDBRANCH  50  55
ENDBRANCH  44  45
ENDBRANCH  17  44
TORSDOF 12
ENDMDL
