MODEL 1
REMARK VINA RESULT:      -5.1      0.000      0.000
REMARK  Name = 
REMARK  3 active torsions:
REMARK  status: ('A' for Active; 'I' for Inactive)
REMARK    1  A    between atoms: C_1  and  N_2
REMARK    2  A    between atoms: N_2  and  C_3
REMARK    3  A    between atoms: C_4  and  N_11
REMARK                            x       y       z     vdW  Elec       q    Type
REMARK                         _______ _______ _______ _____ _____    ______ ____
ROOT
ATOM      1  C   UNL     1       7.377  -5.076  23.881  0.00  0.00    +0.206 A 
ATOM      2  N   UNL     1       8.729  -5.104  24.188  0.00  0.00    -0.194 NA
ATOM      3  C   UNL     1       9.116  -5.409  25.383  0.00  0.00    +0.195 A 
ATOM      4  N   UNL     1      10.435  -5.478  25.673  0.00  0.00    -0.329 N 
ATOM      5  H   UNL     1      11.020  -5.064  24.952  0.00  0.00    +0.145 HD
ATOM      6  H   UNL     1      10.737  -5.256  26.611  0.00  0.00    +0.145 HD
ATOM      7  N   UNL     1       8.247  -5.676  26.391  0.00  0.00    -0.290 N 
ATOM      8  H   UNL     1       8.579  -5.955  27.301  0.00  0.00    +0.172 HD
ATOM      9  C   UNL     1       6.891  -5.699  26.201  0.00  0.00    +0.332 A 
ATOM     10  O   UNL     1       6.134  -6.021  27.110  0.00  0.00    -0.260 OA
ATOM     11  C   UNL     1       6.473  -5.359  24.844  0.00  0.00    +0.376 A 
ENDROOT
BRANCH   1  13
ATOM     12  C   UNL     1       6.970  -5.741  21.511  0.00  0.00    +0.127 C 
ATOM     13  N   UNL     1       7.031  -4.752  22.569  0.00  0.00    -0.327 N 
ATOM     14  H   UNL     1       6.318  -4.021  22.501  0.00  0.00    +0.147 HD
ENDBRANCH   1  13
BRANCH  11  15
ATOM     15  N   UNL     1       5.078  -5.319  24.549  0.00  0.00    +0.089 N 
ATOM     16  O   UNL     1       4.494  -4.237  24.695  0.00  0.00    +0.042 OA
ATOM     17  O   UNL     1       4.550  -6.368  24.145  0.00  0.00    -0.576 OA
ENDBRANCH  11  15
TORSDOF 2
ENDMDL
MODEL 2
REMARK VINA RESULT:      -4.9      6.544      7.506
REMARK  Name = 
REMARK  3 active torsions:
REMARK  status: ('A' for Active; 'I' for Inactive)
REMARK    1  A    between atoms: C_1  and  N_2
REMARK    2  A    between atoms: N_2  and  C_3
REMARK    3  A    between atoms: C_4  and  N_11
REMARK                            x       y       z     vdW  Elec       q    Type
REMARK                         _______ _______ _______ _____ _____    ______ ____
ROOT
ATOM      1  C   UNL     1       9.896   0.608  24.323  0.00  0.00    +0.206 A 
ATOM      2  N   UNL     1      10.255   1.945  24.250  0.00  0.00    -0.194 NA
ATOM      3  C   UNL     1      10.293   2.544  23.105  0.00  0.00    +0.195 A 
ATOM      4  N   UNL     1      10.602   3.859  23.037  0.00  0.00    -0.329 N 
ATOM      5  H   UNL     1      10.994   4.217  23.903  0.00  0.00    +0.145 HD
ATOM      6  H   UNL     1      11.070   4.204  22.211  0.00  0.00    +0.145 HD
ATOM      7  N   UNL     1      10.028   1.910  21.935  0.00  0.00    -0.290 N 
ATOM      8  H   UNL     1      10.022   2.414  21.062  0.00  0.00    +0.172 HD
ATOM      9  C   UNL     1       9.643   0.596  21.885  0.00  0.00    +0.332 A 
ATOM     10  O   UNL     1       9.333   0.072  20.821  0.00  0.00    -0.260 OA
ATOM     11  C   UNL     1       9.599  -0.062  23.188  0.00  0.00    +0.376 A 
ENDROOT
BRANCH   1  13
ATOM     12  C   UNL     1       8.631  -0.161  26.331  0.00  0.00    +0.127 C 
ATOM     13  N   UNL     1       9.863   0.028  25.592  0.00  0.00    -0.327 N 
ATOM     14  H   UNL     1      10.546  -0.723  25.718  0.00  0.00    +0.147 HD
ENDBRANCH   1  13
BRANCH  11  15
ATOM     15  N   UNL     1       9.243  -1.442  23.243  0.00  0.00    +0.089 N 
ATOM     16  O   UNL     1      10.164  -2.268  23.296  0.00  0.00    +0.042 OA
ATOM     17  O   UNL     1       8.033  -1.719  23.257  0.00  0.00    -0.576 OA
ENDBRANCH  11  15
TORSDOF 2
ENDMDL
MODEL 3
REMARK VINA RESULT:      -4.9      5.252      6.191
REMARK  Name = 
REMARK  3 active torsions:
REMARK  status: ('A' for Active; 'I' for Inactive)
REMARK    1  A    between atoms: C_1  and  N_2
REMARK    2  A    between atoms: N_2  and  C_3
REMARK    3  A    between atoms: C_4  and  N_11
REMARK                            x       y       z     vdW  Elec       q    Type
REMARK                         _______ _______ _______ _____ _____    ______ ____
ROOT
ATOM      1  C   UNL     1       7.534  -0.489  22.934  0.00  0.00    +0.206 A 
ATOM      2  N   UNL     1       7.805   0.791  22.472  0.00  0.00    -0.194 NA
ATOM      3  C   UNL     1       8.977   1.077  22.009  0.00  0.00    +0.195 A 
ATOM      4  N   UNL     1       9.230   2.312  21.520  0.00  0.00    -0.329 N 
ATOM      5  H   UNL     1       8.512   2.988  21.763  0.00  0.00    +0.145 HD
ATOM      6  H   UNL     1      10.168   2.680  21.595  0.00  0.00    +0.145 HD
ATOM      7  N   UNL     1       9.996   0.180  21.981  0.00  0.00    -0.290 N 
ATOM      8  H   UNL     1      10.886   0.420  21.572  0.00  0.00    +0.172 HD
ATOM      9  C   UNL     1       9.840  -1.118  22.390  0.00  0.00    +0.332 A 
ATOM     10  O   UNL     1      10.754  -1.926  22.279  0.00  0.00    -0.260 OA
ATOM     11  C   UNL     1       8.508  -1.424  22.904  0.00  0.00    +0.376 A 
ENDROOT
BRANCH   1  13
ATOM     12  C   UNL     1       5.841  -0.418  24.764  0.00  0.00    +0.127 C 
ATOM     13  N   UNL     1       6.244  -0.732  23.408  0.00  0.00    -0.327 N 
ATOM     14  H   UNL     1       5.514  -0.581  22.708  0.00  0.00    +0.147 HD
ENDBRANCH   1  13
BRANCH  11  15
ATOM     15  N   UNL     1       8.250  -2.741  23.389  0.00  0.00    +0.089 N 
ATOM     16  O   UNL     1       7.801  -3.568  22.585  0.00  0.00    +0.042 OA
ATOM     17  O   UNL     1       8.515  -2.972  24.580  0.00  0.00    -0.576 OA
ENDBRANCH  11  15
TORSDOF 2
ENDMDL
MODEL 4
REMARK VINA RESULT:      -4.9      5.224      6.398
REMARK  Name = 
REMARK  3 active torsions:
REMARK  status: ('A' for Active; 'I' for Inactive)
REMARK    1  A    between atoms: C_1  and  N_2
REMARK    2  A    between atoms: N_2  and  C_3
REMARK    3  A    between atoms: C_4  and  N_11
REMARK                            x       y       z     vdW  Elec       q    Type
REMARK                         _______ _______ _______ _____ _____    ______ ____
ROOT
ATOM      1  C   UNL     1       8.908  -0.278  24.279  0.00  0.00    +0.206 A 
ATOM      2  N   UNL     1       7.809   0.551  24.452  0.00  0.00    -0.194 NA
ATOM      3  C   UNL     1       6.693   0.280  23.858  0.00  0.00    +0.195 A 
ATOM      4  N   UNL     1       5.610   1.063  24.060  0.00  0.00    -0.329 N 
ATOM      5  H   UNL     1       5.838   1.944  24.512  0.00  0.00    +0.145 HD
ATOM      6  H   UNL     1       4.935   1.157  23.314  0.00  0.00    +0.145 HD
ATOM      7  N   UNL     1       6.544  -0.779  23.023  0.00  0.00    -0.290 N 
ATOM      8  H   UNL     1       5.650  -0.991  22.609  0.00  0.00    +0.172 HD
ATOM      9  C   UNL     1       7.553  -1.677  22.792  0.00  0.00    +0.332 A 
ATOM     10  O   UNL     1       7.365  -2.668  22.095  0.00  0.00    -0.260 OA
ATOM     11  C   UNL     1       8.803  -1.359  23.476  0.00  0.00    +0.376 A 
ENDROOT
BRANCH   1  13
ATOM     12  C   UNL     1      11.040   1.009  24.427  0.00  0.00    +0.127 C 
ATOM     13  N   UNL     1      10.076   0.067  24.960  0.00  0.00    -0.327 N 
ATOM     14  H   UNL     1       9.960   0.116  25.975  0.00  0.00    +0.147 HD
ENDBRANCH   1  13
BRANCH  11  15
ATOM     15  N   UNL     1       9.928  -2.212  23.274  0.00  0.00    +0.089 N 
ATOM     16  O   UNL     1      10.040  -3.195  24.020  0.00  0.00    +0.042 OA
ATOM     17  O   UNL     1      10.704  -1.924  22.351  0.00  0.00    -0.576 OA
ENDBRANCH  11  15
TORSDOF 2
ENDMDL
MODEL 5
REMARK VINA RESULT:      -4.8      1.490      1.600
REMARK  Name = 
REMARK  3 active torsions:
REMARK  status: ('A' for Active; 'I' for Inactive)
REMARK    1  A    between atoms: C_1  and  N_2
REMARK    2  A    between atoms: N_2  and  C_3
REMARK    3  A    between atoms: C_4  and  N_11
REMARK                            x       y       z     vdW  Elec       q    Type
REMARK                         _______ _______ _______ _____ _____    ______ ____
ROOT
ATOM      1  C   UNL     1       7.654  -4.161  23.526  0.00  0.00    +0.206 A 
ATOM      2  N   UNL     1       8.862  -4.506  24.114  0.00  0.00    -0.194 NA
ATOM      3  C   UNL     1       8.878  -5.226  25.187  0.00  0.00    +0.195 A 
ATOM      4  N   UNL     1      10.055  -5.598  25.738  0.00  0.00    -0.329 N 
ATOM      5  H   UNL     1      10.847  -5.084  25.362  0.00  0.00    +0.145 HD
ATOM      6  H   UNL     1      10.102  -5.732  26.738  0.00  0.00    +0.145 HD
ATOM      7  N   UNL     1       7.745  -5.646  25.807  0.00  0.00    -0.290 N 
ATOM      8  H   UNL     1       7.789  -6.244  26.617  0.00  0.00    +0.172 HD
ATOM      9  C   UNL     1       6.497  -5.384  25.307  0.00  0.00    +0.332 A 
ATOM     10  O   UNL     1       5.496  -5.843  25.844  0.00  0.00    -0.260 OA
ATOM     11  C   UNL     1       6.500  -4.575  24.091  0.00  0.00    +0.376 A 
ENDROOT
BRANCH   1  13
ATOM     12  C   UNL     1       8.434  -2.137  22.292  0.00  0.00    +0.127 C 
ATOM     13  N   UNL     1       7.712  -3.392  22.363  0.00  0.00    -0.327 N 
ATOM     14  H   UNL     1       7.753  -3.947  21.505  0.00  0.00    +0.147 HD
ENDBRANCH   1  13
BRANCH  11  15
ATOM     15  N   UNL     1       5.248  -4.216  23.508  0.00  0.00    +0.089 N 
ATOM     16  O   UNL     1       4.677  -3.212  23.954  0.00  0.00    +0.042 OA
ATOM     17  O   UNL     1       4.829  -4.922  22.578  0.00  0.00    -0.576 OA
ENDBRANCH  11  15
TORSDOF 2
ENDMDL
MODEL 6
REMARK VINA RESULT:      -4.7      4.780      5.671
REMARK  Name = 
REMARK  3 active torsions:
REMARK  status: ('A' for Active; 'I' for Inactive)
REMARK    1  A    between atoms: C_1  and  N_2
REMARK    2  A    between atoms: N_2  and  C_3
REMARK    3  A    between atoms: C_4  and  N_11
REMARK                            x       y       z     vdW  Elec       q    Type
REMARK                         _______ _______ _______ _____ _____    ______ ____
ROOT
ATOM      1  C   UNL     1       8.839  -1.595  25.409  0.00  0.00    +0.206 A 
ATOM      2  N   UNL     1       9.005  -0.227  25.565  0.00  0.00    -0.194 NA
ATOM      3  C   UNL     1       9.634   0.457  24.666  0.00  0.00    +0.195 A 
ATOM      4  N   UNL     1       9.759   1.797  24.797  0.00  0.00    -0.329 N 
ATOM      5  H   UNL     1       9.521   2.126  25.728  0.00  0.00    +0.145 HD
ATOM      6  H   UNL     1      10.576   2.246  24.408  0.00  0.00    +0.145 HD
ATOM      7  N   UNL     1      10.186  -0.112  23.564  0.00  0.00    -0.290 N 
ATOM      8  H   UNL     1      10.631   0.453  22.858  0.00  0.00    +0.172 HD
ATOM      9  C   UNL     1      10.068  -1.450  23.294  0.00  0.00    +0.332 A 
ATOM     10  O   UNL     1      10.509  -1.921  22.252  0.00  0.00    -0.260 OA
ATOM     11  C   UNL     1       9.349  -2.204  24.316  0.00  0.00    +0.376 A 
ENDROOT
BRANCH   1  13
ATOM     12  C   UNL     1       6.691  -2.307  26.460  0.00  0.00    +0.127 C 
ATOM     13  N   UNL     1       8.139  -2.268  26.412  0.00  0.00    -0.327 N 
ATOM     14  H   UNL     1       8.592  -3.131  26.719  0.00  0.00    +0.147 HD
ENDBRANCH   1  13
BRANCH  11  15
ATOM     15  N   UNL     1       9.201  -3.613  24.148  0.00  0.00    +0.089 N 
ATOM     16  O   UNL     1      10.082  -4.341  24.624  0.00  0.00    +0.042 OA
ATOM     17  O   UNL     1       8.187  -4.012  23.554  0.00  0.00    -0.576 OA
ENDBRANCH  11  15
TORSDOF 2
ENDMDL
MODEL 7
REMARK VINA RESULT:      -4.7      2.175      3.404
REMARK  Name = 
REMARK  3 active torsions:
REMARK  status: ('A' for Active; 'I' for Inactive)
REMARK    1  A    between atoms: C_1  and  N_2
REMARK    2  A    between atoms: N_2  and  C_3
REMARK    3  A    between atoms: C_4  and  N_11
REMARK                            x       y       z     vdW  Elec       q    Type
REMARK                         _______ _______ _______ _____ _____    ______ ____
ROOT
ATOM      1  C   UNL     1       6.185  -5.479  24.213  0.00  0.00    +0.206 A 
ATOM      2  N   UNL     1       5.104  -6.251  24.613  0.00  0.00    -0.194 NA
ATOM      3  C   UNL     1       4.981  -6.600  25.852  0.00  0.00    +0.195 A 
ATOM      4  N   UNL     1       3.907  -7.318  26.251  0.00  0.00    -0.329 N 
ATOM      5  H   UNL     1       3.382  -7.709  25.473  0.00  0.00    +0.145 HD
ATOM      6  H   UNL     1       4.012  -7.957  27.026  0.00  0.00    +0.145 HD
ATOM      7  N   UNL     1       5.894  -6.274  26.801  0.00  0.00    -0.290 N 
ATOM      8  H   UNL     1       5.748  -6.522  27.768  0.00  0.00    +0.172 HD
ATOM      9  C   UNL     1       6.989  -5.497  26.528  0.00  0.00    +0.332 A 
ATOM     10  O   UNL     1       7.754  -5.152  27.422  0.00  0.00    -0.260 OA
ATOM     11  C   UNL     1       7.108  -5.107  25.126  0.00  0.00    +0.376 A 
ENDROOT
BRANCH   1  13
ATOM     12  C   UNL     1       6.771  -6.021  21.850  0.00  0.00    +0.127 C 
ATOM     13  N   UNL     1       6.248  -5.127  22.864  0.00  0.00    -0.327 N 
ATOM     14  H   UNL     1       5.461  -4.554  22.552  0.00  0.00    +0.147 HD
ENDBRANCH   1  13
BRANCH  11  15
ATOM     15  N   UNL     1       8.233  -4.326  24.729  0.00  0.00    +0.089 N 
ATOM     16  O   UNL     1       9.259  -4.932  24.391  0.00  0.00    +0.042 OA
ATOM     17  O   UNL     1       8.099  -3.092  24.728  0.00  0.00    -0.576 OA
ENDBRANCH  11  15
TORSDOF 2
ENDMDL
MODEL 8
REMARK VINA RESULT:      -4.7      2.976      3.563
REMARK  Name = 
REMARK  3 active torsions:
REMARK  status: ('A' for Active; 'I' for Inactive)
REMARK    1  A    between atoms: C_1  and  N_2
REMARK    2  A    between atoms: N_2  and  C_3
REMARK    3  A    between atoms: C_4  and  N_11
REMARK                            x       y       z     vdW  Elec       q    Type
REMARK                         _______ _______ _______ _____ _____    ______ ____
ROOT
ATOM      1  C   UNL     1       7.718  -4.173  23.517  0.00  0.00    +0.206 A 
ATOM      2  N   UNL     1       7.770  -5.135  24.515  0.00  0.00    -0.194 NA
ATOM      3  C   UNL     1       8.243  -4.834  25.680  0.00  0.00    +0.195 A 
ATOM      4  N   UNL     1       8.255  -5.759  26.667  0.00  0.00    -0.329 N 
ATOM      5  H   UNL     1       8.077  -6.700  26.328  0.00  0.00    +0.145 HD
ATOM      6  H   UNL     1       8.986  -5.714  27.363  0.00  0.00    +0.145 HD
ATOM      7  N   UNL     1       8.739  -3.606  25.977  0.00  0.00    -0.290 N 
ATOM      8  H   UNL     1       9.060  -3.388  26.907  0.00  0.00    +0.172 HD
ATOM      9  C   UNL     1       8.721  -2.573  25.078  0.00  0.00    +0.332 A 
ATOM     10  O   UNL     1       9.103  -1.453  25.400  0.00  0.00    -0.260 OA
ATOM     11  C   UNL     1       8.177  -2.928  23.771  0.00  0.00    +0.376 A 
ENDROOT
BRANCH   1  13
ATOM     12  C   UNL     1       7.147  -5.946  21.857  0.00  0.00    +0.127 C 
ATOM     13  N   UNL     1       7.184  -4.563  22.288  0.00  0.00    -0.327 N 
ATOM     14  H   UNL     1       6.370  -4.013  22.001  0.00  0.00    +0.147 HD
ENDBRANCH   1  13
BRANCH  11  15
ATOM     15  N   UNL     1       8.146  -1.932  22.750  0.00  0.00    +0.089 N 
ATOM     16  O   UNL     1       9.107  -1.882  21.972  0.00  0.00    +0.042 OA
ATOM     17  O   UNL     1       7.146  -1.199  22.700  0.00  0.00    -0.576 OA
ENDBRANCH  11  15
TORSDOF 2
ENDMDL
MODEL 9
REMARK VINA RESULT:      -4.6      2.274      3.254
REMARK  Name = 
REMARK  3 active torsions:
REMARK  status: ('A' for Active; 'I' for Inactive)
REMARK    1  A    between atoms: C_1  and  N_2
REMARK    2  A    between atoms: N_2  and  C_3
REMARK    3  A    between atoms: C_4  and  N_11
REMARK                            x       y       z     vdW  Elec       q    Type
REMARK                         _______ _______ _______ _____ _____    ______ ____
ROOT
ATOM      1  C   UNL     1       6.170  -5.195  24.844  0.00  0.00    +0.206 A 
ATOM      2  N   UNL     1       5.997  -5.557  26.171  0.00  0.00    -0.194 NA
ATOM      3  C   UNL     1       7.026  -5.746  26.930  0.00  0.00    +0.195 A 
ATOM      4  N   UNL     1       6.859  -6.058  28.235  0.00  0.00    -0.329 N 
ATOM      5  H   UNL     1       5.906  -6.330  28.456  0.00  0.00    +0.145 HD
ATOM      6  H   UNL     1       7.556  -6.631  28.689  0.00  0.00    +0.145 HD
ATOM      7  N   UNL     1       8.302  -5.641  26.478  0.00  0.00    -0.290 N 
ATOM      8  H   UNL     1       9.084  -5.749  27.105  0.00  0.00    +0.172 HD
ATOM      9  C   UNL     1       8.595  -5.268  25.193  0.00  0.00    +0.332 A 
ATOM     10  O   UNL     1       9.755  -5.104  24.835  0.00  0.00    -0.260 OA
ATOM     11  C   UNL     1       7.420  -5.053  24.352  0.00  0.00    +0.376 A 
ENDROOT
BRANCH   1  13
ATOM     12  C   UNL     1       4.246  -3.769  24.144  0.00  0.00    +0.127 C 
ATOM     13  N   UNL     1       5.016  -4.996  24.085  0.00  0.00    -0.327 N 
ATOM     14  H   UNL     1       5.057  -5.420  23.155  0.00  0.00    +0.147 HD
ENDBRANCH   1  13
BRANCH  11  15
ATOM     15  N   UNL     1       7.616  -4.696  22.985  0.00  0.00    +0.089 N 
ATOM     16  O   UNL     1       7.581  -5.607  22.146  0.00  0.00    +0.042 OA
ATOM     17  O   UNL     1       7.785  -3.494  22.728  0.00  0.00    -0.576 OA
ENDBRANCH  11  15
TORSDOF 2
ENDMDL
