MODEL 1
REMARK VINA RESULT:      -4.2      0.000      0.000
REMARK  Name = 
REMARK  4 active torsions:
REMARK  status: ('A' for Active; 'I' for Inactive)
REMARK    1  A    between atoms: O_1  and  C_2
REMARK    2  A    between atoms: C_2  and  C_3
REMARK    3  A    between atoms: C_7  and  O_9
REMARK    4  A    between atoms: C_10  and  O_12
REMARK                            x       y       z     vdW  Elec       q    Type
REMARK                         _______ _______ _______ _____ _____    ______ ____
ROOT
ATOM      1  C   UNK     1       9.596   1.081  23.639  0.00  0.00    +0.110 C 
ATOM      2  C   UNK     1      10.062   0.865  22.185  0.00  0.00    +0.163 C 
ATOM      3  C   UNK     1       9.277  -0.360  21.690  0.00  0.00    +0.158 C 
ATOM      4  C   UNK     1       8.366  -0.741  22.857  0.00  0.00    +0.115 C 
ATOM      5  N   UNK     1       8.256   0.448  23.714  0.00  0.00    -0.306 NA
ATOM      6  H   UNK     1       7.573   1.084  23.302  0.00  0.00    +0.122 HD
ENDROOT
BRANCH   2   7
ATOM      7  O   UNK     1       9.714   1.999  21.371  0.00  0.00    -0.388 OA
ATOM      8  H   UNK     1      10.513   2.536  21.246  0.00  0.00    +0.210 HD
ENDBRANCH   2   7
BRANCH   3   9
ATOM      9  O   UNK     1      10.155  -1.432  21.366  0.00  0.00    -0.388 OA
ATOM     10  H   UNK     1      10.098  -2.082  22.087  0.00  0.00    +0.210 HD
ENDBRANCH   3   9
BRANCH   1  11
ATOM     11  C   UNK     1      10.563   0.463  24.666  0.00  0.00    +0.177 C 
BRANCH  11  12
ATOM     12  O   UNK     1       9.887   0.239  25.898  0.00  0.00    -0.393 OA
ATOM     13  H   UNK     1       8.955   0.062  25.681  0.00  0.00    +0.209 HD
ENDBRANCH  11  12
ENDBRANCH   1  11
TORSDOF 4
ENDMDL
MODEL 2
REMARK VINA RESULT:      -3.9      1.208      2.966
REMARK  Name = 
REMARK  4 active torsions:
REMARK  status: ('A' for Active; 'I' for Inactive)
REMARK    1  A    between atoms: O_1  and  C_2
REMARK    2  A    between atoms: C_2  and  C_3
REMARK    3  A    between atoms: C_7  and  O_9
REMARK    4  A    between atoms: C_10  and  O_12
REMARK                            x       y       z     vdW  Elec       q    Type
REMARK                         _______ _______ _______ _____ _____    ______ ____
ROOT
ATOM      1  C   UNK     1       8.774   0.195  21.964  0.00  0.00    +0.110 C 
ATOM      2  C   UNK     1      10.148  -0.333  22.423  0.00  0.00    +0.163 C 
ATOM      3  C   UNK     1      10.029  -0.485  23.948  0.00  0.00    +0.158 C 
ATOM      4  C   UNK     1       8.586  -0.096  24.271  0.00  0.00    +0.115 C 
ATOM      5  N   UNK     1       7.823  -0.227  23.022  0.00  0.00    -0.306 NA
ATOM      6  H   UNK     1       7.596  -1.212  22.881  0.00  0.00    +0.122 HD
ENDROOT
BRANCH   2   7
ATOM      7  O   UNK     1      10.409  -1.625  21.848  0.00  0.00    -0.388 OA
ATOM      8  H   UNK     1       9.779  -1.765  21.123  0.00  0.00    +0.210 HD
ENDBRANCH   2   7
BRANCH   3   9
ATOM      9  O   UNK     1      10.944   0.374  24.619  0.00  0.00    -0.388 OA
ATOM     10  H   UNK     1      10.435   1.127  24.964  0.00  0.00    +0.210 HD
ENDBRANCH   3   9
BRANCH   1  11
ATOM     11  C   UNK     1       8.762   1.724  21.780  0.00  0.00    +0.177 C 
BRANCH  11  12
ATOM     12  O   UNK     1      10.087   2.198  21.564  0.00  0.00    -0.393 OA
ATOM     13  H   UNK     1      10.687   1.569  22.002  0.00  0.00    +0.209 HD
ENDBRANCH  11  12
ENDBRANCH   1  11
TORSDOF 4
ENDMDL
MODEL 3
REMARK VINA RESULT:      -3.9      1.104      2.931
REMARK  Name = 
REMARK  4 active torsions:
REMARK  status: ('A' for Active; 'I' for Inactive)
REMARK    1  A    between atoms: O_1  and  C_2
REMARK    2  A    between atoms: C_2  and  C_3
REMARK    3  A    between atoms: C_7  and  O_9
REMARK    4  A    between atoms: C_10  and  O_12
REMARK                            x       y       z     vdW  Elec       q    Type
REMARK                         _______ _______ _______ _____ _____    ______ ____
ROOT
ATOM      1  C   UNK     1       9.185  -0.587  23.416  0.00  0.00    +0.110 C 
ATOM      2  C   UNK     1      10.355   0.410  23.286  0.00  0.00    +0.163 C 
ATOM      3  C   UNK     1       9.707   1.734  22.853  0.00  0.00    +0.158 C 
ATOM      4  C   UNK     1       8.206   1.444  22.816  0.00  0.00    +0.115 C 
ATOM      5  N   UNK     1       7.985   0.254  23.649  0.00  0.00    -0.306 NA
ATOM      6  H   UNK     1       7.973   0.539  24.629  0.00  0.00    +0.122 HD
ENDROOT
BRANCH   2   7
ATOM      7  O   UNK     1      10.997   0.603  24.559  0.00  0.00    -0.388 OA
ATOM      8  H   UNK     1      11.718   1.242  24.438  0.00  0.00    +0.210 HD
ENDBRANCH   2   7
BRANCH   3   9
ATOM      9  O   UNK     1      10.173   2.135  21.569  0.00  0.00    -0.388 OA
ATOM     10  H   UNK     1       9.780   1.530  20.916  0.00  0.00    +0.210 HD
ENDBRANCH   3   9
BRANCH   1  11
ATOM     11  C   UNK     1       9.017  -1.465  22.163  0.00  0.00    +0.177 C 
BRANCH  11  12
ATOM     12  O   UNK     1      10.249  -1.538  21.451  0.00  0.00    -0.393 OA
ATOM     13  H   UNK     1      10.924  -1.116  22.011  0.00  0.00    +0.209 HD
ENDBRANCH  11  12
ENDBRANCH   1  11
TORSDOF 4
ENDMDL
MODEL 4
REMARK VINA RESULT:      -3.8      1.985      2.642
REMARK  Name = 
REMARK  4 active torsions:
REMARK  status: ('A' for Active; 'I' for Inactive)
REMARK    1  A    between atoms: O_1  and  C_2
REMARK    2  A    between atoms: C_2  and  C_3
REMARK    3  A    between atoms: C_7  and  O_9
REMARK    4  A    between atoms: C_10  and  O_12
REMARK                            x       y       z     vdW  Elec       q    Type
REMARK                         _______ _______ _______ _____ _____    ______ ____
ROOT
ATOM      1  C   UNK     1      10.396   0.261  23.010  0.00  0.00    +0.110 C 
ATOM      2  C   UNK     1       9.532   1.104  22.050  0.00  0.00    +0.163 C 
ATOM      3  C   UNK     1       8.316   1.540  22.883  0.00  0.00    +0.158 C 
ATOM      4  C   UNK     1       8.575   0.978  24.281  0.00  0.00    +0.115 C 
ATOM      5  N   UNK     1      10.018   0.717  24.371  0.00  0.00    -0.306 NA
ATOM      6  H   UNK     1      10.497   1.597  24.564  0.00  0.00    +0.122 HD
ENDROOT
BRANCH   2   7
ATOM      7  O   UNK     1      10.248   2.277  21.627  0.00  0.00    -0.388 OA
ATOM      8  H   UNK     1      11.198   2.080  21.665  0.00  0.00    +0.210 HD
ENDBRANCH   2   7
BRANCH   3   9
ATOM      9  O   UNK     1       7.111   1.008  22.343  0.00  0.00    -0.388 OA
ATOM     10  H   UNK     1       7.303   0.720  21.434  0.00  0.00    +0.210 HD
ENDBRANCH   3   9
BRANCH   1  11
ATOM     11  C   UNK     1      10.159  -1.251  22.842  0.00  0.00    +0.177 C 
BRANCH  11  12
ATOM     12  O   UNK     1      10.131  -1.588  21.459  0.00  0.00    -0.393 OA
ATOM     13  H   UNK     1       9.376  -2.188  21.329  0.00  0.00    +0.209 HD
ENDBRANCH  11  12
ENDBRANCH   1  11
TORSDOF 4
ENDMDL
MODEL 5
REMARK VINA RESULT:      -3.8      5.393      6.227
REMARK  Name = 
REMARK  4 active torsions:
REMARK  status: ('A' for Active; 'I' for Inactive)
REMARK    1  A    between atoms: O_1  and  C_2
REMARK    2  A    between atoms: C_2  and  C_3
REMARK    3  A    between atoms: C_7  and  O_9
REMARK    4  A    between atoms: C_10  and  O_12
REMARK                            x       y       z     vdW  Elec       q    Type
REMARK                         _______ _______ _______ _____ _____    ______ ____
ROOT
ATOM      1  C   UNK     1       7.089  -4.328  26.076  0.00  0.00    +0.110 C 
ATOM      2  C   UNK     1       8.551  -3.959  26.400  0.00  0.00    +0.163 C 
ATOM      3  C   UNK     1       9.373  -4.508  25.223  0.00  0.00    +0.158 C 
ATOM      4  C   UNK     1       8.341  -5.105  24.267  0.00  0.00    +0.115 C 
ATOM      5  N   UNK     1       7.049  -4.491  24.602  0.00  0.00    -0.306 NA
ATOM      6  H   UNK     1       7.007  -3.565  24.174  0.00  0.00    +0.122 HD
ENDROOT
BRANCH   2   7
ATOM      7  O   UNK     1       8.711  -2.530  26.449  0.00  0.00    -0.388 OA
ATOM      8  H   UNK     1       7.828  -2.130  26.502  0.00  0.00    +0.210 HD
ENDBRANCH   2   7
BRANCH   3   9
ATOM      9  O   UNK     1      10.289  -5.506  25.662  0.00  0.00    -0.388 OA
ATOM     10  H   UNK     1      10.955  -5.064  26.216  0.00  0.00    +0.210 HD
ENDBRANCH   3   9
BRANCH   1  11
ATOM     11  C   UNK     1       6.634  -5.613  26.793  0.00  0.00    +0.177 C 
BRANCH  11  12
ATOM     12  O   UNK     1       7.592  -5.986  27.778  0.00  0.00    -0.393 OA
ATOM     13  H   UNK     1       7.094  -6.338  28.537  0.00  0.00    +0.209 HD
ENDBRANCH  11  12
ENDBRANCH   1  11
TORSDOF 4
ENDMDL
MODEL 6
REMARK VINA RESULT:      -3.8      1.794      2.874
REMARK  Name = 
REMARK  4 active torsions:
REMARK  status: ('A' for Active; 'I' for Inactive)
REMARK    1  A    between atoms: O_1  and  C_2
REMARK    2  A    between atoms: C_2  and  C_3
REMARK    3  A    between atoms: C_7  and  O_9
REMARK    4  A    between atoms: C_10  and  O_12
REMARK                            x       y       z     vdW  Elec       q    Type
REMARK                         _______ _______ _______ _____ _____    ______ ____
ROOT
ATOM      1  C   UNK     1       8.931  -0.831  23.469  0.00  0.00    +0.110 C 
ATOM      2  C   UNK     1       9.124  -0.620  21.954  0.00  0.00    +0.163 C 
ATOM      3  C   UNK     1       9.788   0.760  21.823  0.00  0.00    +0.158 C 
ATOM      4  C   UNK     1       9.994   1.236  23.261  0.00  0.00    +0.115 C 
ATOM      5  N   UNK     1       9.947   0.040  24.113  0.00  0.00    -0.306 NA
ATOM      6  H   UNK     1      10.852  -0.429  24.068  0.00  0.00    +0.122 HD
ENDROOT
BRANCH   2   7
ATOM      7  O   UNK     1      10.012  -1.614  21.415  0.00  0.00    -0.388 OA
ATOM      8  H   UNK     1       9.586  -2.007  20.635  0.00  0.00    +0.210 HD
ENDBRANCH   2   7
BRANCH   3   9
ATOM      9  O   UNK     1       8.951   1.664  21.109  0.00  0.00    -0.388 OA
ATOM     10  H   UNK     1       8.239   1.937  21.711  0.00  0.00    +0.210 HD
ENDBRANCH   3   9
BRANCH   1  11
ATOM     11  C   UNK     1       7.509  -0.472  23.938  0.00  0.00    +0.177 C 
BRANCH  11  12
ATOM     12  O   UNK     1       6.613  -0.489  22.832  0.00  0.00    -0.393 OA
ATOM     13  H   UNK     1       5.923   0.171  23.017  0.00  0.00    +0.209 HD
ENDBRANCH  11  12
ENDBRANCH   1  11
TORSDOF 4
ENDMDL
MODEL 7
REMARK VINA RESULT:      -3.8      1.974      2.384
REMARK  Name = 
REMARK  4 active torsions:
REMARK  status: ('A' for Active; 'I' for Inactive)
REMARK    1  A    between atoms: O_1  and  C_2
REMARK    2  A    between atoms: C_2  and  C_3
REMARK    3  A    between atoms: C_7  and  O_9
REMARK    4  A    between atoms: C_10  and  O_12
REMARK                            x       y       z     vdW  Elec       q    Type
REMARK                         _______ _______ _______ _____ _____    ______ ____
ROOT
ATOM      1  C   UNK     1      10.231   1.432  22.416  0.00  0.00    +0.110 C 
ATOM      2  C   UNK     1       9.531   0.065  22.557  0.00  0.00    +0.163 C 
ATOM      3  C   UNK     1       8.046   0.344  22.274  0.00  0.00    +0.158 C 
ATOM      4  C   UNK     1       7.984   1.832  21.929  0.00  0.00    +0.115 C 
ATOM      5  N   UNK     1       9.343   2.233  21.537  0.00  0.00    -0.306 NA
ATOM      6  H   UNK     1       9.500   1.948  20.570  0.00  0.00    +0.122 HD
ENDROOT
BRANCH   2   7
ATOM      7  O   UNK     1      10.025  -0.859  21.571  0.00  0.00    -0.388 OA
ATOM      8  H   UNK     1      10.122  -1.727  21.995  0.00  0.00    +0.210 HD
ENDBRANCH   2   7
BRANCH   3   9
ATOM      9  O   UNK     1       7.246   0.058  23.416  0.00  0.00    -0.388 OA
ATOM     10  H   UNK     1       7.021  -0.887  23.382  0.00  0.00    +0.210 HD
ENDBRANCH   3   9
BRANCH   1  11
ATOM     11  C   UNK     1      10.447   2.126  23.774  0.00  0.00    +0.177 C 
BRANCH  11  12
ATOM     12  O   UNK     1      10.339   1.176  24.829  0.00  0.00    -0.393 OA
ATOM     13  H   UNK     1      10.300   0.297  24.414  0.00  0.00    +0.209 HD
ENDBRANCH  11  12
ENDBRANCH   1  11
TORSDOF 4
ENDMDL
MODEL 8
REMARK VINA RESULT:      -3.7      1.703      2.269
REMARK  Name = 
REMARK  4 active torsions:
REMARK  status: ('A' for Active; 'I' for Inactive)
REMARK    1  A    between atoms: O_1  and  C_2
REMARK    2  A    between atoms: C_2  and  C_3
REMARK    3  A    between atoms: C_7  and  O_9
REMARK    4  A    between atoms: C_10  and  O_12
REMARK                            x       y       z     vdW  Elec       q    Type
REMARK                         _______ _______ _______ _____ _____    ______ ____
ROOT
ATOM      1  C   UNK     1       8.416  -0.202  23.628  0.00  0.00    +0.110 C 
ATOM      2  C   UNK     1       7.993   1.064  22.855  0.00  0.00    +0.163 C 
ATOM      3  C   UNK     1       8.821   1.038  21.560  0.00  0.00    +0.158 C 
ATOM      4  C   UNK     1       9.623  -0.262  21.632  0.00  0.00    +0.115 C 
ATOM      5  N   UNK     1       8.932  -1.132  22.594  0.00  0.00    -0.306 NA
ATOM      6  H   UNK     1       8.138  -1.570  22.125  0.00  0.00    +0.122 HD
ENDROOT
BRANCH   2   7
ATOM      7  O   UNK     1       6.597   1.004  22.513  0.00  0.00    -0.388 OA
ATOM      8  H   UNK     1       6.106   0.727  23.304  0.00  0.00    +0.210 HD
ENDBRANCH   2   7
BRANCH   3   9
ATOM      9  O   UNK     1       9.691   2.162  21.487  0.00  0.00    -0.388 OA
ATOM     10  H   UNK     1       9.617   2.641  22.330  0.00  0.00    +0.210 HD
ENDBRANCH   3   9
BRANCH   1  11
ATOM     11  C   UNK     1       9.483   0.091  24.699  0.00  0.00    +0.177 C 
BRANCH  11  12
ATOM     12  O   UNK     1       9.415   1.458  25.092  0.00  0.00    -0.393 OA
ATOM     13  H   UNK     1       8.834   1.499  25.871  0.00  0.00    +0.209 HD
ENDBRANCH  11  12
ENDBRANCH   1  11
TORSDOF 4
ENDMDL
MODEL 9
REMARK VINA RESULT:      -3.7      2.296      3.415
REMARK  Name = 
REMARK  4 active torsions:
REMARK  status: ('A' for Active; 'I' for Inactive)
REMARK    1  A    between atoms: O_1  and  C_2
REMARK    2  A    between atoms: C_2  and  C_3
REMARK    3  A    between atoms: C_7  and  O_9
REMARK    4  A    between atoms: C_10  and  O_12
REMARK                            x       y       z     vdW  Elec       q    Type
REMARK                         _______ _______ _______ _____ _____    ______ ____
ROOT
ATOM      1  C   UNK     1       8.766  -1.443  24.547  0.00  0.00    +0.110 C 
ATOM      2  C   UNK     1       9.364  -2.430  23.523  0.00  0.00    +0.163 C 
ATOM      3  C   UNK     1      10.417  -1.617  22.751  0.00  0.00    +0.158 C 
ATOM      4  C   UNK     1      10.408  -0.237  23.408  0.00  0.00    +0.115 C 
ATOM      5  N   UNK     1       9.811  -0.406  24.740  0.00  0.00    -0.306 NA
ATOM      6  H   UNK     1      10.522  -0.776  25.372  0.00  0.00    +0.122 HD
ENDROOT
BRANCH   2   7
ATOM      7  O   UNK     1      10.022  -3.518  24.196  0.00  0.00    -0.388 OA
ATOM      8  H   UNK     1       9.668  -3.572  25.098  0.00  0.00    +0.210 HD
ENDBRANCH   2   7
BRANCH   3   9
ATOM      9  O   UNK     1      10.075  -1.521  21.372  0.00  0.00    -0.388 OA
ATOM     10  H   UNK     1      10.415  -0.669  21.049  0.00  0.00    +0.210 HD
ENDBRANCH   3   9
BRANCH   1  11
ATOM     11  C   UNK     1       7.444  -0.821  24.062  0.00  0.00    +0.177 C 
BRANCH  11  12
ATOM     12  O   UNK     1       6.891  -1.610  23.014  0.00  0.00    -0.393 OA
ATOM     13  H   UNK     1       7.596  -1.741  22.357  0.00  0.00    +0.209 HD
ENDBRANCH  11  12
ENDBRANCH   1  11
TORSDOF 4
ENDMDL
