MODEL 1
REMARK VINA RESULT:      -6.6      0.000      0.000
REMARK  Name = 
REMARK  11 active torsions:
REMARK  status: ('A' for Active; 'I' for Inactive)
REMARK    1  A    between atoms: C_1  and  C_2
REMARK    2  A    between atoms: C_3  and  C_4
REMARK    3  A    between atoms: N_7  and  C_8
REMARK    4  A    between atoms: C_8  and  C_9
REMARK    5  A    between atoms: C_9  and  O_11
REMARK    6  A    between atoms: C_9  and  C_12
REMARK    7  A    between atoms: C_12  and  O_14
REMARK    8  A    between atoms: C_12  and  C_15
REMARK    9  A    between atoms: C_15  and  O_17
REMARK   10  A    between atoms: C_15  and  C_18
REMARK   11  A    between atoms: C_18  and  O_19
REMARK                            x       y       z     vdW  Elec       q    Type
REMARK                         _______ _______ _______ _____ _____    ______ ____
ROOT
ATOM      1  C   UNL     1      10.038   0.358  22.117  0.00  0.00    +0.044 C 
ATOM      2  C   UNL     1       9.091  -0.546  22.859  0.00  0.00    -0.045 A 
ATOM      3  C   UNL     1       8.550  -1.642  22.182  0.00  0.00    +0.033 A 
ATOM      4  C   UNL     1       7.701  -2.554  22.823  0.00  0.00    +0.089 A 
ATOM      5  C   UNL     1       7.403  -2.418  24.199  0.00  0.00    +0.069 A 
ATOM      6  N   UNL     1       6.643  -3.431  24.851  0.00  0.00    -0.320 N 
ATOM      7  C   UNL     1       6.170  -4.491  24.068  0.00  0.00    +0.170 A 
ATOM      8  C   UNL     1       6.416  -4.466  22.578  0.00  0.00    +0.171 A 
ATOM      9  C   UNL     1       5.797  -5.541  21.732  0.00  0.00    +0.282 A 
ATOM     10  O   UNL     1       5.891  -5.570  20.517  0.00  0.00    -0.265 OA
ATOM     11  N   UNL     1       5.139  -6.485  22.462  0.00  0.00    -0.272 N 
ATOM     12  H   UNL     1       4.752  -7.272  21.962  0.00  0.00    +0.174 HD
ATOM     13  C   UNL     1       5.076  -6.545  23.821  0.00  0.00    +0.351 A 
ATOM     14  O   UNL     1       4.579  -7.536  24.340  0.00  0.00    -0.245 OA
ATOM     15  N   UNL     1       5.554  -5.511  24.580  0.00  0.00    -0.173 NA
ATOM     16  C   UNL     1       7.851  -1.246  24.834  0.00  0.00    +0.031 A 
ATOM     17  N   UNL     1       7.169  -3.570  22.019  0.00  0.00    -0.237 NA
ATOM     18  C   UNL     1       8.679  -0.305  24.180  0.00  0.00    -0.045 A 
ATOM     19  C   UNL     1       9.151   0.912  24.929  0.00  0.00    +0.044 C 
ENDROOT
BRANCH   6  20
ATOM     20  C   UNL     1       6.957  -3.712  26.282  0.00  0.00    +0.158 C 
BRANCH  20  21
ATOM     21  C   UNL     1       5.692  -3.944  27.142  0.00  0.00    +0.165 C 
BRANCH  21  22
ATOM     22  O   UNL     1       5.361  -2.727  27.823  0.00  0.00    -0.387 OA
ATOM     23  H   UNL     1       4.728  -2.254  27.253  0.00  0.00    +0.210 HD
ENDBRANCH  21  22
BRANCH  21  24
ATOM     24  C   UNL     1       5.862  -5.113  28.156  0.00  0.00    +0.175 C 
BRANCH  24  25
ATOM     25  O   UNL     1       7.125  -5.777  27.921  0.00  0.00    -0.387 OA
ATOM     26  H   UNL     1       7.513  -5.975  28.794  0.00  0.00    +0.210 HD
ENDBRANCH  24  25
BRANCH  24  27
ATOM     27  C   UNL     1       4.733  -6.174  28.154  0.00  0.00    +0.171 C 
BRANCH  27  28
ATOM     28  O   UNL     1       5.099  -7.223  27.233  0.00  0.00    -0.387 OA
ATOM     29  H   UNL     1       5.604  -6.784  26.518  0.00  0.00    +0.210 HD
ENDBRANCH  27  28
BRANCH  27  30
ATOM     30  C   UNL     1       3.349  -5.657  27.738  0.00  0.00    +0.189 C 
BRANCH  30  31
ATOM     31  O   UNL     1       2.986  -6.178  26.458  0.00  0.00    -0.392 OA
ATOM     32  H   UNL     1       3.821  -6.213  25.938  0.00  0.00    +0.210 HD
ENDBRANCH  30  31
ENDBRANCH  27  30
ENDBRANCH  24  27
ENDBRANCH  21  24
ENDBRANCH  20  21
ENDBRANCH   6  20
TORSDOF 9
ENDMDL
MODEL 2
REMARK VINA RESULT:      -6.5      3.917      7.453
REMARK  Name = 
REMARK  11 active torsions:
REMARK  status: ('A' for Active; 'I' for Inactive)
REMARK    1  A    between atoms: C_1  and  C_2
REMARK    2  A    between atoms: C_3  and  C_4
REMARK    3  A    between atoms: N_7  and  C_8
REMARK    4  A    between atoms: C_8  and  C_9
REMARK    5  A    between atoms: C_9  and  O_11
REMARK    6  A    between atoms: C_9  and  C_12
REMARK    7  A    between atoms: C_12  and  O_14
REMARK    8  A    between atoms: C_12  and  C_15
REMARK    9  A    between atoms: C_15  and  O_17
REMARK   10  A    between atoms: C_15  and  C_18
REMARK   11  A    between atoms: C_18  and  O_19
REMARK                            x       y       z     vdW  Elec       q    Type
REMARK                         _______ _______ _______ _____ _____    ______ ____
ROOT
ATOM      1  C   UNL     1       4.822  -6.457  23.686  0.00  0.00    +0.044 C 
ATOM      2  C   UNL     1       5.551  -5.142  23.618  0.00  0.00    -0.045 A 
ATOM      3  C   UNL     1       5.056  -4.068  24.362  0.00  0.00    +0.033 A 
ATOM      4  C   UNL     1       5.709  -2.830  24.387  0.00  0.00    +0.089 A 
ATOM      5  C   UNL     1       6.927  -2.642  23.693  0.00  0.00    +0.069 A 
ATOM      6  N   UNL     1       7.633  -1.414  23.842  0.00  0.00    -0.320 N 
ATOM      7  C   UNL     1       7.043  -0.419  24.629  0.00  0.00    +0.170 A 
ATOM      8  C   UNL     1       5.668  -0.662  25.205  0.00  0.00    +0.171 A 
ATOM      9  C   UNL     1       4.991   0.459  25.940  0.00  0.00    +0.282 A 
ATOM     10  O   UNL     1       3.860   0.375  26.388  0.00  0.00    -0.265 OA
ATOM     11  N   UNL     1       5.775   1.565  26.070  0.00  0.00    -0.272 N 
ATOM     12  H   UNL     1       5.406   2.335  26.609  0.00  0.00    +0.174 HD
ATOM     13  C   UNL     1       7.070   1.680  25.664  0.00  0.00    +0.351 A 
ATOM     14  O   UNL     1       7.697   2.681  25.985  0.00  0.00    -0.245 OA
ATOM     15  N   UNL     1       7.645   0.695  24.908  0.00  0.00    -0.173 NA
ATOM     16  C   UNL     1       7.346  -3.688  22.851  0.00  0.00    +0.031 A 
ATOM     17  N   UNL     1       5.077  -1.812  25.113  0.00  0.00    -0.237 NA
ATOM     18  C   UNL     1       6.669  -4.927  22.796  0.00  0.00    -0.045 A 
ATOM     19  C   UNL     1       7.191  -6.017  21.898  0.00  0.00    +0.044 C 
ENDROOT
BRANCH   6  20
ATOM     20  C   UNL     1       9.124  -1.468  23.795  0.00  0.00    +0.158 C 
BRANCH  20  21
ATOM     21  C   UNL     1       9.713  -0.787  22.536  0.00  0.00    +0.165 C 
BRANCH  21  22
ATOM     22  O   UNL     1      10.568  -1.717  21.860  0.00  0.00    -0.387 OA
ATOM     23  H   UNL     1      11.460  -1.593  22.231  0.00  0.00    +0.210 HD
ENDBRANCH  21  22
BRANCH  21  24
ATOM     24  C   UNL     1      10.479   0.527  22.868  0.00  0.00    +0.175 C 
BRANCH  24  25
ATOM     25  O   UNL     1      10.630   0.649  24.301  0.00  0.00    -0.387 OA
ATOM     26  H   UNL     1      11.581   0.775  24.480  0.00  0.00    +0.210 HD
ENDBRANCH  24  25
BRANCH  24  27
ATOM     27  C   UNL     1       9.847   1.830  22.320  0.00  0.00    +0.171 C 
BRANCH  27  28
ATOM     28  O   UNL     1       9.510   2.676  23.439  0.00  0.00    -0.387 OA
ATOM     29  H   UNL     1      10.112   2.408  24.164  0.00  0.00    +0.210 HD
ENDBRANCH  27  28
BRANCH  27  30
ATOM     30  C   UNL     1       8.573   1.639  21.485  0.00  0.00    +0.189 C 
BRANCH  30  31
ATOM     31  O   UNL     1       7.432   2.115  22.201  0.00  0.00    -0.392 OA
ATOM     32  H   UNL     1       7.090   2.877  21.681  0.00  0.00    +0.210 HD
ENDBRANCH  30  31
ENDBRANCH  27  30
ENDBRANCH  24  27
ENDBRANCH  21  24
ENDBRANCH  20  21
ENDBRANCH   6  20
TORSDOF 9
ENDMDL
MODEL 3
REMARK VINA RESULT:      -6.5      2.477      3.268
REMARK  Name = 
REMARK  11 active torsions:
REMARK  status: ('A' for Active; 'I' for Inactive)
REMARK    1  A    between atoms: C_1  and  C_2
REMARK    2  A    between atoms: C_3  and  C_4
REMARK    3  A    between atoms: N_7  and  C_8
REMARK    4  A    between atoms: C_8  and  C_9
REMARK    5  A    between atoms: C_9  and  O_11
REMARK    6  A    between atoms: C_9  and  C_12
REMARK    7  A    between atoms: C_12  and  O_14
REMARK    8  A    between atoms: C_12  and  C_15
REMARK    9  A    between atoms: C_15  and  O_17
REMARK   10  A    between atoms: C_15  and  C_18
REMARK   11  A    between atoms: C_18  and  O_19
REMARK                            x       y       z     vdW  Elec       q    Type
REMARK                         _______ _______ _______ _____ _____    ______ ____
ROOT
ATOM      1  C   UNL     1       9.796   1.336  21.919  0.00  0.00    +0.044 C 
ATOM      2  C   UNL     1       8.939   0.434  22.765  0.00  0.00    -0.045 A 
ATOM      3  C   UNL     1       9.484  -0.773  23.211  0.00  0.00    +0.033 A 
ATOM      4  C   UNL     1       8.765  -1.640  24.043  0.00  0.00    +0.089 A 
ATOM      5  C   UNL     1       7.472  -1.294  24.500  0.00  0.00    +0.069 A 
ATOM      6  N   UNL     1       6.818  -2.134  25.446  0.00  0.00    -0.320 N 
ATOM      7  C   UNL     1       7.474  -3.309  25.831  0.00  0.00    +0.170 A 
ATOM      8  C   UNL     1       8.785  -3.663  25.172  0.00  0.00    +0.171 A 
ATOM      9  C   UNL     1       9.417  -4.986  25.499  0.00  0.00    +0.282 A 
ATOM     10  O   UNL     1      10.443  -5.383  24.973  0.00  0.00    -0.265 OA
ATOM     11  N   UNL     1       8.738  -5.683  26.452  0.00  0.00    -0.272 N 
ATOM     12  H   UNL     1       9.141  -6.553  26.767  0.00  0.00    +0.174 HD
ATOM     13  C   UNL     1       7.639  -5.249  27.129  0.00  0.00    +0.351 A 
ATOM     14  O   UNL     1       7.227  -5.919  28.068  0.00  0.00    -0.245 OA
ATOM     15  N   UNL     1       7.012  -4.091  26.757  0.00  0.00    -0.173 NA
ATOM     16  C   UNL     1       6.889  -0.141  23.944  0.00  0.00    +0.031 A 
ATOM     17  N   UNL     1       9.393  -2.849  24.366  0.00  0.00    -0.237 NA
ATOM     18  C   UNL     1       7.600   0.718  23.075  0.00  0.00    -0.045 A 
ATOM     19  C   UNL     1       6.927   1.955  22.543  0.00  0.00    +0.044 C 
ENDROOT
BRANCH   6  20
ATOM     20  C   UNL     1       5.925  -1.478  26.446  0.00  0.00    +0.158 C 
BRANCH  20  21
ATOM     21  C   UNL     1       4.423  -1.717  26.160  0.00  0.00    +0.165 C 
BRANCH  21  22
ATOM     22  O   UNL     1       3.729  -0.465  26.237  0.00  0.00    -0.387 OA
ATOM     23  H   UNL     1       3.505  -0.329  27.175  0.00  0.00    +0.210 HD
ENDBRANCH  21  22
BRANCH  21  24
ATOM     24  C   UNL     1       3.786  -2.759  27.126  0.00  0.00    +0.175 C 
BRANCH  24  25
ATOM     25  O   UNL     1       4.646  -2.943  28.274  0.00  0.00    -0.387 OA
ATOM     26  H   UNL     1       4.080  -3.233  29.014  0.00  0.00    +0.210 HD
ENDBRANCH  24  25
BRANCH  24  27
ATOM     27  C   UNL     1       3.476  -4.145  26.508  0.00  0.00    +0.171 C 
BRANCH  27  28
ATOM     28  O   UNL     1       4.252  -5.138  27.210  0.00  0.00    -0.387 OA
ATOM     29  H   UNL     1       4.760  -5.614  26.520  0.00  0.00    +0.210 HD
ENDBRANCH  27  28
BRANCH  27  30
ATOM     30  C   UNL     1       3.796  -4.282  25.013  0.00  0.00    +0.189 C 
BRANCH  30  31
ATOM     31  O   UNL     1       4.853  -5.223  24.813  0.00  0.00    -0.392 OA
ATOM     32  H   UNL     1       4.546  -6.060  25.230  0.00  0.00    +0.210 HD
ENDBRANCH  30  31
ENDBRANCH  27  30
ENDBRANCH  24  27
ENDBRANCH  21  24
ENDBRANCH  20  21
ENDBRANCH   6  20
TORSDOF 9
ENDMDL
MODEL 4
REMARK VINA RESULT:      -6.3      4.713      7.057
REMARK  Name = 
REMARK  11 active torsions:
REMARK  status: ('A' for Active; 'I' for Inactive)
REMARK    1  A    between atoms: C_1  and  C_2
REMARK    2  A    between atoms: C_3  and  C_4
REMARK    3  A    between atoms: N_7  and  C_8
REMARK    4  A    between atoms: C_8  and  C_9
REMARK    5  A    between atoms: C_9  and  O_11
REMARK    6  A    between atoms: C_9  and  C_12
REMARK    7  A    between atoms: C_12  and  O_14
REMARK    8  A    between atoms: C_12  and  C_15
REMARK    9  A    between atoms: C_15  and  O_17
REMARK   10  A    between atoms: C_15  and  C_18
REMARK   11  A    between atoms: C_18  and  O_19
REMARK                            x       y       z     vdW  Elec       q    Type
REMARK                         _______ _______ _______ _____ _____    ______ ____
ROOT
ATOM      1  C   UNL     1      12.431   5.216  23.380  0.00  0.00    +0.044 C 
ATOM      2  C   UNL     1      11.200   4.372  23.568  0.00  0.00    -0.045 A 
ATOM      3  C   UNL     1      11.291   3.000  23.325  0.00  0.00    +0.033 A 
ATOM      4  C   UNL     1      10.201   2.144  23.527  0.00  0.00    +0.089 A 
ATOM      5  C   UNL     1       8.978   2.642  24.034  0.00  0.00    +0.069 A 
ATOM      6  N   UNL     1       7.930   1.730  24.350  0.00  0.00    -0.320 N 
ATOM      7  C   UNL     1       8.148   0.374  24.078  0.00  0.00    +0.170 A 
ATOM      8  C   UNL     1       9.431  -0.037  23.396  0.00  0.00    +0.171 A 
ATOM      9  C   UNL     1       9.600  -1.475  22.995  0.00  0.00    +0.282 A 
ATOM     10  O   UNL     1      10.575  -1.888  22.390  0.00  0.00    -0.265 OA
ATOM     11  N   UNL     1       8.566  -2.267  23.393  0.00  0.00    -0.272 N 
ATOM     12  H   UNL     1       8.643  -3.257  23.212  0.00  0.00    +0.174 HD
ATOM     13  C   UNL     1       7.499  -1.873  24.142  0.00  0.00    +0.351 A 
ATOM     14  O   UNL     1       6.725  -2.728  24.554  0.00  0.00    -0.245 OA
ATOM     15  N   UNL     1       7.301  -0.547  24.417  0.00  0.00    -0.173 NA
ATOM     16  C   UNL     1       8.861   4.038  24.154  0.00  0.00    +0.031 A 
ATOM     17  N   UNL     1      10.398   0.801  23.182  0.00  0.00    -0.237 NA
ATOM     18  C   UNL     1       9.950   4.908  23.917  0.00  0.00    -0.045 A 
ATOM     19  C   UNL     1       9.766   6.391  24.097  0.00  0.00    +0.044 C 
ENDROOT
BRANCH   6  20
ATOM     20  C   UNL     1       7.044   2.073  25.500  0.00  0.00    +0.158 C 
BRANCH  20  21
ATOM     21  C   UNL     1       5.589   2.377  25.070  0.00  0.00    +0.165 C 
BRANCH  21  22
ATOM     22  O   UNL     1       5.026   1.205  24.468  0.00  0.00    -0.387 OA
ATOM     23  H   UNL     1       5.490   1.078  23.621  0.00  0.00    +0.210 HD
ENDBRANCH  21  22
BRANCH  21  24
ATOM     24  C   UNL     1       5.490   3.594  24.104  0.00  0.00    +0.175 C 
BRANCH  24  25
ATOM     25  O   UNL     1       4.465   4.500  24.572  0.00  0.00    -0.387 OA
ATOM     26  H   UNL     1       3.854   4.653  23.827  0.00  0.00    +0.210 HD
ENDBRANCH  24  25
BRANCH  24  27
ATOM     27  C   UNL     1       5.214   3.253  22.619  0.00  0.00    +0.171 C 
BRANCH  27  28
ATOM     28  O   UNL     1       6.091   4.053  21.799  0.00  0.00    -0.387 OA
ATOM     29  H   UNL     1       5.514   4.712  21.359  0.00  0.00    +0.210 HD
ENDBRANCH  27  28
BRANCH  27  30
ATOM     30  C   UNL     1       3.777   3.510  22.145  0.00  0.00    +0.189 C 
BRANCH  30  31
ATOM     31  O   UNL     1       2.852   2.734  22.911  0.00  0.00    -0.392 OA
ATOM     32  H   UNL     1       3.403   2.135  23.464  0.00  0.00    +0.210 HD
ENDBRANCH  30  31
ENDBRANCH  27  30
ENDBRANCH  24  27
ENDBRANCH  21  24
ENDBRANCH  20  21
ENDBRANCH   6  20
TORSDOF 9
ENDMDL
MODEL 5
REMARK VINA RESULT:      -6.1      1.545      2.328
REMARK  Name = 
REMARK  11 active torsions:
REMARK  status: ('A' for Active; 'I' for Inactive)
REMARK    1  A    between atoms: C_1  and  C_2
REMARK    2  A    between atoms: C_3  and  C_4
REMARK    3  A    between atoms: N_7  and  C_8
REMARK    4  A    between atoms: C_8  and  C_9
REMARK    5  A    between atoms: C_9  and  O_11
REMARK    6  A    between atoms: C_9  and  C_12
REMARK    7  A    between atoms: C_12  and  O_14
REMARK    8  A    between atoms: C_12  and  C_15
REMARK    9  A    between atoms: C_15  and  O_17
REMARK   10  A    between atoms: C_15  and  C_18
REMARK   11  A    between atoms: C_18  and  O_19
REMARK                            x       y       z     vdW  Elec       q    Type
REMARK                         _______ _______ _______ _____ _____    ______ ____
ROOT
ATOM      1  C   UNL     1      10.145   0.222  22.201  0.00  0.00    +0.044 C 
ATOM      2  C   UNL     1       8.869  -0.424  22.665  0.00  0.00    -0.045 A 
ATOM      3  C   UNL     1       8.545  -1.689  22.169  0.00  0.00    +0.033 A 
ATOM      4  C   UNL     1       7.399  -2.373  22.594  0.00  0.00    +0.089 A 
ATOM      5  C   UNL     1       6.554  -1.820  23.585  0.00  0.00    +0.069 A 
ATOM      6  N   UNL     1       5.470  -2.594  24.089  0.00  0.00    -0.320 N 
ATOM      7  C   UNL     1       5.257  -3.857  23.524  0.00  0.00    +0.170 A 
ATOM      8  C   UNL     1       6.124  -4.295  22.367  0.00  0.00    +0.171 A 
ATOM      9  C   UNL     1       5.806  -5.595  21.686  0.00  0.00    +0.282 A 
ATOM     10  O   UNL     1       6.412  -6.002  20.709  0.00  0.00    -0.265 OA
ATOM     11  N   UNL     1       4.788  -6.277  22.281  0.00  0.00    -0.272 N 
ATOM     12  H   UNL     1       4.563  -7.189  21.914  0.00  0.00    +0.174 HD
ATOM     13  C   UNL     1       4.137  -5.908  23.420  0.00  0.00    +0.351 A 
ATOM     14  O   UNL     1       3.348  -6.698  23.924  0.00  0.00    -0.245 OA
ATOM     15  N   UNL     1       4.362  -4.679  23.976  0.00  0.00    -0.173 NA
ATOM     16  C   UNL     1       6.822  -0.498  23.982  0.00  0.00    +0.031 A 
ATOM     17  N   UNL     1       7.147  -3.603  21.972  0.00  0.00    -0.237 NA
ATOM     18  C   UNL     1       7.959   0.209  23.527  0.00  0.00    -0.045 A 
ATOM     19  C   UNL     1       8.204   1.611  24.019  0.00  0.00    +0.044 C 
ENDROOT
BRANCH   6  20
ATOM     20  C   UNL     1       5.098  -2.404  25.521  0.00  0.00    +0.158 C 
BRANCH  20  21
ATOM     21  C   UNL     1       5.315  -3.676  26.374  0.00  0.00    +0.165 C 
BRANCH  21  22
ATOM     22  O   UNL     1       4.365  -3.686  27.447  0.00  0.00    -0.387 OA
ATOM     23  H   UNL     1       3.535  -3.327  27.086  0.00  0.00    +0.210 HD
ENDBRANCH  21  22
BRANCH  21  24
ATOM     24  C   UNL     1       6.767  -3.791  26.923  0.00  0.00    +0.175 C 
BRANCH  24  25
ATOM     25  O   UNL     1       7.451  -2.529  26.747  0.00  0.00    -0.387 OA
ATOM     26  H   UNL     1       7.557  -2.132  27.633  0.00  0.00    +0.210 HD
ENDBRANCH  24  25
BRANCH  24  27
ATOM     27  C   UNL     1       7.632  -4.917  26.306  0.00  0.00    +0.171 C 
BRANCH  27  28
ATOM     28  O   UNL     1       8.056  -5.797  27.369  0.00  0.00    -0.387 OA
ATOM     29  H   UNL     1       8.530  -6.534  26.930  0.00  0.00    +0.210 HD
ENDBRANCH  27  28
BRANCH  27  30
ATOM     30  C   UNL     1       8.892  -4.445  25.568  0.00  0.00    +0.189 C 
BRANCH  30  31
ATOM     31  O   UNL     1       8.917  -4.969  24.239  0.00  0.00    -0.392 OA
ATOM     32  H   UNL     1       9.162  -4.212  23.659  0.00  0.00    +0.210 HD
ENDBRANCH  30  31
ENDBRANCH  27  30
ENDBRANCH  24  27
ENDBRANCH  21  24
ENDBRANCH  20  21
ENDBRANCH   6  20
TORSDOF 9
ENDMDL
MODEL 6
REMARK VINA RESULT:      -6.1      2.925      4.723
REMARK  Name = 
REMARK  11 active torsions:
REMARK  status: ('A' for Active; 'I' for Inactive)
REMARK    1  A    between atoms: C_1  and  C_2
REMARK    2  A    between atoms: C_3  and  C_4
REMARK    3  A    between atoms: N_7  and  C_8
REMARK    4  A    between atoms: C_8  and  C_9
REMARK    5  A    between atoms: C_9  and  O_11
REMARK    6  A    between atoms: C_9  and  C_12
REMARK    7  A    between atoms: C_12  and  O_14
REMARK    8  A    between atoms: C_12  and  C_15
REMARK    9  A    between atoms: C_15  and  O_17
REMARK   10  A    between atoms: C_15  and  C_18
REMARK   11  A    between atoms: C_18  and  O_19
REMARK                            x       y       z     vdW  Elec       q    Type
REMARK                         _______ _______ _______ _____ _____    ______ ____
ROOT
ATOM      1  C   UNL     1      10.009   1.397  21.973  0.00  0.00    +0.044 C 
ATOM      2  C   UNL     1       9.071   0.447  22.667  0.00  0.00    -0.045 A 
ATOM      3  C   UNL     1       9.598  -0.724  23.218  0.00  0.00    +0.033 A 
ATOM      4  C   UNL     1       8.795  -1.629  23.922  0.00  0.00    +0.089 A 
ATOM      5  C   UNL     1       7.424  -1.359  24.140  0.00  0.00    +0.069 A 
ATOM      6  N   UNL     1       6.663  -2.235  24.968  0.00  0.00    -0.320 N 
ATOM      7  C   UNL     1       7.308  -3.367  25.478  0.00  0.00    +0.170 A 
ATOM      8  C   UNL     1       8.734  -3.645  25.064  0.00  0.00    +0.171 A 
ATOM      9  C   UNL     1       9.374  -4.927  25.514  0.00  0.00    +0.282 A 
ATOM     10  O   UNL     1      10.498  -5.263  25.182  0.00  0.00    -0.265 OA
ATOM     11  N   UNL     1       8.579  -5.660  26.342  0.00  0.00    -0.272 N 
ATOM     12  H   UNL     1       8.971  -6.504  26.734  0.00  0.00    +0.174 HD
ATOM     13  C   UNL     1       7.355  -5.291  26.810  0.00  0.00    +0.351 A 
ATOM     14  O   UNL     1       6.824  -5.982  27.670  0.00  0.00    -0.245 OA
ATOM     15  N   UNL     1       6.737  -4.173  26.318  0.00  0.00    -0.173 NA
ATOM     16  C   UNL     1       6.882  -0.245  23.476  0.00  0.00    +0.031 A 
ATOM     17  N   UNL     1       9.426  -2.799  24.366  0.00  0.00    -0.237 NA
ATOM     18  C   UNL     1       7.684   0.652  22.734  0.00  0.00    -0.045 A 
ATOM     19  C   UNL     1       7.044   1.845  22.076  0.00  0.00    +0.044 C 
ENDROOT
BRANCH   6  20
ATOM     20  C   UNL     1       5.572  -1.631  25.787  0.00  0.00    +0.158 C 
BRANCH  20  21
ATOM     21  C   UNL     1       6.044  -1.196  27.194  0.00  0.00    +0.165 C 
BRANCH  21  22
ATOM     22  O   UNL     1       4.924  -1.213  28.088  0.00  0.00    -0.387 OA
ATOM     23  H   UNL     1       4.943  -2.076  28.540  0.00  0.00    +0.210 HD
ENDBRANCH  21  22
BRANCH  21  24
ATOM     24  C   UNL     1       6.727   0.203  27.193  0.00  0.00    +0.175 C 
BRANCH  24  25
ATOM     25  O   UNL     1       8.103   0.070  27.615  0.00  0.00    -0.387 OA
ATOM     26  H   UNL     1       8.219  -0.844  27.937  0.00  0.00    +0.210 HD
ENDBRANCH  24  25
BRANCH  24  27
ATOM     27  C   UNL     1       6.041   1.286  28.063  0.00  0.00    +0.171 C 
BRANCH  27  28
ATOM     28  O   UNL     1       4.797   1.654  27.432  0.00  0.00    -0.387 OA
ATOM     29  H   UNL     1       4.580   2.546  27.773  0.00  0.00    +0.210 HD
ENDBRANCH  27  28
BRANCH  27  30
ATOM     30  C   UNL     1       6.853   2.573  28.266  0.00  0.00    +0.189 C 
BRANCH  30  31
ATOM     31  O   UNL     1       7.795   2.406  29.328  0.00  0.00    -0.392 OA
ATOM     32  H   UNL     1       8.674   2.615  28.938  0.00  0.00    +0.210 HD
ENDBRANCH  30  31
ENDBRANCH  27  30
ENDBRANCH  24  27
ENDBRANCH  21  24
ENDBRANCH  20  21
ENDBRANCH   6  20
TORSDOF 9
ENDMDL
MODEL 7
REMARK VINA RESULT:      -6.1      3.805      6.714
REMARK  Name = 
REMARK  11 active torsions:
REMARK  status: ('A' for Active; 'I' for Inactive)
REMARK    1  A    between atoms: C_1  and  C_2
REMARK    2  A    between atoms: C_3  and  C_4
REMARK    3  A    between atoms: N_7  and  C_8
REMARK    4  A    between atoms: C_8  and  C_9
REMARK    5  A    between atoms: C_9  and  O_11
REMARK    6  A    between atoms: C_9  and  C_12
REMARK    7  A    between atoms: C_12  and  O_14
REMARK    8  A    between atoms: C_12  and  C_15
REMARK    9  A    between atoms: C_15  and  O_17
REMARK   10  A    between atoms: C_15  and  C_18
REMARK   11  A    between atoms: C_18  and  O_19
REMARK                            x       y       z     vdW  Elec       q    Type
REMARK                         _______ _______ _______ _____ _____    ______ ____
ROOT
ATOM      1  C   UNL     1       2.119  -0.292  27.781  0.00  0.00    +0.044 C 
ATOM      2  C   UNL     1       3.538  -0.575  27.371  0.00  0.00    -0.045 A 
ATOM      3  C   UNL     1       4.015  -1.883  27.484  0.00  0.00    +0.033 A 
ATOM      4  C   UNL     1       5.308  -2.231  27.074  0.00  0.00    +0.089 A 
ATOM      5  C   UNL     1       6.161  -1.269  26.484  0.00  0.00    +0.069 A 
ATOM      6  N   UNL     1       7.420  -1.681  25.961  0.00  0.00    -0.320 N 
ATOM      7  C   UNL     1       7.780  -3.025  26.119  0.00  0.00    +0.170 A 
ATOM      8  C   UNL     1       6.864  -3.939  26.898  0.00  0.00    +0.171 A 
ATOM      9  C   UNL     1       7.318  -5.344  27.170  0.00  0.00    +0.282 A 
ATOM     10  O   UNL     1       6.674  -6.135  27.839  0.00  0.00    -0.265 OA
ATOM     11  N   UNL     1       8.508  -5.647  26.580  0.00  0.00    -0.272 N 
ATOM     12  H   UNL     1       8.842  -6.595  26.669  0.00  0.00    +0.174 HD
ATOM     13  C   UNL     1       9.223  -4.831  25.757  0.00  0.00    +0.351 A 
ATOM     14  O   UNL     1      10.197  -5.293  25.177  0.00  0.00    -0.245 OA
ATOM     15  N   UNL     1       8.857  -3.522  25.595  0.00  0.00    -0.173 NA
ATOM     16  C   UNL     1       5.717   0.065  26.491  0.00  0.00    +0.031 A 
ATOM     17  N   UNL     1       5.693  -3.558  27.303  0.00  0.00    -0.237 NA
ATOM     18  C   UNL     1       4.424   0.425  26.937  0.00  0.00    -0.045 A 
ATOM     19  C   UNL     1       3.999   1.868  26.886  0.00  0.00    +0.044 C 
ENDROOT
BRANCH   6  20
ATOM     20  C   UNL     1       7.933  -0.963  24.757  0.00  0.00    +0.158 C 
BRANCH  20  21
ATOM     21  C   UNL     1       9.313  -0.303  24.991  0.00  0.00    +0.165 C 
BRANCH  21  22
ATOM     22  O   UNL     1       9.129   0.915  25.723  0.00  0.00    -0.387 OA
ATOM     23  H   UNL     1       8.882   1.596  25.072  0.00  0.00    +0.210 HD
ENDBRANCH  21  22
BRANCH  21  24
ATOM     24  C   UNL     1      10.083  -0.038  23.664  0.00  0.00    +0.175 C 
BRANCH  24  25
ATOM     25  O   UNL     1      10.828   1.197  23.777  0.00  0.00    -0.387 OA
ATOM     26  H   UNL     1      11.716   0.968  24.111  0.00  0.00    +0.210 HD
ENDBRANCH  24  25
BRANCH  24  27
ATOM     27  C   UNL     1       9.215   0.018  22.383  0.00  0.00    +0.171 C 
BRANCH  27  28
ATOM     28  O   UNL     1       9.968  -0.567  21.300  0.00  0.00    -0.387 OA
ATOM     29  H   UNL     1      10.878  -0.688  21.644  0.00  0.00    +0.210 HD
ENDBRANCH  27  28
BRANCH  27  30
ATOM     30  C   UNL     1       8.790   1.425  21.941  0.00  0.00    +0.189 C 
BRANCH  30  31
ATOM     31  O   UNL     1       9.896   2.123  21.365  0.00  0.00    -0.392 OA
ATOM     32  H   UNL     1      10.235   1.540  20.648  0.00  0.00    +0.210 HD
ENDBRANCH  30  31
ENDBRANCH  27  30
ENDBRANCH  24  27
ENDBRANCH  21  24
ENDBRANCH  20  21
ENDBRANCH   6  20
TORSDOF 9
ENDMDL
MODEL 8
REMARK VINA RESULT:      -6.0      2.770      4.634
REMARK  Name = 
REMARK  11 active torsions:
REMARK  status: ('A' for Active; 'I' for Inactive)
REMARK    1  A    between atoms: C_1  and  C_2
REMARK    2  A    between atoms: C_3  and  C_4
REMARK    3  A    between atoms: N_7  and  C_8
REMARK    4  A    between atoms: C_8  and  C_9
REMARK    5  A    between atoms: C_9  and  O_11
REMARK    6  A    between atoms: C_9  and  C_12
REMARK    7  A    between atoms: C_12  and  O_14
REMARK    8  A    between atoms: C_12  and  C_15
REMARK    9  A    between atoms: C_15  and  O_17
REMARK   10  A    between atoms: C_15  and  C_18
REMARK   11  A    between atoms: C_18  and  O_19
REMARK                            x       y       z     vdW  Elec       q    Type
REMARK                         _______ _______ _______ _____ _____    ______ ____
ROOT
ATOM      1  C   UNL     1       7.242   3.514  22.414  0.00  0.00    +0.044 C 
ATOM      2  C   UNL     1       7.207   2.080  22.868  0.00  0.00    -0.045 A 
ATOM      3  C   UNL     1       6.260   1.709  23.827  0.00  0.00    +0.033 A 
ATOM      4  C   UNL     1       6.136   0.384  24.261  0.00  0.00    +0.089 A 
ATOM      5  C   UNL     1       6.938  -0.637  23.701  0.00  0.00    +0.069 A 
ATOM      6  N   UNL     1       6.700  -1.993  24.068  0.00  0.00    -0.320 N 
ATOM      7  C   UNL     1       5.711  -2.240  25.028  0.00  0.00    +0.170 A 
ATOM      8  C   UNL     1       5.013  -1.068  25.676  0.00  0.00    +0.171 A 
ATOM      9  C   UNL     1       4.046  -1.339  26.793  0.00  0.00    +0.282 A 
ATOM     10  O   UNL     1       3.481  -0.454  27.414  0.00  0.00    -0.265 OA
ATOM     11  N   UNL     1       3.854  -2.667  27.025  0.00  0.00    -0.272 N 
ATOM     12  H   UNL     1       3.168  -2.922  27.720  0.00  0.00    +0.174 HD
ATOM     13  C   UNL     1       4.394  -3.691  26.307  0.00  0.00    +0.351 A 
ATOM     14  O   UNL     1       4.010  -4.831  26.533  0.00  0.00    -0.245 OA
ATOM     15  N   UNL     1       5.349  -3.440  25.360  0.00  0.00    -0.173 NA
ATOM     16  C   UNL     1       7.967  -0.233  22.832  0.00  0.00    +0.031 A 
ATOM     17  N   UNL     1       5.198   0.152  25.276  0.00  0.00    -0.237 NA
ATOM     18  C   UNL     1       8.118   1.111  22.419  0.00  0.00    -0.045 A 
ATOM     19  C   UNL     1       9.221   1.471  21.460  0.00  0.00    +0.044 C 
ENDROOT
BRANCH   6  20
ATOM     20  C   UNL     1       6.935  -3.038  23.030  0.00  0.00    +0.158 C 
BRANCH  20  21
ATOM     21  C   UNL     1       8.037  -4.048  23.429  0.00  0.00    +0.165 C 
BRANCH  21  22
ATOM     22  O   UNL     1       7.421  -5.216  23.985  0.00  0.00    -0.387 OA
ATOM     23  H   UNL     1       7.921  -5.981  23.648  0.00  0.00    +0.210 HD
ENDBRANCH  21  22
BRANCH  21  24
ATOM     24  C   UNL     1       9.072  -3.445  24.424  0.00  0.00    +0.175 C 
BRANCH  24  25
ATOM     25  O   UNL     1      10.237  -2.995  23.696  0.00  0.00    -0.387 OA
ATOM     26  H   UNL     1      10.617  -3.775  23.250  0.00  0.00    +0.210 HD
ENDBRANCH  24  25
BRANCH  24  27
ATOM     27  C   UNL     1       9.530  -4.383  25.568  0.00  0.00    +0.171 C 
BRANCH  27  28
ATOM     28  O   UNL     1       9.884  -5.658  24.994  0.00  0.00    -0.387 OA
ATOM     29  H   UNL     1      10.583  -6.026  25.575  0.00  0.00    +0.210 HD
ENDBRANCH  27  28
BRANCH  27  30
ATOM     30  C   UNL     1       8.483  -4.643  26.660  0.00  0.00    +0.189 C 
BRANCH  30  31
ATOM     31  O   UNL     1       8.232  -6.044  26.787  0.00  0.00    -0.392 OA
ATOM     32  H   UNL     1       8.941  -6.389  27.377  0.00  0.00    +0.210 HD
ENDBRANCH  30  31
ENDBRANCH  27  30
ENDBRANCH  24  27
ENDBRANCH  21  24
ENDBRANCH  20  21
ENDBRANCH   6  20
TORSDOF 9
ENDMDL
MODEL 9
REMARK VINA RESULT:      -6.0      4.162      6.041
REMARK  Name = 
REMARK  11 active torsions:
REMARK  status: ('A' for Active; 'I' for Inactive)
REMARK    1  A    between atoms: C_1  and  C_2
REMARK    2  A    between atoms: C_3  and  C_4
REMARK    3  A    between atoms: N_7  and  C_8
REMARK    4  A    between atoms: C_8  and  C_9
REMARK    5  A    between atoms: C_9  and  O_11
REMARK    6  A    between atoms: C_9  and  C_12
REMARK    7  A    between atoms: C_12  and  O_14
REMARK    8  A    between atoms: C_12  and  C_15
REMARK    9  A    between atoms: C_15  and  O_17
REMARK   10  A    between atoms: C_15  and  C_18
REMARK   11  A    between atoms: C_18  and  O_19
REMARK                            x       y       z     vdW  Elec       q    Type
REMARK                         _______ _______ _______ _____ _____    ______ ____
ROOT
ATOM      1  C   UNL     1      12.108   5.238  23.728  0.00  0.00    +0.044 C 
ATOM      2  C   UNL     1      10.860   4.414  23.566  0.00  0.00    -0.045 A 
ATOM      3  C   UNL     1      10.994   3.051  23.287  0.00  0.00    +0.033 A 
ATOM      4  C   UNL     1       9.879   2.212  23.173  0.00  0.00    +0.089 A 
ATOM      5  C   UNL     1       8.574   2.714  23.387  0.00  0.00    +0.069 A 
ATOM      6  N   UNL     1       7.471   1.812  23.391  0.00  0.00    -0.320 N 
ATOM      7  C   UNL     1       7.735   0.465  23.115  0.00  0.00    +0.170 A 
ATOM      8  C   UNL     1       9.143   0.056  22.750  0.00  0.00    +0.171 A 
ATOM      9  C   UNL     1       9.390  -1.365  22.333  0.00  0.00    +0.282 A 
ATOM     10  O   UNL     1      10.480  -1.772  21.966  0.00  0.00    -0.265 OA
ATOM     11  N   UNL     1       8.282  -2.152  22.425  0.00  0.00    -0.272 N 
ATOM     12  H   UNL     1       8.391  -3.134  22.221  0.00  0.00    +0.174 HD
ATOM     13  C   UNL     1       7.067  -1.768  22.908  0.00  0.00    +0.351 A 
ATOM     14  O   UNL     1       6.208  -2.624  23.075  0.00  0.00    -0.245 OA
ATOM     15  N   UNL     1       6.821  -0.452  23.190  0.00  0.00    -0.173 NA
ATOM     16  C   UNL     1       8.445   4.105  23.543  0.00  0.00    +0.031 A 
ATOM     17  N   UNL     1      10.140   0.882  22.822  0.00  0.00    -0.237 NA
ATOM     18  C   UNL     1       9.568   4.961  23.623  0.00  0.00    -0.045 A 
ATOM     19  C   UNL     1       9.360   6.438  23.825  0.00  0.00    +0.044 C 
ENDROOT
BRANCH   6  20
ATOM     20  C   UNL     1       6.332   2.122  24.304  0.00  0.00    +0.158 C 
BRANCH  20  21
ATOM     21  C   UNL     1       6.080   1.012  25.352  0.00  0.00    +0.165 C 
BRANCH  21  22
ATOM     22  O   UNL     1       4.672   0.757  25.432  0.00  0.00    -0.387 OA
ATOM     23  H   UNL     1       4.464   0.126  24.719  0.00  0.00    +0.210 HD
ENDBRANCH  21  22
BRANCH  21  24
ATOM     24  C   UNL     1       6.655   1.368  26.754  0.00  0.00    +0.175 C 
BRANCH  24  25
ATOM     25  O   UNL     1       7.600   2.456  26.627  0.00  0.00    -0.387 OA
ATOM     26  H   UNL     1       8.053   2.345  25.770  0.00  0.00    +0.210 HD
ENDBRANCH  24  25
BRANCH  24  27
ATOM     27  C   UNL     1       7.335   0.204  27.517  0.00  0.00    +0.171 C 
BRANCH  27  28
ATOM     28  O   UNL     1       8.108   0.762  28.600  0.00  0.00    -0.387 OA
ATOM     29  H   UNL     1       7.775   0.331  29.414  0.00  0.00    +0.210 HD
ENDBRANCH  27  28
BRANCH  27  30
ATOM     30  C   UNL     1       8.280  -0.666  26.677  0.00  0.00    +0.189 C 
BRANCH  30  31
ATOM     31  O   UNL     1       9.418   0.091  26.261  0.00  0.00    -0.392 OA
ATOM     32  H   UNL     1      10.072   0.012  26.993  0.00  0.00    +0.210 HD
ENDBRANCH  30  31
ENDBRANCH  27  30
ENDBRANCH  24  27
ENDBRANCH  21  24
ENDBRANCH  20  21
ENDBRANCH   6  20
TORSDOF 9
ENDMDL
