MODEL 1
REMARK VINA RESULT:      -7.7      0.000      0.000
REMARK  Name = 
REMARK  9 active torsions:
REMARK  status: ('A' for Active; 'I' for Inactive)
REMARK    1  A    between atoms: C_1  and  O_2
REMARK    2  A    between atoms: O_2  and  C_3
REMARK    3  A    between atoms: C_3  and  C_5
REMARK    4  A    between atoms: C_11  and  S_13
REMARK    5  A    between atoms: S_13  and  N_16
REMARK    6  A    between atoms: N_19  and  C_20
REMARK    7  A    between atoms: C_23  and  C_24
REMARK    8  A    between atoms: C_26  and  O_27
REMARK    9  A    between atoms: O_27  and  C_28
REMARK                            x       y       z     vdW  Elec       q    Type
REMARK                         _______ _______ _______ _____ _____    ______ ____
ROOT
ATOM      1  N   UNL     1       7.645  -5.006  25.315  0.00  0.00    -0.173 N 
ATOM      2  H   UNL     1       7.062  -4.771  24.514  0.00  0.00    +0.178 HD
ATOM      3  C   UNL     1       6.987  -5.614  26.395  0.00  0.00    +0.327 C 
ATOM      4  N   UNL     1       5.663  -6.002  26.227  0.00  0.00    -0.226 N 
ATOM      5  C   UNL     1       4.938  -5.947  25.012  0.00  0.00    +0.231 A 
ATOM      6  N   UNL     1       5.588  -5.671  23.882  0.00  0.00    -0.161 NA
ATOM      7  C   UNL     1       4.842  -5.710  22.780  0.00  0.00    +0.322 A 
ATOM      8  N   UNL     1       3.533  -5.909  22.732  0.00  0.00    -0.180 NA
ATOM      9  C   UNL     1       2.964  -6.126  23.910  0.00  0.00    +0.135 A 
ATOM     10  C   UNL     1       1.476  -6.294  23.941  0.00  0.00    +0.088 C 
ATOM     11  N   UNL     1       3.628  -6.191  25.064  0.00  0.00    -0.199 NA
ATOM     12  C   UNL     1       4.952  -6.562  27.370  0.00  0.00    +0.143 C 
ATOM     13  O   UNL     1       7.562  -5.791  27.462  0.00  0.00    -0.251 OA
ENDROOT
BRANCH   1  14
ATOM     14  S   UNL     1       9.051  -4.135  25.385  0.00  0.00    +0.050 S 
ATOM     15  O   UNL     1       8.912  -3.324  26.578  0.00  0.00    -0.155 OA
ATOM     16  O   UNL     1      10.188  -5.010  25.235  0.00  0.00    -0.155 OA
BRANCH  14  18
ATOM     17  C   UNL     1       9.822  -1.725  24.122  0.00  0.00    +0.124 C 
ATOM     18  C   UNL     1       8.965  -2.991  23.972  0.00  0.00    +0.165 C 
ATOM     19  C   UNL     1       7.491  -2.668  23.656  0.00  0.00    +0.029 C 
ATOM     20  C   UNL     1       6.869  -1.637  24.596  0.00  0.00    +0.002 C 
ATOM     21  C   UNL     1       7.742  -0.405  24.801  0.00  0.00    +0.001 C 
ATOM     22  C   UNL     1       9.203  -0.729  25.107  0.00  0.00    +0.016 C 
BRANCH  17  23
ATOM     23  C   UNL     1      10.061  -1.076  22.755  0.00  0.00    +0.312 C 
ATOM     24  O   UNL     1      10.013  -1.661  21.681  0.00  0.00    -0.250 OA
BRANCH  23  26
ATOM     25  C   UNL     1       9.847   1.113  21.910  0.00  0.00    +0.280 C 
ATOM     26  O   UNL     1      10.396   0.237  22.900  0.00  0.00    -0.468 OA
ENDBRANCH  23  26
ENDBRANCH  17  23
ENDBRANCH  14  18
ENDBRANCH   1  14
BRANCH   7  27
ATOM     27  O   UNL     1       5.428  -5.517  21.548  0.00  0.00    -0.466 OA
ATOM     28  C   UNL     1       6.821  -5.791  21.520  0.00  0.00    +0.280 C 
ENDBRANCH   7  27
TORSDOF 5
ENDMDL
MODEL 2
REMARK VINA RESULT:      -7.1      1.360      2.300
REMARK  Name = 
REMARK  9 active torsions:
REMARK  status: ('A' for Active; 'I' for Inactive)
REMARK    1  A    between atoms: C_1  and  O_2
REMARK    2  A    between atoms: O_2  and  C_3
REMARK    3  A    between atoms: C_3  and  C_5
REMARK    4  A    between atoms: C_11  and  S_13
REMARK    5  A    between atoms: S_13  and  N_16
REMARK    6  A    between atoms: N_19  and  C_20
REMARK    7  A    between atoms: C_23  and  C_24
REMARK    8  A    between atoms: C_26  and  O_27
REMARK    9  A    between atoms: O_27  and  C_28
REMARK                            x       y       z     vdW  Elec       q    Type
REMARK                         _______ _______ _______ _____ _____    ______ ____
ROOT
ATOM      1  N   UNL     1       7.489  -4.868  25.397  0.00  0.00    -0.173 N 
ATOM      2  H   UNL     1       6.881  -4.622  24.619  0.00  0.00    +0.178 HD
ATOM      3  C   UNL     1       6.893  -5.594  26.438  0.00  0.00    +0.327 C 
ATOM      4  N   UNL     1       5.598  -6.066  26.255  0.00  0.00    -0.226 N 
ATOM      5  C   UNL     1       4.855  -5.982  25.053  0.00  0.00    +0.231 A 
ATOM      6  N   UNL     1       5.468  -5.583  23.939  0.00  0.00    -0.161 NA
ATOM      7  C   UNL     1       4.712  -5.603  22.843  0.00  0.00    +0.322 A 
ATOM      8  N   UNL     1       3.420  -5.894  22.792  0.00  0.00    -0.180 NA
ATOM      9  C   UNL     1       2.884  -6.232  23.957  0.00  0.00    +0.135 A 
ATOM     10  C   UNL     1       1.413  -6.510  23.989  0.00  0.00    +0.088 C 
ATOM     11  N   UNL     1       3.567  -6.325  25.098  0.00  0.00    -0.199 NA
ATOM     12  C   UNL     1       4.945  -6.753  27.363  0.00  0.00    +0.143 C 
ATOM     13  O   UNL     1       7.493  -5.801  27.486  0.00  0.00    -0.251 OA
ENDROOT
BRANCH   1  14
ATOM     14  S   UNL     1       8.829  -3.902  25.515  0.00  0.00    +0.050 S 
ATOM     15  O   UNL     1       9.056  -3.775  26.941  0.00  0.00    -0.155 OA
ATOM     16  O   UNL     1       9.879  -4.397  24.659  0.00  0.00    -0.155 OA
BRANCH  14  18
ATOM     17  C   UNL     1       7.233  -2.305  23.812  0.00  0.00    +0.124 C 
ATOM     18  C   UNL     1       8.282  -2.266  24.934  0.00  0.00    +0.165 C 
ATOM     19  C   UNL     1       9.510  -1.412  24.561  0.00  0.00    +0.029 C 
ATOM     20  C   UNL     1      10.109  -1.753  23.198  0.00  0.00    +0.002 C 
ATOM     21  C   UNL     1       9.067  -1.856  22.091  0.00  0.00    +0.001 C 
ATOM     22  C   UNL     1       7.850  -2.698  22.466  0.00  0.00    +0.016 C 
BRANCH  17  23
ATOM     23  C   UNL     1       6.504  -0.960  23.716  0.00  0.00    +0.312 C 
ATOM     24  O   UNL     1       6.826  -0.037  22.980  0.00  0.00    -0.250 OA
BRANCH  23  26
ATOM     25  C   UNL     1       5.546   0.172  25.547  0.00  0.00    +0.280 C 
ATOM     26  O   UNL     1       5.477  -0.909  24.610  0.00  0.00    -0.468 OA
ENDBRANCH  23  26
ENDBRANCH  17  23
ENDBRANCH  14  18
ENDBRANCH   1  14
BRANCH   7  27
ATOM     27  O   UNL     1       5.266  -5.284  21.623  0.00  0.00    -0.466 OA
ATOM     28  C   UNL     1       6.523  -5.897  21.378  0.00  0.00    +0.280 C 
ENDBRANCH   7  27
TORSDOF 5
ENDMDL
MODEL 3
REMARK VINA RESULT:      -6.9      2.225      3.227
REMARK  Name = 
REMARK  9 active torsions:
REMARK  status: ('A' for Active; 'I' for Inactive)
REMARK    1  A    between atoms: C_1  and  O_2
REMARK    2  A    between atoms: O_2  and  C_3
REMARK    3  A    between atoms: C_3  and  C_5
REMARK    4  A    between atoms: C_11  and  S_13
REMARK    5  A    between atoms: S_13  and  N_16
REMARK    6  A    between atoms: N_19  and  C_20
REMARK    7  A    between atoms: C_23  and  C_24
REMARK    8  A    between atoms: C_26  and  O_27
REMARK    9  A    between atoms: O_27  and  C_28
REMARK                            x       y       z     vdW  Elec       q    Type
REMARK                         _______ _______ _______ _____ _____    ______ ____
ROOT
ATOM      1  N   UNL     1       7.721  -2.708  23.944  0.00  0.00    -0.173 N 
ATOM      2  H   UNL     1       7.069  -3.042  23.238  0.00  0.00    +0.178 HD
ATOM      3  C   UNL     1       7.260  -2.736  25.268  0.00  0.00    +0.327 C 
ATOM      4  N   UNL     1       6.050  -3.368  25.531  0.00  0.00    -0.226 N 
ATOM      5  C   UNL     1       5.282  -4.097  24.592  0.00  0.00    +0.231 A 
ATOM      6  N   UNL     1       5.807  -4.371  23.399  0.00  0.00    -0.161 NA
ATOM      7  C   UNL     1       5.045  -5.121  22.607  0.00  0.00    +0.322 A 
ATOM      8  N   UNL     1       3.812  -5.530  22.871  0.00  0.00    -0.180 NA
ATOM      9  C   UNL     1       3.354  -5.168  24.062  0.00  0.00    +0.135 A 
ATOM     10  C   UNL     1       1.943  -5.537  24.403  0.00  0.00    +0.088 C 
ATOM     11  N   UNL     1       4.063  -4.489  24.964  0.00  0.00    -0.199 NA
ATOM     12  C   UNL     1       5.528  -3.332  26.893  0.00  0.00    +0.143 C 
ATOM     13  O   UNL     1       7.903  -2.212  26.170  0.00  0.00    -0.251 OA
ENDROOT
BRANCH   1  14
ATOM     14  S   UNL     1       8.899  -1.717  23.336  0.00  0.00    +0.050 S 
ATOM     15  O   UNL     1      10.040  -1.941  24.201  0.00  0.00    -0.155 OA
ATOM     16  O   UNL     1       9.026  -1.907  21.911  0.00  0.00    -0.155 OA
BRANCH  14  18
ATOM     17  C   UNL     1       7.970   0.797  22.431  0.00  0.00    +0.124 C 
ATOM     18  C   UNL     1       8.316  -0.027  23.680  0.00  0.00    +0.165 C 
ATOM     19  C   UNL     1       9.327   0.692  24.596  0.00  0.00    +0.029 C 
ATOM     20  C   UNL     1      10.562   1.212  23.864  0.00  0.00    +0.002 C 
ATOM     21  C   UNL     1      10.230   1.977  22.589  0.00  0.00    +0.001 C 
ATOM     22  C   UNL     1       9.224   1.264  21.687  0.00  0.00    +0.016 C 
BRANCH  17  23
ATOM     23  C   UNL     1       7.073   1.982  22.804  0.00  0.00    +0.312 C 
ATOM     24  O   UNL     1       6.400   2.060  23.823  0.00  0.00    -0.250 OA
BRANCH  23  26
ATOM     25  C   UNL     1       7.160   4.274  22.264  0.00  0.00    +0.280 C 
ATOM     26  O   UNL     1       7.081   2.917  21.813  0.00  0.00    -0.468 OA
ENDBRANCH  23  26
ENDBRANCH  17  23
ENDBRANCH  14  18
ENDBRANCH   1  14
BRANCH   7  27
ATOM     27  O   UNL     1       5.522  -5.529  21.381  0.00  0.00    -0.466 OA
ATOM     28  C   UNL     1       6.896  -5.890  21.384  0.00  0.00    +0.280 C 
ENDBRANCH   7  27
TORSDOF 5
ENDMDL
MODEL 4
REMARK VINA RESULT:      -6.8      3.067      6.862
REMARK  Name = 
REMARK  9 active torsions:
REMARK  status: ('A' for Active; 'I' for Inactive)
REMARK    1  A    between atoms: C_1  and  O_2
REMARK    2  A    between atoms: O_2  and  C_3
REMARK    3  A    between atoms: C_3  and  C_5
REMARK    4  A    between atoms: C_11  and  S_13
REMARK    5  A    between atoms: S_13  and  N_16
REMARK    6  A    between atoms: N_19  and  C_20
REMARK    7  A    between atoms: C_23  and  C_24
REMARK    8  A    between atoms: C_26  and  O_27
REMARK    9  A    between atoms: O_27  and  C_28
REMARK                            x       y       z     vdW  Elec       q    Type
REMARK                         _______ _______ _______ _____ _____    ______ ____
ROOT
ATOM      1  N   UNL     1       8.012  -2.922  24.470  0.00  0.00    -0.173 N 
ATOM      2  H   UNL     1       7.176  -2.359  24.331  0.00  0.00    +0.178 HD
ATOM      3  C   UNL     1       9.204  -2.391  23.955  0.00  0.00    +0.327 C 
ATOM      4  N   UNL     1       9.188  -1.090  23.467  0.00  0.00    -0.226 N 
ATOM      5  C   UNL     1       8.095  -0.194  23.547  0.00  0.00    +0.231 A 
ATOM      6  N   UNL     1       7.041  -0.524  24.292  0.00  0.00    -0.161 NA
ATOM      7  C   UNL     1       6.092   0.406  24.368  0.00  0.00    +0.322 A 
ATOM      8  N   UNL     1       6.075   1.557  23.712  0.00  0.00    -0.180 NA
ATOM      9  C   UNL     1       7.142   1.778  22.957  0.00  0.00    +0.135 A 
ATOM     10  C   UNL     1       7.163   3.029  22.135  0.00  0.00    +0.088 C 
ATOM     11  N   UNL     1       8.186   0.953  22.873  0.00  0.00    -0.199 NA
ATOM     12  C   UNL     1      10.404  -0.561  22.859  0.00  0.00    +0.143 C 
ATOM     13  O   UNL     1      10.231  -3.059  23.929  0.00  0.00    -0.251 OA
ENDROOT
BRANCH   1  14
ATOM     14  S   UNL     1       7.689  -4.523  24.746  0.00  0.00    +0.050 S 
ATOM     15  O   UNL     1       8.569  -5.229  23.837  0.00  0.00    -0.155 OA
ATOM     16  O   UNL     1       7.732  -4.805  26.159  0.00  0.00    -0.155 OA
BRANCH  14  18
ATOM     17  C   UNL     1       5.740  -6.161  23.513  0.00  0.00    +0.124 C 
ATOM     18  C   UNL     1       5.997  -4.774  24.121  0.00  0.00    +0.165 C 
ATOM     19  C   UNL     1       5.628  -3.631  23.154  0.00  0.00    +0.029 C 
ATOM     20  C   UNL     1       6.223  -3.789  21.756  0.00  0.00    +0.002 C 
ATOM     21  C   UNL     1       6.028  -5.182  21.171  0.00  0.00    +0.001 C 
ATOM     22  C   UNL     1       6.389  -6.311  22.135  0.00  0.00    +0.016 C 
BRANCH  17  23
ATOM     23  C   UNL     1       4.236  -6.447  23.452  0.00  0.00    +0.312 C 
ATOM     24  O   UNL     1       3.424  -5.804  22.799  0.00  0.00    -0.250 OA
BRANCH  23  26
ATOM     25  C   UNL     1       2.824  -7.226  25.170  0.00  0.00    +0.280 C 
ATOM     26  O   UNL     1       3.912  -7.483  24.276  0.00  0.00    -0.468 OA
ENDBRANCH  23  26
ENDBRANCH  17  23
ENDBRANCH  14  18
ENDBRANCH   1  14
BRANCH   7  27
ATOM     27  O   UNL     1       4.993   0.201  25.174  0.00  0.00    -0.466 OA
ATOM     28  C   UNL     1       5.223  -0.699  26.248  0.00  0.00    +0.280 C 
ENDBRANCH   7  27
TORSDOF 5
ENDMDL
MODEL 5
REMARK VINA RESULT:      -6.8      3.527      7.093
REMARK  Name = 
REMARK  9 active torsions:
REMARK  status: ('A' for Active; 'I' for Inactive)
REMARK    1  A    between atoms: C_1  and  O_2
REMARK    2  A    between atoms: O_2  and  C_3
REMARK    3  A    between atoms: C_3  and  C_5
REMARK    4  A    between atoms: C_11  and  S_13
REMARK    5  A    between atoms: S_13  and  N_16
REMARK    6  A    between atoms: N_19  and  C_20
REMARK    7  A    between atoms: C_23  and  C_24
REMARK    8  A    between atoms: C_26  and  O_27
REMARK    9  A    between atoms: O_27  and  C_28
REMARK                            x       y       z     vdW  Elec       q    Type
REMARK                         _______ _______ _______ _____ _____    ______ ____
ROOT
ATOM      1  N   UNL     1       6.292  -0.988  24.866  0.00  0.00    -0.173 N 
ATOM      2  H   UNL     1       7.292  -1.096  24.709  0.00  0.00    +0.178 HD
ATOM      3  C   UNL     1       5.815   0.330  24.907  0.00  0.00    +0.327 C 
ATOM      4  N   UNL     1       6.685   1.357  24.560  0.00  0.00    -0.226 N 
ATOM      5  C   UNL     1       7.995   1.188  24.050  0.00  0.00    +0.231 A 
ATOM      6  N   UNL     1       8.400  -0.031  23.697  0.00  0.00    -0.161 NA
ATOM      7  C   UNL     1       9.617  -0.087  23.162  0.00  0.00    +0.322 A 
ATOM      8  N   UNL     1      10.461   0.928  23.037  0.00  0.00    -0.180 NA
ATOM      9  C   UNL     1       9.989   2.093  23.460  0.00  0.00    +0.135 A 
ATOM     10  C   UNL     1      10.911   3.272  23.412  0.00  0.00    +0.088 C 
ATOM     11  N   UNL     1       8.757   2.276  23.936  0.00  0.00    -0.199 NA
ATOM     12  C   UNL     1       6.217   2.734  24.676  0.00  0.00    +0.143 C 
ATOM     13  O   UNL     1       4.663   0.572  25.247  0.00  0.00    -0.251 OA
ENDROOT
BRANCH   1  14
ATOM     14  S   UNL     1       5.593  -2.308  25.580  0.00  0.00    +0.050 S 
ATOM     15  O   UNL     1       5.860  -2.137  26.994  0.00  0.00    -0.155 OA
ATOM     16  O   UNL     1       4.236  -2.467  25.116  0.00  0.00    -0.155 OA
BRANCH  14  18
ATOM     17  C   UNL     1       5.946  -4.590  23.946  0.00  0.00    +0.124 C 
ATOM     18  C   UNL     1       6.598  -3.724  25.035  0.00  0.00    +0.165 C 
ATOM     19  C   UNL     1       7.034  -4.552  26.261  0.00  0.00    +0.029 C 
ATOM     20  C   UNL     1       5.942  -5.470  26.806  0.00  0.00    +0.002 C 
ATOM     21  C   UNL     1       5.246  -6.287  25.724  0.00  0.00    +0.001 C 
ATOM     22  C   UNL     1       4.822  -5.465  24.509  0.00  0.00    +0.016 C 
BRANCH  17  23
ATOM     23  C   UNL     1       7.004  -5.439  23.233  0.00  0.00    +0.312 C 
ATOM     24  O   UNL     1       8.210  -5.367  23.427  0.00  0.00    -0.250 OA
BRANCH  23  26
ATOM     25  C   UNL     1       6.270  -5.663  21.005  0.00  0.00    +0.280 C 
ATOM     26  O   UNL     1       6.421  -6.247  22.304  0.00  0.00    -0.468 OA
ENDBRANCH  23  26
ENDBRANCH  17  23
ENDBRANCH  14  18
ENDBRANCH   1  14
BRANCH   7  27
ATOM     27  O   UNL     1      10.105  -1.286  22.690  0.00  0.00    -0.466 OA
ATOM     28  C   UNL     1       9.952  -2.369  23.595  0.00  0.00    +0.280 C 
ENDBRANCH   7  27
TORSDOF 5
ENDMDL
MODEL 6
REMARK VINA RESULT:      -6.7      3.351      7.452
REMARK  Name = 
REMARK  9 active torsions:
REMARK  status: ('A' for Active; 'I' for Inactive)
REMARK    1  A    between atoms: C_1  and  O_2
REMARK    2  A    between atoms: O_2  and  C_3
REMARK    3  A    between atoms: C_3  and  C_5
REMARK    4  A    between atoms: C_11  and  S_13
REMARK    5  A    between atoms: S_13  and  N_16
REMARK    6  A    between atoms: N_19  and  C_20
REMARK    7  A    between atoms: C_23  and  C_24
REMARK    8  A    between atoms: C_26  and  O_27
REMARK    9  A    between atoms: O_27  and  C_28
REMARK                            x       y       z     vdW  Elec       q    Type
REMARK                         _______ _______ _______ _____ _____    ______ ____
ROOT
ATOM      1  N   UNL     1       9.004  -1.875  24.249  0.00  0.00    -0.173 N 
ATOM      2  H   UNL     1       8.297  -1.390  24.797  0.00  0.00    +0.178 HD
ATOM      3  C   UNL     1       9.654  -1.110  23.269  0.00  0.00    +0.327 C 
ATOM      4  N   UNL     1       9.419   0.260  23.240  0.00  0.00    -0.226 N 
ATOM      5  C   UNL     1       8.665   0.986  24.193  0.00  0.00    +0.231 A 
ATOM      6  N   UNL     1       8.278   0.376  25.313  0.00  0.00    -0.161 NA
ATOM      7  C   UNL     1       7.637   1.153  26.183  0.00  0.00    +0.322 A 
ATOM      8  N   UNL     1       7.289   2.417  25.992  0.00  0.00    -0.180 NA
ATOM      9  C   UNL     1       7.674   2.925  24.828  0.00  0.00    +0.135 A 
ATOM     10  C   UNL     1       7.258   4.329  24.514  0.00  0.00    +0.088 C 
ATOM     11  N   UNL     1       8.391   2.262  23.921  0.00  0.00    -0.199 NA
ATOM     12  C   UNL     1      10.030   1.047  22.174  0.00  0.00    +0.143 C 
ATOM     13  O   UNL     1      10.402  -1.635  22.454  0.00  0.00    -0.251 OA
ENDROOT
BRANCH   1  14
ATOM     14  S   UNL     1       8.823  -3.520  24.250  0.00  0.00    +0.050 S 
ATOM     15  O   UNL     1       8.068  -3.800  23.046  0.00  0.00    -0.155 OA
ATOM     16  O   UNL     1      10.096  -4.163  24.470  0.00  0.00    -0.155 OA
BRANCH  14  18
ATOM     17  C   UNL     1       7.076  -5.268  25.626  0.00  0.00    +0.124 C 
ATOM     18  C   UNL     1       7.710  -3.869  25.648  0.00  0.00    +0.165 C 
ATOM     19  C   UNL     1       6.657  -2.749  25.762  0.00  0.00    +0.029 C 
ATOM     20  C   UNL     1       5.515  -2.870  24.755  0.00  0.00    +0.002 C 
ATOM     21  C   UNL     1       4.922  -4.271  24.681  0.00  0.00    +0.001 C 
ATOM     22  C   UNL     1       5.968  -5.378  24.574  0.00  0.00    +0.016 C 
BRANCH  17  23
ATOM     23  C   UNL     1       6.556  -5.641  27.018  0.00  0.00    +0.312 C 
ATOM     24  O   UNL     1       6.880  -5.087  28.061  0.00  0.00    -0.250 OA
BRANCH  23  26
ATOM     25  C   UNL     1       4.679  -6.742  27.923  0.00  0.00    +0.280 C 
ATOM     26  O   UNL     1       5.726  -6.719  26.946  0.00  0.00    -0.468 OA
ENDBRANCH  23  26
ENDBRANCH  17  23
ENDBRANCH  14  18
ENDBRANCH   1  14
BRANCH   7  27
ATOM     27  O   UNL     1       7.260   0.645  27.407  0.00  0.00    -0.466 OA
ATOM     28  C   UNL     1       6.934   1.637  28.370  0.00  0.00    +0.280 C 
ENDBRANCH   7  27
TORSDOF 5
ENDMDL
MODEL 7
REMARK VINA RESULT:      -6.5      3.258      6.617
REMARK  Name = 
REMARK  9 active torsions:
REMARK  status: ('A' for Active; 'I' for Inactive)
REMARK    1  A    between atoms: C_1  and  O_2
REMARK    2  A    between atoms: O_2  and  C_3
REMARK    3  A    between atoms: C_3  and  C_5
REMARK    4  A    between atoms: C_11  and  S_13
REMARK    5  A    between atoms: S_13  and  N_16
REMARK    6  A    between atoms: N_19  and  C_20
REMARK    7  A    between atoms: C_23  and  C_24
REMARK    8  A    between atoms: C_26  and  O_27
REMARK    9  A    between atoms: O_27  and  C_28
REMARK                            x       y       z     vdW  Elec       q    Type
REMARK                         _______ _______ _______ _____ _____    ______ ____
ROOT
ATOM      1  N   UNL     1       8.114  -3.014  24.411  0.00  0.00    -0.173 N 
ATOM      2  H   UNL     1       7.264  -2.467  24.289  0.00  0.00    +0.178 HD
ATOM      3  C   UNL     1       9.286  -2.457  23.879  0.00  0.00    +0.327 C 
ATOM      4  N   UNL     1       9.236  -1.154  23.396  0.00  0.00    -0.226 N 
ATOM      5  C   UNL     1       8.125  -0.281  23.498  0.00  0.00    +0.231 A 
ATOM      6  N   UNL     1       7.091  -0.636  24.259  0.00  0.00    -0.161 NA
ATOM      7  C   UNL     1       6.125   0.275  24.354  0.00  0.00    +0.322 A 
ATOM      8  N   UNL     1       6.073   1.428  23.703  0.00  0.00    -0.180 NA
ATOM      9  C   UNL     1       7.124   1.673  22.931  0.00  0.00    +0.135 A 
ATOM     10  C   UNL     1       7.105   2.928  22.114  0.00  0.00    +0.088 C 
ATOM     11  N   UNL     1       8.182   0.870  22.827  0.00  0.00    -0.199 NA
ATOM     12  C   UNL     1      10.430  -0.598  22.770  0.00  0.00    +0.143 C 
ATOM     13  O   UNL     1      10.326  -3.103  23.833  0.00  0.00    -0.251 OA
ENDROOT
BRANCH   1  14
ATOM     14  S   UNL     1       7.827  -4.621  24.686  0.00  0.00    +0.050 S 
ATOM     15  O   UNL     1       8.250  -5.276  23.464  0.00  0.00    -0.155 OA
ATOM     16  O   UNL     1       8.393  -5.021  25.951  0.00  0.00    -0.155 OA
BRANCH  14  18
ATOM     17  C   UNL     1       5.280  -3.483  25.152  0.00  0.00    +0.124 C 
ATOM     18  C   UNL     1       6.014  -4.771  24.749  0.00  0.00    +0.165 C 
ATOM     19  C   UNL     1       5.625  -5.971  25.635  0.00  0.00    +0.029 C 
ATOM     20  C   UNL     1       5.705  -5.684  27.133  0.00  0.00    +0.002 C 
ATOM     21  C   UNL     1       5.034  -4.375  27.533  0.00  0.00    +0.001 C 
ATOM     22  C   UNL     1       5.417  -3.191  26.649  0.00  0.00    +0.016 C 
BRANCH  17  23
ATOM     23  C   UNL     1       3.808  -3.554  24.734  0.00  0.00    +0.312 C 
ATOM     24  O   UNL     1       2.883  -3.007  25.320  0.00  0.00    -0.250 OA
BRANCH  23  26
ATOM     25  C   UNL     1       2.447  -5.129  23.628  0.00  0.00    +0.280 C 
ATOM     26  O   UNL     1       3.658  -4.365  23.649  0.00  0.00    -0.468 OA
ENDBRANCH  23  26
ENDBRANCH  17  23
ENDBRANCH  14  18
ENDBRANCH   1  14
BRANCH   7  27
ATOM     27  O   UNL     1       5.044   0.045  25.177  0.00  0.00    -0.466 OA
ATOM     28  C   UNL     1       4.849   1.042  26.170  0.00  0.00    +0.280 C 
ENDBRANCH   7  27
TORSDOF 5
ENDMDL
MODEL 8
REMARK VINA RESULT:      -6.5      2.529      4.316
REMARK  Name = 
REMARK  9 active torsions:
REMARK  status: ('A' for Active; 'I' for Inactive)
REMARK    1  A    between atoms: C_1  and  O_2
REMARK    2  A    between atoms: O_2  and  C_3
REMARK    3  A    between atoms: C_3  and  C_5
REMARK    4  A    between atoms: C_11  and  S_13
REMARK    5  A    between atoms: S_13  and  N_16
REMARK    6  A    between atoms: N_19  and  C_20
REMARK    7  A    between atoms: C_23  and  C_24
REMARK    8  A    between atoms: C_26  and  O_27
REMARK    9  A    between atoms: O_27  and  C_28
REMARK                            x       y       z     vdW  Elec       q    Type
REMARK                         _______ _______ _______ _____ _____    ______ ____
ROOT
ATOM      1  N   UNL     1       7.850  -2.110  24.303  0.00  0.00    -0.173 N 
ATOM      2  H   UNL     1       7.434  -2.501  25.146  0.00  0.00    +0.178 HD
ATOM      3  C   UNL     1       7.696  -2.869  23.134  0.00  0.00    +0.327 C 
ATOM      4  N   UNL     1       6.857  -3.977  23.173  0.00  0.00    -0.226 N 
ATOM      5  C   UNL     1       6.040  -4.351  24.266  0.00  0.00    +0.231 A 
ATOM      6  N   UNL     1       5.903  -3.510  25.290  0.00  0.00    -0.161 NA
ATOM      7  C   UNL     1       5.061  -3.912  26.239  0.00  0.00    +0.322 A 
ATOM      8  N   UNL     1       4.438  -5.081  26.285  0.00  0.00    -0.180 NA
ATOM      9  C   UNL     1       4.673  -5.873  25.247  0.00  0.00    +0.135 A 
ATOM     10  C   UNL     1       4.055  -7.237  25.263  0.00  0.00    +0.088 C 
ATOM     11  N   UNL     1       5.432  -5.536  24.204  0.00  0.00    -0.199 NA
ATOM     12  C   UNL     1       6.755  -4.814  21.983  0.00  0.00    +0.143 C 
ATOM     13  O   UNL     1       8.291  -2.569  22.106  0.00  0.00    -0.251 OA
ENDROOT
BRANCH   1  14
ATOM     14  S   UNL     1       9.049  -1.011  24.610  0.00  0.00    +0.050 S 
ATOM     15  O   UNL     1       9.169  -1.003  26.054  0.00  0.00    -0.155 OA
ATOM     16  O   UNL     1      10.204  -1.289  23.792  0.00  0.00    -0.155 OA
BRANCH  14  18
ATOM     17  C   UNL     1       7.963   0.727  22.660  0.00  0.00    +0.124 C 
ATOM     18  C   UNL     1       8.340   0.600  24.144  0.00  0.00    +0.165 C 
ATOM     19  C   UNL     1       9.277   1.732  24.611  0.00  0.00    +0.029 C 
ATOM     20  C   UNL     1      10.488   1.945  23.705  0.00  0.00    +0.002 C 
ATOM     21  C   UNL     1      10.130   2.008  22.225  0.00  0.00    +0.001 C 
ATOM     22  C   UNL     1       9.197   0.889  21.768  0.00  0.00    +0.016 C 
BRANCH  17  23
ATOM     23  C   UNL     1       6.977   1.882  22.457  0.00  0.00    +0.312 C 
ATOM     24  O   UNL     1       7.092   2.766  21.618  0.00  0.00    -0.250 OA
BRANCH  23  26
ATOM     25  C   UNL     1       5.039   2.906  23.323  0.00  0.00    +0.280 C 
ATOM     26  O   UNL     1       5.978   1.826  23.382  0.00  0.00    -0.468 OA
ENDBRANCH  23  26
ENDBRANCH  17  23
ENDBRANCH  14  18
ENDBRANCH   1  14
BRANCH   7  27
ATOM     27  O   UNL     1       4.785  -3.085  27.306  0.00  0.00    -0.466 OA
ATOM     28  C   UNL     1       5.349  -1.787  27.195  0.00  0.00    +0.280 C 
ENDBRANCH   7  27
TORSDOF 5
ENDMDL
MODEL 9
REMARK VINA RESULT:      -6.5      2.383      3.616
REMARK  Name = 
REMARK  9 active torsions:
REMARK  status: ('A' for Active; 'I' for Inactive)
REMARK    1  A    between atoms: C_1  and  O_2
REMARK    2  A    between atoms: O_2  and  C_3
REMARK    3  A    between atoms: C_3  and  C_5
REMARK    4  A    between atoms: C_11  and  S_13
REMARK    5  A    between atoms: S_13  and  N_16
REMARK    6  A    between atoms: N_19  and  C_20
REMARK    7  A    between atoms: C_23  and  C_24
REMARK    8  A    between atoms: C_26  and  O_27
REMARK    9  A    between atoms: O_27  and  C_28
REMARK                            x       y       z     vdW  Elec       q    Type
REMARK                         _______ _______ _______ _____ _____    ______ ____
ROOT
ATOM      1  N   UNL     1       6.844  -2.917  24.052  0.00  0.00    -0.173 N 
ATOM      2  H   UNL     1       6.034  -3.138  24.626  0.00  0.00    +0.178 HD
ATOM      3  C   UNL     1       6.991  -3.673  22.879  0.00  0.00    +0.327 C 
ATOM      4  N   UNL     1       5.953  -4.520  22.507  0.00  0.00    -0.226 N 
ATOM      5  C   UNL     1       4.693  -4.607  23.147  0.00  0.00    +0.231 A 
ATOM      6  N   UNL     1       4.373  -3.704  24.073  0.00  0.00    -0.161 NA
ATOM      7  C   UNL     1       3.144  -3.819  24.570  0.00  0.00    +0.322 A 
ATOM      8  N   UNL     1       2.276  -4.781  24.289  0.00  0.00    -0.180 NA
ATOM      9  C   UNL     1       2.701  -5.663  23.393  0.00  0.00    +0.135 A 
ATOM     10  C   UNL     1       1.800  -6.816  23.075  0.00  0.00    +0.088 C 
ATOM     11  N   UNL     1       3.879  -5.594  22.773  0.00  0.00    -0.199 NA
ATOM     12  C   UNL     1       6.133  -5.366  21.333  0.00  0.00    +0.143 C 
ATOM     13  O   UNL     1       8.010  -3.596  22.204  0.00  0.00    -0.251 OA
ENDROOT
BRANCH   1  14
ATOM     14  S   UNL     1       8.053  -2.153  24.885  0.00  0.00    +0.050 S 
ATOM     15  O   UNL     1       7.597  -2.152  26.261  0.00  0.00    -0.155 OA
ATOM     16  O   UNL     1       9.333  -2.729  24.550  0.00  0.00    -0.155 OA
BRANCH  14  18
ATOM     17  C   UNL     1       8.348  -0.220  22.842  0.00  0.00    +0.124 C 
ATOM     18  C   UNL     1       7.992  -0.423  24.322  0.00  0.00    +0.165 C 
ATOM     19  C   UNL     1       8.846   0.456  25.258  0.00  0.00    +0.029 C 
ATOM     20  C   UNL     1      10.347   0.368  24.989  0.00  0.00    +0.002 C 
ATOM     21  C   UNL     1      10.704   0.505  23.514  0.00  0.00    +0.001 C 
ATOM     22  C   UNL     1       9.852  -0.363  22.590  0.00  0.00    +0.016 C 
BRANCH  17  23
ATOM     23  C   UNL     1       7.830   1.135  22.349  0.00  0.00    +0.312 C 
ATOM     24  O   UNL     1       8.415   1.867  21.560  0.00  0.00    -0.250 OA
BRANCH  23  26
ATOM     25  C   UNL     1       6.074   2.693  22.552  0.00  0.00    +0.280 C 
ATOM     26  O   UNL     1       6.652   1.447  22.958  0.00  0.00    -0.468 OA
ENDBRANCH  23  26
ENDBRANCH  17  23
ENDBRANCH  14  18
ENDBRANCH   1  14
BRANCH   7  27
ATOM     27  O   UNL     1       2.681  -2.891  25.477  0.00  0.00    -0.466 OA
ATOM     28  C   UNL     1       3.688  -2.356  26.323  0.00  0.00    +0.280 C 
ENDBRANCH   7  27
TORSDOF 5
ENDMDL
