MODEL 1
REMARK VINA RESULT:      -3.9      0.000      0.000
REMARK  Name = 
REMARK  8 active torsions:
REMARK  status: ('A' for Active; 'I' for Inactive)
REMARK    1  A    between atoms: C_1  and  S_2
REMARK    2  A    between atoms: S_2  and  C_3
REMARK    3  A    between atoms: C_3  and  C_4
REMARK    4  A    between atoms: C_4  and  C_5
REMARK    5  A    between atoms: C_5  and  N_7
REMARK    6  A    between atoms: C_5  and  P_8
REMARK    7  A    between atoms: P_8  and  O_9
REMARK    8  A    between atoms: P_8  and  O_10
REMARK                            x       y       z     vdW  Elec       q    Type
REMARK                         _______ _______ _______ _____ _____    ______ ____
ROOT
ATOM      1  C   UNL     1       8.667  -4.730  24.823  0.00  0.00    +0.167 C 
ENDROOT
BRANCH   1   2
ATOM      2  N   UNL     1       9.899  -5.588  24.793  0.00  0.00    -0.318 NA
ATOM      3  H   UNL     1       9.669  -6.464  24.312  0.00  0.00    +0.119 HD
ATOM      4  H   UNL     1      10.598  -5.139  24.192  0.00  0.00    +0.119 HD
ENDBRANCH   1   2
BRANCH   1   5
ATOM      5  P   UNL     1       7.907  -5.030  26.461  0.00  0.00    +0.344 P 
ATOM      6  O   UNL     1       7.265  -5.285  27.846  0.00  0.00    -0.257 OA
BRANCH   5   7
ATOM      7  O   UNL     1       7.477  -3.434  26.467  0.00  0.00    -0.323 OA
ATOM      8  H   UNL     1       6.848  -3.269  27.208  0.00  0.00    +0.220 HD
ENDBRANCH   5   7
BRANCH   5   9
ATOM      9  O   UNL     1       9.391  -4.870  27.136  0.00  0.00    -0.323 OA
ATOM     10  H   UNL     1       9.664  -5.784  27.366  0.00  0.00    +0.220 HD
ENDBRANCH   5   9
ENDBRANCH   1   5
BRANCH   1  11
ATOM     11  C   UNL     1       7.853  -4.957  23.523  0.00  0.00    +0.041 C 
BRANCH  11  12
ATOM     12  C   UNL     1       7.524  -3.682  22.739  0.00  0.00    +0.071 C 
BRANCH  12  14
ATOM     13  C   UNL     1       6.326  -5.602  21.198  0.00  0.00    +0.084 C 
ATOM     14  S   UNL     1       6.029  -3.891  21.719  0.00  0.00    -0.164 S 
ENDBRANCH  12  14
ENDBRANCH  11  12
ENDBRANCH   1  11
TORSDOF 7
ENDMDL
MODEL 2
REMARK VINA RESULT:      -3.9      1.804      2.313
REMARK  Name = 
REMARK  8 active torsions:
REMARK  status: ('A' for Active; 'I' for Inactive)
REMARK    1  A    between atoms: C_1  and  S_2
REMARK    2  A    between atoms: S_2  and  C_3
REMARK    3  A    between atoms: C_3  and  C_4
REMARK    4  A    between atoms: C_4  and  C_5
REMARK    5  A    between atoms: C_5  and  N_7
REMARK    6  A    between atoms: C_5  and  P_8
REMARK    7  A    between atoms: P_8  and  O_9
REMARK    8  A    between atoms: P_8  and  O_10
REMARK                            x       y       z     vdW  Elec       q    Type
REMARK                         _______ _______ _______ _____ _____    ______ ____
ROOT
ATOM      1  C   UNL     1       8.697  -4.681  24.818  0.00  0.00    +0.167 C 
ENDROOT
BRANCH   1   2
ATOM      2  N   UNL     1       9.581  -5.858  24.523  0.00  0.00    -0.318 NA
ATOM      3  H   UNL     1       9.148  -6.696  24.925  0.00  0.00    +0.119 HD
ATOM      4  H   UNL     1       9.579  -6.027  23.512  0.00  0.00    +0.119 HD
ENDBRANCH   1   2
BRANCH   1   5
ATOM      5  P   UNL     1       7.927  -5.047  26.437  0.00  0.00    +0.344 P 
ATOM      6  O   UNL     1       7.275  -5.357  27.806  0.00  0.00    -0.257 OA
BRANCH   5   7
ATOM      7  O   UNL     1       7.409  -3.477  26.457  0.00  0.00    -0.323 OA
ATOM      8  H   UNL     1       7.133  -3.213  25.548  0.00  0.00    +0.220 HD
ENDBRANCH   5   7
BRANCH   5   9
ATOM      9  O   UNL     1       9.387  -4.816  27.141  0.00  0.00    -0.323 OA
ATOM     10  H   UNL     1       9.587  -5.663  27.594  0.00  0.00    +0.220 HD
ENDBRANCH   5   9
ENDBRANCH   1   5
BRANCH   1  11
ATOM     11  C   UNL     1       7.818  -4.379  23.577  0.00  0.00    +0.041 C 
BRANCH  11  12
ATOM     12  C   UNL     1       8.047  -3.001  22.947  0.00  0.00    +0.071 C 
BRANCH  12  14
ATOM     13  C   UNL     1      10.127  -1.378  22.214  0.00  0.00    +0.084 C 
ATOM     14  S   UNL     1       9.456  -2.139  23.717  0.00  0.00    -0.164 S 
ENDBRANCH  12  14
ENDBRANCH  11  12
ENDBRANCH   1  11
TORSDOF 7
ENDMDL
MODEL 3
REMARK VINA RESULT:      -3.9      2.354      2.812
REMARK  Name = 
REMARK  8 active torsions:
REMARK  status: ('A' for Active; 'I' for Inactive)
REMARK    1  A    between atoms: C_1  and  S_2
REMARK    2  A    between atoms: S_2  and  C_3
REMARK    3  A    between atoms: C_3  and  C_4
REMARK    4  A    between atoms: C_4  and  C_5
REMARK    5  A    between atoms: C_5  and  N_7
REMARK    6  A    between atoms: C_5  and  P_8
REMARK    7  A    between atoms: P_8  and  O_9
REMARK    8  A    between atoms: P_8  and  O_10
REMARK                            x       y       z     vdW  Elec       q    Type
REMARK                         _______ _______ _______ _____ _____    ______ ____
ROOT
ATOM      1  C   UNL     1       7.593  -5.565  25.819  0.00  0.00    +0.167 C 
ENDROOT
BRANCH   1   2
ATOM      2  N   UNL     1       7.893  -5.637  27.288  0.00  0.00    -0.318 NA
ATOM      3  H   UNL     1       7.004  -5.665  27.798  0.00  0.00    +0.119 HD
ATOM      4  H   UNL     1       8.334  -6.540  27.490  0.00  0.00    +0.119 HD
ENDBRANCH   1   2
BRANCH   1   5
ATOM      5  P   UNL     1       8.990  -4.640  25.084  0.00  0.00    +0.344 P 
ATOM      6  O   UNL     1      10.172  -3.857  24.463  0.00  0.00    -0.257 OA
BRANCH   5   7
ATOM      7  O   UNL     1       9.379  -6.026  24.271  0.00  0.00    -0.323 OA
ATOM      8  H   UNL     1       9.849  -6.641  24.882  0.00  0.00    +0.220 HD
ENDBRANCH   5   7
BRANCH   5   9
ATOM      9  O   UNL     1       9.848  -4.927  26.449  0.00  0.00    -0.323 OA
ATOM     10  H   UNL     1       9.286  -5.532  26.979  0.00  0.00    +0.220 HD
ENDBRANCH   5   9
ENDBRANCH   1   5
BRANCH   1  11
ATOM     11  C   UNL     1       6.134  -5.080  25.618  0.00  0.00    +0.041 C 
BRANCH  11  12
ATOM     12  C   UNL     1       5.329  -5.876  24.584  0.00  0.00    +0.071 C 
BRANCH  12  14
ATOM     13  C   UNL     1       6.498  -6.142  22.123  0.00  0.00    +0.084 C 
ATOM     14  S   UNL     1       5.320  -5.048  22.961  0.00  0.00    -0.164 S 
ENDBRANCH  12  14
ENDBRANCH  11  12
ENDBRANCH   1  11
TORSDOF 7
ENDMDL
MODEL 4
REMARK VINA RESULT:      -3.8      6.634      7.307
REMARK  Name = 
REMARK  8 active torsions:
REMARK  status: ('A' for Active; 'I' for Inactive)
REMARK    1  A    between atoms: C_1  and  S_2
REMARK    2  A    between atoms: S_2  and  C_3
REMARK    3  A    between atoms: C_3  and  C_4
REMARK    4  A    between atoms: C_4  and  C_5
REMARK    5  A    between atoms: C_5  and  N_7
REMARK    6  A    between atoms: C_5  and  P_8
REMARK    7  A    between atoms: P_8  and  O_9
REMARK    8  A    between atoms: P_8  and  O_10
REMARK                            x       y       z     vdW  Elec       q    Type
REMARK                         _______ _______ _______ _____ _____    ______ ____
ROOT
ATOM      1  C   UNL     1       9.793   2.009  23.962  0.00  0.00    +0.167 C 
ENDROOT
BRANCH   1   2
ATOM      2  N   UNL     1       8.894   2.126  25.159  0.00  0.00    -0.318 NA
ATOM      3  H   UNL     1       9.364   2.711  25.858  0.00  0.00    +0.119 HD
ATOM      4  H   UNL     1       8.061   2.661  24.894  0.00  0.00    +0.119 HD
ENDBRANCH   1   2
BRANCH   1   5
ATOM      5  P   UNL     1       8.680   2.105  22.512  0.00  0.00    +0.344 P 
ATOM      6  O   UNL     1       7.740   2.186  21.285  0.00  0.00    -0.257 OA
BRANCH   5   7
ATOM      7  O   UNL     1      10.035   2.035  21.566  0.00  0.00    -0.323 OA
ATOM      8  H   UNL     1      10.495   1.176  21.718  0.00  0.00    +0.220 HD
ENDBRANCH   5   7
BRANCH   5   9
ATOM      9  O   UNL     1       8.624   3.730  22.710  0.00  0.00    -0.323 OA
ATOM     10  H   UNL     1       7.994   3.872  23.450  0.00  0.00    +0.220 HD
ENDBRANCH   5   9
ENDBRANCH   1   5
BRANCH   1  11
ATOM     11  C   UNL     1      10.740   0.796  24.150  0.00  0.00    +0.041 C 
BRANCH  11  12
ATOM     12  C   UNL     1      10.034  -0.562  24.244  0.00  0.00    +0.071 C 
BRANCH  12  14
ATOM     13  C   UNL     1       8.519  -1.826  22.346  0.00  0.00    +0.084 C 
ATOM     14  S   UNL     1      10.270  -1.545  22.728  0.00  0.00    -0.164 S 
ENDBRANCH  12  14
ENDBRANCH  11  12
ENDBRANCH   1  11
TORSDOF 7
ENDMDL
MODEL 5
REMARK VINA RESULT:      -3.8      5.727      6.379
REMARK  Name = 
REMARK  8 active torsions:
REMARK  status: ('A' for Active; 'I' for Inactive)
REMARK    1  A    between atoms: C_1  and  S_2
REMARK    2  A    between atoms: S_2  and  C_3
REMARK    3  A    between atoms: C_3  and  C_4
REMARK    4  A    between atoms: C_4  and  C_5
REMARK    5  A    between atoms: C_5  and  N_7
REMARK    6  A    between atoms: C_5  and  P_8
REMARK    7  A    between atoms: P_8  and  O_9
REMARK    8  A    between atoms: P_8  and  O_10
REMARK                            x       y       z     vdW  Elec       q    Type
REMARK                         _______ _______ _______ _____ _____    ______ ____
ROOT
ATOM      1  C   UNL     1      10.325   0.278  23.264  0.00  0.00    +0.167 C 
ENDROOT
BRANCH   1   2
ATOM      2  N   UNL     1      10.866   1.437  24.051  0.00  0.00    -0.318 NA
ATOM      3  H   UNL     1      11.290   2.101  23.395  0.00  0.00    +0.119 HD
ATOM      4  H   UNL     1      10.081   1.949  24.464  0.00  0.00    +0.119 HD
ENDBRANCH   1   2
BRANCH   1   5
ATOM      5  P   UNL     1       9.096   1.003  22.118  0.00  0.00    +0.344 P 
ATOM      6  O   UNL     1       8.057   1.616  21.149  0.00  0.00    -0.257 OA
BRANCH   5   7
ATOM      7  O   UNL     1       9.512  -0.186  21.046  0.00  0.00    -0.323 OA
ATOM      8  H   UNL     1      10.398  -0.545  21.285  0.00  0.00    +0.220 HD
ENDBRANCH   5   7
BRANCH   5   9
ATOM      9  O   UNL     1      10.218   2.111  21.677  0.00  0.00    -0.323 OA
ATOM     10  H   UNL     1       9.743   2.970  21.685  0.00  0.00    +0.220 HD
ENDBRANCH   5   9
ENDBRANCH   1   5
BRANCH   1  11
ATOM     11  C   UNL     1       9.920  -0.857  24.239  0.00  0.00    +0.041 C 
BRANCH  11  12
ATOM     12  C   UNL     1      10.006  -2.270  23.652  0.00  0.00    +0.071 C 
BRANCH  12  14
ATOM     13  C   UNL     1       7.645  -2.885  22.409  0.00  0.00    +0.084 C 
ATOM     14  S   UNL     1       8.488  -3.224  23.978  0.00  0.00    -0.164 S 
ENDBRANCH  12  14
ENDBRANCH  11  12
ENDBRANCH   1  11
TORSDOF 7
ENDMDL
MODEL 6
REMARK VINA RESULT:      -3.7      3.066      3.471
REMARK  Name = 
REMARK  8 active torsions:
REMARK  status: ('A' for Active; 'I' for Inactive)
REMARK    1  A    between atoms: C_1  and  S_2
REMARK    2  A    between atoms: S_2  and  C_3
REMARK    3  A    between atoms: C_3  and  C_4
REMARK    4  A    between atoms: C_4  and  C_5
REMARK    5  A    between atoms: C_5  and  N_7
REMARK    6  A    between atoms: C_5  and  P_8
REMARK    7  A    between atoms: P_8  and  O_9
REMARK    8  A    between atoms: P_8  and  O_10
REMARK                            x       y       z     vdW  Elec       q    Type
REMARK                         _______ _______ _______ _____ _____    ______ ____
ROOT
ATOM      1  C   UNL     1       5.513  -6.310  26.505  0.00  0.00    +0.167 C 
ENDROOT
BRANCH   1   2
ATOM      2  N   UNL     1       4.274  -7.157  26.519  0.00  0.00    -0.318 NA
ATOM      3  H   UNL     1       4.493  -8.042  26.988  0.00  0.00    +0.119 HD
ATOM      4  H   UNL     1       3.577  -6.711  27.125  0.00  0.00    +0.119 HD
ENDBRANCH   1   2
BRANCH   1   5
ATOM      5  P   UNL     1       5.894  -5.980  28.264  0.00  0.00    +0.344 P 
ATOM      6  O   UNL     1       6.217  -5.701  29.752  0.00  0.00    -0.257 OA
BRANCH   5   7
ATOM      7  O   UNL     1       7.493  -6.099  27.859  0.00  0.00    -0.323 OA
ATOM      8  H   UNL     1       7.638  -5.680  26.979  0.00  0.00    +0.220 HD
ENDBRANCH   5   7
BRANCH   5   9
ATOM      9  O   UNL     1       5.620  -7.563  28.581  0.00  0.00    -0.323 OA
ATOM     10  H   UNL     1       6.429  -8.026  28.275  0.00  0.00    +0.220 HD
ENDBRANCH   5   9
ENDBRANCH   1   5
BRANCH   1  11
ATOM     11  C   UNL     1       5.321  -5.139  25.507  0.00  0.00    +0.041 C 
BRANCH  11  12
ATOM     12  C   UNL     1       6.286  -5.144  24.317  0.00  0.00    +0.071 C 
BRANCH  12  14
ATOM     13  C   UNL     1       6.975  -5.954  21.793  0.00  0.00    +0.084 C 
ATOM     14  S   UNL     1       5.482  -5.768  22.806  0.00  0.00    -0.164 S 
ENDBRANCH  12  14
ENDBRANCH  11  12
ENDBRANCH   1  11
TORSDOF 7
ENDMDL
MODEL 7
REMARK VINA RESULT:      -3.7      7.072      7.538
REMARK  Name = 
REMARK  8 active torsions:
REMARK  status: ('A' for Active; 'I' for Inactive)
REMARK    1  A    between atoms: C_1  and  S_2
REMARK    2  A    between atoms: S_2  and  C_3
REMARK    3  A    between atoms: C_3  and  C_4
REMARK    4  A    between atoms: C_4  and  C_5
REMARK    5  A    between atoms: C_5  and  N_7
REMARK    6  A    between atoms: C_5  and  P_8
REMARK    7  A    between atoms: P_8  and  O_9
REMARK    8  A    between atoms: P_8  and  O_10
REMARK                            x       y       z     vdW  Elec       q    Type
REMARK                         _______ _______ _______ _____ _____    ______ ____
ROOT
ATOM      1  C   UNL     1       9.488   1.690  22.924  0.00  0.00    +0.167 C 
ENDROOT
BRANCH   1   2
ATOM      2  N   UNL     1       9.830   1.972  21.490  0.00  0.00    -0.318 NA
ATOM      3  H   UNL     1      10.446   2.791  21.460  0.00  0.00    +0.119 HD
ATOM      4  H   UNL     1      10.406   1.203  21.132  0.00  0.00    +0.119 HD
ENDBRANCH   1   2
BRANCH   1   5
ATOM      5  P   UNL     1       9.471   3.325  23.747  0.00  0.00    +0.344 P 
ATOM      6  O   UNL     1       9.457   4.707  24.444  0.00  0.00    -0.257 OA
BRANCH   5   7
ATOM      7  O   UNL     1       8.488   3.844  22.523  0.00  0.00    -0.323 OA
ATOM      8  H   UNL     1       8.932   3.681  21.658  0.00  0.00    +0.220 HD
ENDBRANCH   5   7
BRANCH   5   9
ATOM      9  O   UNL     1      10.911   3.654  23.039  0.00  0.00    -0.323 OA
ATOM     10  H   UNL     1      10.991   2.999  22.312  0.00  0.00    +0.220 HD
ENDBRANCH   5   9
ENDBRANCH   1   5
BRANCH   1  11
ATOM     11  C   UNL     1      10.397   0.551  23.453  0.00  0.00    +0.041 C 
BRANCH  11  12
ATOM     12  C   UNL     1       9.694  -0.462  24.364  0.00  0.00    +0.071 C 
BRANCH  12  14
ATOM     13  C   UNL     1       8.948  -1.814  22.103  0.00  0.00    +0.084 C 
ATOM     14  S   UNL     1       9.780  -2.148  23.680  0.00  0.00    -0.164 S 
ENDBRANCH  12  14
ENDBRANCH  11  12
ENDBRANCH   1  11
TORSDOF 7
ENDMDL
MODEL 8
REMARK VINA RESULT:      -3.7      6.477      7.063
REMARK  Name = 
REMARK  8 active torsions:
REMARK  status: ('A' for Active; 'I' for Inactive)
REMARK    1  A    between atoms: C_1  and  S_2
REMARK    2  A    between atoms: S_2  and  C_3
REMARK    3  A    between atoms: C_3  and  C_4
REMARK    4  A    between atoms: C_4  and  C_5
REMARK    5  A    between atoms: C_5  and  N_7
REMARK    6  A    between atoms: C_5  and  P_8
REMARK    7  A    between atoms: P_8  and  O_9
REMARK    8  A    between atoms: P_8  and  O_10
REMARK                            x       y       z     vdW  Elec       q    Type
REMARK                         _______ _______ _______ _____ _____    ______ ____
ROOT
ATOM      1  C   UNL     1      10.068   0.797  22.328  0.00  0.00    +0.167 C 
ENDROOT
BRANCH   1   2
ATOM      2  N   UNL     1       9.460   1.758  21.347  0.00  0.00    -0.318 NA
ATOM      3  H   UNL     1      10.097   2.554  21.239  0.00  0.00    +0.119 HD
ATOM      4  H   UNL     1       9.440   1.316  20.423  0.00  0.00    +0.119 HD
ENDBRANCH   1   2
BRANCH   1   5
ATOM      5  P   UNL     1       9.044  -0.716  22.221  0.00  0.00    +0.344 P 
ATOM      6  O   UNL     1       8.178  -1.996  22.131  0.00  0.00    -0.257 OA
BRANCH   5   7
ATOM      7  O   UNL     1       9.519  -1.052  23.769  0.00  0.00    -0.323 OA
ATOM      8  H   UNL     1       8.914  -0.597  24.401  0.00  0.00    +0.220 HD
ENDBRANCH   5   7
BRANCH   5   9
ATOM      9  O   UNL     1      10.281  -1.451  21.438  0.00  0.00    -0.323 OA
ATOM     10  H   UNL     1      10.275  -2.376  21.768  0.00  0.00    +0.220 HD
ENDBRANCH   5   9
ENDBRANCH   1   5
BRANCH   1  11
ATOM     11  C   UNL     1      10.273   1.515  23.687  0.00  0.00    +0.041 C 
BRANCH  11  12
ATOM     12  C   UNL     1      10.143   3.041  23.633  0.00  0.00    +0.071 C 
BRANCH  12  14
ATOM     13  C   UNL     1       8.152   2.010  25.205  0.00  0.00    +0.084 C 
ATOM     14  S   UNL     1       8.702   3.623  24.585  0.00  0.00    -0.164 S 
ENDBRANCH  12  14
ENDBRANCH  11  12
ENDBRANCH   1  11
TORSDOF 7
ENDMDL
MODEL 9
REMARK VINA RESULT:      -3.7      6.099      6.871
REMARK  Name = 
REMARK  8 active torsions:
REMARK  status: ('A' for Active; 'I' for Inactive)
REMARK    1  A    between atoms: C_1  and  S_2
REMARK    2  A    between atoms: S_2  and  C_3
REMARK    3  A    between atoms: C_3  and  C_4
REMARK    4  A    between atoms: C_4  and  C_5
REMARK    5  A    between atoms: C_5  and  N_7
REMARK    6  A    between atoms: C_5  and  P_8
REMARK    7  A    between atoms: P_8  and  O_9
REMARK    8  A    between atoms: P_8  and  O_10
REMARK                            x       y       z     vdW  Elec       q    Type
REMARK                         _______ _______ _______ _____ _____    ______ ____
ROOT
ATOM      1  C   UNL     1       8.787   0.910  22.672  0.00  0.00    +0.167 C 
ENDROOT
BRANCH   1   2
ATOM      2  N   UNL     1       7.391   1.347  22.331  0.00  0.00    -0.318 NA
ATOM      3  H   UNL     1       6.743   0.891  22.981  0.00  0.00    +0.119 HD
ATOM      4  H   UNL     1       7.300   2.348  22.536  0.00  0.00    +0.119 HD
ENDBRANCH   1   2
BRANCH   1   5
ATOM      5  P   UNL     1       9.661   2.436  23.179  0.00  0.00    +0.344 P 
ATOM      6  O   UNL     1      10.401   3.726  23.608  0.00  0.00    -0.257 OA
BRANCH   5   7
ATOM      7  O   UNL     1      10.374   2.430  21.687  0.00  0.00    -0.323 OA
ATOM      8  H   UNL     1      11.182   1.866  21.714  0.00  0.00    +0.220 HD
ENDBRANCH   5   7
BRANCH   5   9
ATOM      9  O   UNL     1      10.757   1.502  23.960  0.00  0.00    -0.323 OA
ATOM     10  H   UNL     1      11.371   2.137  24.388  0.00  0.00    +0.220 HD
ENDBRANCH   5   9
ENDBRANCH   1   5
BRANCH   1  11
ATOM     11  C   UNL     1       9.342   0.029  21.523  0.00  0.00    +0.041 C 
BRANCH  11  12
ATOM     12  C   UNL     1       9.822  -1.361  21.954  0.00  0.00    +0.071 C 
BRANCH  12  14
ATOM     13  C   UNL     1       9.536  -2.951  24.164  0.00  0.00    +0.084 C 
ATOM     14  S   UNL     1       8.513  -2.281  22.825  0.00  0.00    -0.164 S 
ENDBRANCH  12  14
ENDBRANCH  11  12
ENDBRANCH   1  11
TORSDOF 7
ENDMDL
