MODEL 1
REMARK VINA RESULT:      -5.4      0.000      0.000
REMARK  Name = 
REMARK  5 active torsions:
REMARK  status: ('A' for Active; 'I' for Inactive)
REMARK    1  A    between atoms: C_1  and  C_2
REMARK    2  A    between atoms: N_4  and  C_5
REMARK    3  A    between atoms: C_6  and  N_7
REMARK    4  A    between atoms: C_9  and  C_12
REMARK    5  A    between atoms: C_12  and  O_13
REMARK                            x       y       z     vdW  Elec       q    Type
REMARK                         _______ _______ _______ _____ _____    ______ ____
ROOT
ATOM      1  C   UNL     1       9.813  -0.957  23.571  0.00  0.00    +0.054 A 
ATOM      2  C   UNL     1      10.095  -0.227  24.732  0.00  0.00    +0.026 A 
ATOM      3  C   UNL     1      10.357   1.143  24.653  0.00  0.00    +0.017 A 
ATOM      4  C   UNL     1      10.352   1.778  23.409  0.00  0.00    +0.061 A 
ATOM      5  C   UNL     1      10.074   1.048  22.244  0.00  0.00    +0.039 A 
ATOM      6  C   UNL     1       9.763  -0.313  22.320  0.00  0.00    +0.047 A 
ENDROOT
BRANCH   1   9
ATOM      7  C   UNL     1       8.397  -4.414  23.959  0.00  0.00    +0.109 C 
ATOM      8  C   UNL     1       8.372  -2.910  23.969  0.00  0.00    +0.214 C 
ATOM      9  N   UNL     1       9.583  -2.347  23.613  0.00  0.00    -0.284 N 
ATOM     10  H   UNL     1      10.247  -2.915  23.100  0.00  0.00    +0.155 HD
ATOM     11  O   UNL     1       7.354  -2.290  24.259  0.00  0.00    -0.276 OA
ENDBRANCH   1   9
BRANCH   6  12
ATOM     12  N   UNL     1       9.525  -1.046  21.135  0.00  0.00    -0.357 N 
ATOM     13  H   UNL     1       8.621  -1.514  21.148  0.00  0.00    +0.142 HD
ATOM     14  H   UNL     1      10.261  -1.727  20.965  0.00  0.00    +0.142 HD
ENDBRANCH   6  12
BRANCH   4  15
ATOM     15  C   UNL     1      10.576   3.237  23.268  0.00  0.00    +0.337 C 
ATOM     16  O   UNL     1      11.672   3.750  23.391  0.00  0.00    -0.245 OA
BRANCH  15  17
ATOM     17  O   UNL     1       9.451   3.939  23.024  0.00  0.00    -0.477 OA
ATOM     18  H   UNL     1       8.691   3.696  23.583  0.00  0.00    +0.295 HD
ENDBRANCH  15  17
ENDBRANCH   4  15
TORSDOF 4
ENDMDL
MODEL 2
REMARK VINA RESULT:      -5.4      2.562      5.578
REMARK  Name = 
REMARK  5 active torsions:
REMARK  status: ('A' for Active; 'I' for Inactive)
REMARK    1  A    between atoms: C_1  and  C_2
REMARK    2  A    between atoms: N_4  and  C_5
REMARK    3  A    between atoms: C_6  and  N_7
REMARK    4  A    between atoms: C_9  and  C_12
REMARK    5  A    between atoms: C_12  and  O_13
REMARK                            x       y       z     vdW  Elec       q    Type
REMARK                         _______ _______ _______ _____ _____    ______ ____
ROOT
ATOM      1  C   UNL     1       9.945   2.478  23.592  0.00  0.00    +0.054 A 
ATOM      2  C   UNL     1      10.657   1.614  24.433  0.00  0.00    +0.026 A 
ATOM      3  C   UNL     1      10.720   0.249  24.144  0.00  0.00    +0.017 A 
ATOM      4  C   UNL     1      10.056  -0.253  23.023  0.00  0.00    +0.061 A 
ATOM      5  C   UNL     1       9.338   0.610  22.181  0.00  0.00    +0.039 A 
ATOM      6  C   UNL     1       9.311   1.984  22.436  0.00  0.00    +0.047 A 
ENDROOT
BRANCH   1   9
ATOM      7  C   UNL     1      10.481   6.163  24.084  0.00  0.00    +0.109 C 
ATOM      8  C   UNL     1      10.851   4.763  23.676  0.00  0.00    +0.214 C 
ATOM      9  N   UNL     1       9.830   3.854  23.877  0.00  0.00    -0.284 N 
ATOM     10  H   UNL     1       8.884   4.204  23.966  0.00  0.00    +0.155 HD
ATOM     11  O   UNL     1      11.955   4.505  23.207  0.00  0.00    -0.276 OA
ENDBRANCH   1   9
BRANCH   6  12
ATOM     12  N   UNL     1       8.550   2.838  21.604  0.00  0.00    -0.357 N 
ATOM     13  H   UNL     1       7.628   2.457  21.404  0.00  0.00    +0.142 HD
ATOM     14  H   UNL     1       9.036   3.037  20.733  0.00  0.00    +0.142 HD
ENDBRANCH   6  12
BRANCH   4  15
ATOM     15  C   UNL     1      10.126  -1.684  22.640  0.00  0.00    +0.337 C 
ATOM     16  O   UNL     1      10.385  -2.567  23.436  0.00  0.00    -0.245 OA
BRANCH  15  17
ATOM     17  O   UNL     1       9.908  -1.908  21.328  0.00  0.00    -0.477 OA
ATOM     18  H   UNL     1       8.969  -1.903  21.065  0.00  0.00    +0.295 HD
ENDBRANCH  15  17
ENDBRANCH   4  15
TORSDOF 4
ENDMDL
MODEL 3
REMARK VINA RESULT:      -5.3      2.591      3.169
REMARK  Name = 
REMARK  5 active torsions:
REMARK  status: ('A' for Active; 'I' for Inactive)
REMARK    1  A    between atoms: C_1  and  C_2
REMARK    2  A    between atoms: N_4  and  C_5
REMARK    3  A    between atoms: C_6  and  N_7
REMARK    4  A    between atoms: C_9  and  C_12
REMARK    5  A    between atoms: C_12  and  O_13
REMARK                            x       y       z     vdW  Elec       q    Type
REMARK                         _______ _______ _______ _____ _____    ______ ____
ROOT
ATOM      1  C   UNL     1       7.915  -2.188  22.492  0.00  0.00    +0.054 A 
ATOM      2  C   UNL     1       9.066  -1.824  21.781  0.00  0.00    +0.026 A 
ATOM      3  C   UNL     1       9.375  -0.474  21.592  0.00  0.00    +0.017 A 
ATOM      4  C   UNL     1       8.523   0.509  22.100  0.00  0.00    +0.061 A 
ATOM      5  C   UNL     1       7.368   0.146  22.808  0.00  0.00    +0.039 A 
ATOM      6  C   UNL     1       7.078  -1.200  23.044  0.00  0.00    +0.047 A 
ENDROOT
BRANCH   1   9
ATOM      7  C   UNL     1       6.335  -5.592  22.359  0.00  0.00    +0.109 C 
ATOM      8  C   UNL     1       6.532  -4.153  21.968  0.00  0.00    +0.214 C 
ATOM      9  N   UNL     1       7.555  -3.540  22.667  0.00  0.00    -0.284 N 
ATOM     10  H   UNL     1       8.253  -4.123  23.112  0.00  0.00    +0.155 HD
ATOM     11  O   UNL     1       5.840  -3.625  21.104  0.00  0.00    -0.276 OA
ENDBRANCH   1   9
BRANCH   6  12
ATOM     12  N   UNL     1       5.889  -1.554  23.724  0.00  0.00    -0.357 N 
ATOM     13  H   UNL     1       5.056  -1.255  23.221  0.00  0.00    +0.142 HD
ATOM     14  H   UNL     1       5.875  -1.176  24.668  0.00  0.00    +0.142 HD
ENDBRANCH   6  12
BRANCH   4  15
ATOM     15  C   UNL     1       8.824   1.955  21.971  0.00  0.00    +0.337 C 
ATOM     16  O   UNL     1       8.005   2.822  22.211  0.00  0.00    -0.245 OA
BRANCH  15  17
ATOM     17  O   UNL     1      10.073   2.215  21.534  0.00  0.00    -0.477 OA
ATOM     18  H   UNL     1      10.223   3.137  21.255  0.00  0.00    +0.295 HD
ENDBRANCH  15  17
ENDBRANCH   4  15
TORSDOF 4
ENDMDL
MODEL 4
REMARK VINA RESULT:      -5.3      2.428      5.953
REMARK  Name = 
REMARK  5 active torsions:
REMARK  status: ('A' for Active; 'I' for Inactive)
REMARK    1  A    between atoms: C_1  and  C_2
REMARK    2  A    between atoms: N_4  and  C_5
REMARK    3  A    between atoms: C_6  and  N_7
REMARK    4  A    between atoms: C_9  and  C_12
REMARK    5  A    between atoms: C_12  and  O_13
REMARK                            x       y       z     vdW  Elec       q    Type
REMARK                         _______ _______ _______ _____ _____    ______ ____
ROOT
ATOM      1  C   UNL     1       9.051  -1.074  24.719  0.00  0.00    +0.054 A 
ATOM      2  C   UNL     1       8.408  -1.462  25.901  0.00  0.00    +0.026 A 
ATOM      3  C   UNL     1       8.344  -2.812  26.253  0.00  0.00    +0.017 A 
ATOM      4  C   UNL     1       8.909  -3.774  25.414  0.00  0.00    +0.061 A 
ATOM      5  C   UNL     1       9.549  -3.388  24.227  0.00  0.00    +0.039 A 
ATOM      6  C   UNL     1       9.660  -2.036  23.892  0.00  0.00    +0.047 A 
ENDROOT
BRANCH   1   9
ATOM      7  C   UNL     1      10.013   2.470  23.930  0.00  0.00    +0.109 C 
ATOM      8  C   UNL     1      10.234   1.059  24.401  0.00  0.00    +0.214 C 
ATOM      9  N   UNL     1       9.098   0.277  24.316  0.00  0.00    -0.284 N 
ATOM     10  H   UNL     1       8.353   0.574  23.698  0.00  0.00    +0.155 HD
ATOM     11  O   UNL     1      11.332   0.683  24.800  0.00  0.00    -0.276 OA
ENDBRANCH   1   9
BRANCH   6  12
ATOM     12  N   UNL     1      10.272  -1.662  22.673  0.00  0.00    -0.357 N 
ATOM     13  H   UNL     1      11.288  -1.669  22.735  0.00  0.00    +0.142 HD
ATOM     14  H   UNL     1       9.953  -0.748  22.362  0.00  0.00    +0.142 HD
ENDBRANCH   6  12
BRANCH   4  15
ATOM     15  C   UNL     1       8.913  -5.216  25.758  0.00  0.00    +0.337 C 
ATOM     16  O   UNL     1       8.039  -5.737  26.425  0.00  0.00    -0.245 OA
BRANCH  15  17
ATOM     17  O   UNL     1       9.988  -5.884  25.293  0.00  0.00    -0.477 OA
ATOM     18  H   UNL     1      10.711  -5.991  25.938  0.00  0.00    +0.295 HD
ENDBRANCH  15  17
ENDBRANCH   4  15
TORSDOF 4
ENDMDL
MODEL 5
REMARK VINA RESULT:      -5.2      1.851      2.544
REMARK  Name = 
REMARK  5 active torsions:
REMARK  status: ('A' for Active; 'I' for Inactive)
REMARK    1  A    between atoms: C_1  and  C_2
REMARK    2  A    between atoms: N_4  and  C_5
REMARK    3  A    between atoms: C_6  and  N_7
REMARK    4  A    between atoms: C_9  and  C_12
REMARK    5  A    between atoms: C_12  and  O_13
REMARK                            x       y       z     vdW  Elec       q    Type
REMARK                         _______ _______ _______ _____ _____    ______ ____
ROOT
ATOM      1  C   UNL     1       8.851  -1.516  24.403  0.00  0.00    +0.054 A 
ATOM      2  C   UNL     1       8.943  -1.350  23.015  0.00  0.00    +0.026 A 
ATOM      3  C   UNL     1       9.420  -0.148  22.485  0.00  0.00    +0.017 A 
ATOM      4  C   UNL     1       9.789   0.889  23.342  0.00  0.00    +0.061 A 
ATOM      5  C   UNL     1       9.693   0.725  24.732  0.00  0.00    +0.039 A 
ATOM      6  C   UNL     1       9.263  -0.489  25.272  0.00  0.00    +0.047 A 
ENDROOT
BRANCH   1   9
ATOM      7  C   UNL     1       8.235  -5.021  25.607  0.00  0.00    +0.109 C 
ATOM      8  C   UNL     1       9.013  -3.907  24.961  0.00  0.00    +0.214 C 
ATOM      9  N   UNL     1       8.337  -2.701  24.969  0.00  0.00    -0.284 N 
ATOM     10  H   UNL     1       7.581  -2.576  25.632  0.00  0.00    +0.155 HD
ATOM     11  O   UNL     1      10.134  -4.094  24.499  0.00  0.00    -0.276 OA
ENDBRANCH   1   9
BRANCH   6  12
ATOM     12  N   UNL     1       9.132  -0.628  26.673  0.00  0.00    -0.357 N 
ATOM     13  H   UNL     1       8.869   0.247  27.123  0.00  0.00    +0.142 HD
ATOM     14  H   UNL     1       9.986  -0.986  27.093  0.00  0.00    +0.142 HD
ENDBRANCH   6  12
BRANCH   4  15
ATOM     15  C   UNL     1      10.346   2.168  22.838  0.00  0.00    +0.337 C 
ATOM     16  O   UNL     1      10.813   3.018  23.573  0.00  0.00    -0.245 OA
BRANCH  15  17
ATOM     17  O   UNL     1      10.256   2.312  21.501  0.00  0.00    -0.477 OA
ATOM     18  H   UNL     1      11.077   2.111  21.015  0.00  0.00    +0.295 HD
ENDBRANCH  15  17
ENDBRANCH   4  15
TORSDOF 4
ENDMDL
MODEL 6
REMARK VINA RESULT:      -5.1      3.013      5.538
REMARK  Name = 
REMARK  5 active torsions:
REMARK  status: ('A' for Active; 'I' for Inactive)
REMARK    1  A    between atoms: C_1  and  C_2
REMARK    2  A    between atoms: N_4  and  C_5
REMARK    3  A    between atoms: C_6  and  N_7
REMARK    4  A    between atoms: C_9  and  C_12
REMARK    5  A    between atoms: C_12  and  O_13
REMARK                            x       y       z     vdW  Elec       q    Type
REMARK                         _______ _______ _______ _____ _____    ______ ____
ROOT
ATOM      1  C   UNL     1       8.945   2.463  22.785  0.00  0.00    +0.054 A 
ATOM      2  C   UNL     1       9.284   1.664  21.685  0.00  0.00    +0.026 A 
ATOM      3  C   UNL     1       9.646   0.328  21.875  0.00  0.00    +0.017 A 
ATOM      4  C   UNL     1       9.685  -0.202  23.166  0.00  0.00    +0.061 A 
ATOM      5  C   UNL     1       9.349   0.598  24.269  0.00  0.00    +0.039 A 
ATOM      6  C   UNL     1       8.939   1.921  24.083  0.00  0.00    +0.047 A 
ENDROOT
BRANCH   1   9
ATOM      7  C   UNL     1       7.269   5.765  22.155  0.00  0.00    +0.109 C 
ATOM      8  C   UNL     1       7.353   4.268  22.278  0.00  0.00    +0.214 C 
ATOM      9  N   UNL     1       8.614   3.825  22.630  0.00  0.00    -0.284 N 
ATOM     10  H   UNL     1       9.253   4.481  23.062  0.00  0.00    +0.155 HD
ATOM     11  O   UNL     1       6.373   3.556  22.088  0.00  0.00    -0.276 OA
ENDBRANCH   1   9
BRANCH   6  12
ATOM     12  N   UNL     1       8.644   2.728  25.206  0.00  0.00    -0.357 N 
ATOM     13  H   UNL     1       8.826   2.247  26.084  0.00  0.00    +0.142 HD
ATOM     14  H   UNL     1       7.680   3.054  25.186  0.00  0.00    +0.142 HD
ENDBRANCH   6  12
BRANCH   4  15
ATOM     15  C   UNL     1      10.015  -1.624  23.425  0.00  0.00    +0.337 C 
ATOM     16  O   UNL     1      10.694  -2.291  22.666  0.00  0.00    -0.245 OA
BRANCH  15  17
ATOM     17  O   UNL     1       9.468  -2.113  24.556  0.00  0.00    -0.477 OA
ATOM     18  H   UNL     1       9.342  -1.455  25.264  0.00  0.00    +0.295 HD
ENDBRANCH  15  17
ENDBRANCH   4  15
TORSDOF 4
ENDMDL
MODEL 7
REMARK VINA RESULT:      -5.0      2.883      6.480
REMARK  Name = 
REMARK  5 active torsions:
REMARK  status: ('A' for Active; 'I' for Inactive)
REMARK    1  A    between atoms: C_1  and  C_2
REMARK    2  A    between atoms: N_4  and  C_5
REMARK    3  A    between atoms: C_6  and  N_7
REMARK    4  A    between atoms: C_9  and  C_12
REMARK    5  A    between atoms: C_12  and  O_13
REMARK                            x       y       z     vdW  Elec       q    Type
REMARK                         _______ _______ _______ _____ _____    ______ ____
ROOT
ATOM      1  C   UNL     1       8.643  -3.041  23.720  0.00  0.00    +0.054 A 
ATOM      2  C   UNL     1       9.063  -2.962  25.054  0.00  0.00    +0.026 A 
ATOM      3  C   UNL     1       8.521  -3.823  26.012  0.00  0.00    +0.017 A 
ATOM      4  C   UNL     1       7.548  -4.751  25.636  0.00  0.00    +0.061 A 
ATOM      5  C   UNL     1       7.123  -4.829  24.302  0.00  0.00    +0.039 A 
ATOM      6  C   UNL     1       7.695  -4.005  23.329  0.00  0.00    +0.047 A 
ENDROOT
BRANCH   1   9
ATOM      7  C   UNL     1       9.326  -0.169  21.399  0.00  0.00    +0.109 C 
ATOM      8  C   UNL     1       8.634  -0.894  22.521  0.00  0.00    +0.214 C 
ATOM      9  N   UNL     1       9.142  -2.161  22.738  0.00  0.00    -0.284 N 
ATOM     10  H   UNL     1      10.068  -2.376  22.389  0.00  0.00    +0.155 HD
ATOM     11  O   UNL     1       7.726  -0.369  23.157  0.00  0.00    -0.276 OA
ENDBRANCH   1   9
BRANCH   6  12
ATOM     12  N   UNL     1       7.229  -4.065  21.995  0.00  0.00    -0.357 N 
ATOM     13  H   UNL     1       6.420  -3.466  21.844  0.00  0.00    +0.142 HD
ATOM     14  H   UNL     1       7.006  -5.019  21.722  0.00  0.00    +0.142 HD
ENDBRANCH   6  12
BRANCH   4  15
ATOM     15  C   UNL     1       6.972  -5.721  26.599  0.00  0.00    +0.337 C 
ATOM     16  O   UNL     1       5.923  -6.304  26.398  0.00  0.00    -0.245 OA
BRANCH  15  17
ATOM     17  O   UNL     1       7.701  -5.871  27.723  0.00  0.00    -0.477 OA
ATOM     18  H   UNL     1       8.665  -5.885  27.584  0.00  0.00    +0.295 HD
ENDBRANCH  15  17
ENDBRANCH   4  15
TORSDOF 4
ENDMDL
MODEL 8
REMARK VINA RESULT:      -5.0      5.759      7.211
REMARK  Name = 
REMARK  5 active torsions:
REMARK  status: ('A' for Active; 'I' for Inactive)
REMARK    1  A    between atoms: C_1  and  C_2
REMARK    2  A    between atoms: N_4  and  C_5
REMARK    3  A    between atoms: C_6  and  N_7
REMARK    4  A    between atoms: C_9  and  C_12
REMARK    5  A    between atoms: C_12  and  O_13
REMARK                            x       y       z     vdW  Elec       q    Type
REMARK                         _______ _______ _______ _____ _____    ______ ____
ROOT
ATOM      1  C   UNL     1       5.262  -5.517  23.885  0.00  0.00    +0.054 A 
ATOM      2  C   UNL     1       5.595  -5.074  25.171  0.00  0.00    +0.026 A 
ATOM      3  C   UNL     1       6.931  -4.833  25.504  0.00  0.00    +0.017 A 
ATOM      4  C   UNL     1       7.931  -5.052  24.556  0.00  0.00    +0.061 A 
ATOM      5  C   UNL     1       7.600  -5.500  23.269  0.00  0.00    +0.039 A 
ATOM      6  C   UNL     1       6.263  -5.697  22.912  0.00  0.00    +0.047 A 
ENDROOT
BRANCH   1   9
ATOM      7  C   UNL     1       1.868  -7.042  23.371  0.00  0.00    +0.109 C 
ATOM      8  C   UNL     1       3.274  -6.966  23.900  0.00  0.00    +0.214 C 
ATOM      9  N   UNL     1       3.928  -5.807  23.529  0.00  0.00    -0.284 N 
ATOM     10  H   UNL     1       3.373  -5.013  23.234  0.00  0.00    +0.155 HD
ATOM     11  O   UNL     1       3.745  -7.861  24.595  0.00  0.00    -0.276 OA
ENDBRANCH   1   9
BRANCH   6  12
ATOM     12  N   UNL     1       5.945  -6.188  21.625  0.00  0.00    -0.357 N 
ATOM     13  H   UNL     1       4.951  -6.110  21.419  0.00  0.00    +0.142 HD
ATOM     14  H   UNL     1       6.244  -7.153  21.511  0.00  0.00    +0.142 HD
ENDBRANCH   6  12
BRANCH   4  15
ATOM     15  C   UNL     1       9.360  -4.769  24.837  0.00  0.00    +0.337 C 
ATOM     16  O   UNL     1       9.941  -3.801  24.384  0.00  0.00    -0.245 OA
BRANCH  15  17
ATOM     17  O   UNL     1       9.957  -5.697  25.612  0.00  0.00    -0.477 OA
ATOM     18  H   UNL     1       9.378  -6.433  25.883  0.00  0.00    +0.295 HD
ENDBRANCH  15  17
ENDBRANCH   4  15
TORSDOF 4
ENDMDL
MODEL 9
REMARK VINA RESULT:      -4.9      2.798      6.347
REMARK  Name = 
REMARK  5 active torsions:
REMARK  status: ('A' for Active; 'I' for Inactive)
REMARK    1  A    between atoms: C_1  and  C_2
REMARK    2  A    between atoms: N_4  and  C_5
REMARK    3  A    between atoms: C_6  and  N_7
REMARK    4  A    between atoms: C_9  and  C_12
REMARK    5  A    between atoms: C_12  and  O_13
REMARK                            x       y       z     vdW  Elec       q    Type
REMARK                         _______ _______ _______ _____ _____    ______ ____
ROOT
ATOM      1  C   UNL     1       8.041  -2.263  23.797  0.00  0.00    +0.054 A 
ATOM      2  C   UNL     1       8.401  -3.614  23.874  0.00  0.00    +0.026 A 
ATOM      3  C   UNL     1       7.613  -4.586  23.252  0.00  0.00    +0.017 A 
ATOM      4  C   UNL     1       6.456  -4.206  22.569  0.00  0.00    +0.061 A 
ATOM      5  C   UNL     1       6.092  -2.853  22.494  0.00  0.00    +0.039 A 
ATOM      6  C   UNL     1       6.901  -1.871  23.071  0.00  0.00    +0.047 A 
ENDROOT
BRANCH   1   9
ATOM      7  C   UNL     1      10.581   0.306  24.827  0.00  0.00    +0.109 C 
ATOM      8  C   UNL     1       9.957  -0.726  23.927  0.00  0.00    +0.214 C 
ATOM      9  N   UNL     1       8.794  -1.263  24.446  0.00  0.00    -0.284 N 
ATOM     10  H   UNL     1       8.305  -0.748  25.167  0.00  0.00    +0.155 HD
ATOM     11  O   UNL     1      10.460  -1.019  22.847  0.00  0.00    -0.276 OA
ENDBRANCH   1   9
BRANCH   6  12
ATOM     12  N   UNL     1       6.501  -0.515  23.024  0.00  0.00    -0.357 N 
ATOM     13  H   UNL     1       5.541  -0.387  23.336  0.00  0.00    +0.142 HD
ATOM     14  H   UNL     1       6.614  -0.127  22.091  0.00  0.00    +0.142 HD
ENDBRANCH   6  12
BRANCH   4  15
ATOM     15  C   UNL     1       5.607  -5.187  21.851  0.00  0.00    +0.337 C 
ATOM     16  O   UNL     1       4.631  -5.708  22.357  0.00  0.00    -0.245 OA
BRANCH  15  17
ATOM     17  O   UNL     1       6.035  -5.468  20.604  0.00  0.00    -0.477 OA
ATOM     18  H   UNL     1       7.004  -5.484  20.501  0.00  0.00    +0.295 HD
ENDBRANCH  15  17
ENDBRANCH   4  15
TORSDOF 4
ENDMDL
