MODEL 1
REMARK VINA RESULT:      -4.6      0.000      0.000
REMARK  Name = 
REMARK  4 active torsions:
REMARK  status: ('A' for Active; 'I' for Inactive)
REMARK    1  A    between atoms: N_1  and  C_2
REMARK    2  A    between atoms: C_4  and  O_6
REMARK    3  A    between atoms: C_10  and  C_11
REMARK    4  A    between atoms: C_11  and  O_12
REMARK                            x       y       z     vdW  Elec       q    Type
REMARK                         _______ _______ _______ _____ _____    ______ ____
ROOT
ATOM      1  C   UNL     1       9.930   1.118  22.334  0.00  0.00    +0.121 C 
ATOM      2  C   UNL     1       9.602  -0.063  23.237  0.00  0.00    +0.056 C 
ATOM      3  C   UNL     1       9.067   0.094  24.463  0.00  0.00    +0.012 C 
ATOM      4  C   UNL     1       8.703   1.392  24.976  0.00  0.00    -0.001 C 
ATOM      5  C   UNL     1       9.081   2.513  24.352  0.00  0.00    +0.006 C 
ATOM      6  C   UNL     1       9.857   2.511  23.069  0.00  0.00    +0.159 C 
ENDROOT
BRANCH   1   7
ATOM      7  N   UNL     1       9.052   1.120  21.147  0.00  0.00    -0.321 NA
ATOM      8  H   UNL     1       9.604   1.375  20.327  0.00  0.00    +0.119 HD
ATOM      9  H   UNL     1       8.665   0.193  20.992  0.00  0.00    +0.119 HD
ENDBRANCH   1   7
BRANCH   2  10
ATOM     10  C   UNL     1      10.030  -1.392  22.733  0.00  0.00    +0.334 C 
ATOM     11  O   UNL     1      10.251  -2.340  23.470  0.00  0.00    -0.245 OA
BRANCH  10  12
ATOM     12  O   UNL     1      10.218  -1.466  21.399  0.00  0.00    -0.477 OA
ATOM     13  H   UNL     1      10.975  -0.966  21.052  0.00  0.00    +0.295 HD
ENDBRANCH  10  12
ENDBRANCH   2  10
BRANCH   6  14
ATOM     14  O   UNL     1      11.165   2.996  23.386  0.00  0.00    -0.386 OA
ATOM     15  H   UNL     1      11.150   3.264  24.321  0.00  0.00    +0.210 HD
ENDBRANCH   6  14
TORSDOF 4
ENDMDL
MODEL 2
REMARK VINA RESULT:      -4.6      4.762      6.083
REMARK  Name = 
REMARK  4 active torsions:
REMARK  status: ('A' for Active; 'I' for Inactive)
REMARK    1  A    between atoms: N_1  and  C_2
REMARK    2  A    between atoms: C_4  and  O_6
REMARK    3  A    between atoms: C_10  and  C_11
REMARK    4  A    between atoms: C_11  and  O_12
REMARK                            x       y       z     vdW  Elec       q    Type
REMARK                         _______ _______ _______ _____ _____    ______ ____
ROOT
ATOM      1  C   UNL     1       9.139  -4.201  25.229  0.00  0.00    +0.121 C 
ATOM      2  C   UNL     1       7.735  -4.784  25.147  0.00  0.00    +0.056 C 
ATOM      3  C   UNL     1       6.890  -4.489  24.141  0.00  0.00    +0.012 C 
ATOM      4  C   UNL     1       7.284  -3.653  23.034  0.00  0.00    -0.001 C 
ATOM      5  C   UNL     1       8.425  -2.957  23.065  0.00  0.00    +0.006 C 
ATOM      6  C   UNL     1       9.392  -3.026  24.210  0.00  0.00    +0.159 C 
ENDROOT
BRANCH   1   7
ATOM      7  N   UNL     1      10.150  -5.261  25.047  0.00  0.00    -0.321 NA
ATOM      8  H   UNL     1       9.710  -6.063  24.593  0.00  0.00    +0.119 HD
ATOM      9  H   UNL     1      10.904  -4.933  24.448  0.00  0.00    +0.119 HD
ENDBRANCH   1   7
BRANCH   2  10
ATOM     10  C   UNL     1       7.310  -5.596  26.315  0.00  0.00    +0.334 C 
ATOM     11  O   UNL     1       6.218  -6.138  26.383  0.00  0.00    -0.245 OA
BRANCH  10  12
ATOM     12  O   UNL     1       8.196  -5.647  27.331  0.00  0.00    -0.477 OA
ATOM     13  H   UNL     1       7.894  -5.267  28.173  0.00  0.00    +0.295 HD
ENDBRANCH  10  12
ENDBRANCH   2  10
BRANCH   6  14
ATOM     14  O   UNL     1       9.335  -1.754  24.863  0.00  0.00    -0.386 OA
ATOM     15  H   UNL     1       8.411  -1.611  25.130  0.00  0.00    +0.210 HD
ENDBRANCH   6  14
TORSDOF 4
ENDMDL
MODEL 3
REMARK VINA RESULT:      -4.6      1.646      1.881
REMARK  Name = 
REMARK  4 active torsions:
REMARK  status: ('A' for Active; 'I' for Inactive)
REMARK    1  A    between atoms: N_1  and  C_2
REMARK    2  A    between atoms: C_4  and  O_6
REMARK    3  A    between atoms: C_10  and  C_11
REMARK    4  A    between atoms: C_11  and  O_12
REMARK                            x       y       z     vdW  Elec       q    Type
REMARK                         _______ _______ _______ _____ _____    ______ ____
ROOT
ATOM      1  C   UNL     1       8.635   0.269  22.536  0.00  0.00    +0.121 C 
ATOM      2  C   UNL     1       9.447  -0.699  23.386  0.00  0.00    +0.056 C 
ATOM      3  C   UNL     1      10.359  -0.279  24.284  0.00  0.00    +0.012 C 
ATOM      4  C   UNL     1      10.580   1.121  24.548  0.00  0.00    -0.001 C 
ATOM      5  C   UNL     1      10.051   2.066  23.764  0.00  0.00    +0.006 C 
ATOM      6  C   UNL     1       9.162   1.753  22.597  0.00  0.00    +0.159 C 
ENDROOT
BRANCH   1   7
ATOM      7  N   UNL     1       7.209   0.218  22.915  0.00  0.00    -0.321 NA
ATOM      8  H   UNL     1       7.044   0.879  23.674  0.00  0.00    +0.119 HD
ATOM      9  H   UNL     1       6.624   0.488  22.128  0.00  0.00    +0.119 HD
ENDBRANCH   1   7
BRANCH   2  10
ATOM     10  C   UNL     1       9.261  -2.138  23.072  0.00  0.00    +0.334 C 
ATOM     11  O   UNL     1       8.430  -2.540  22.273  0.00  0.00    -0.245 OA
BRANCH  10  12
ATOM     12  O   UNL     1      10.039  -2.984  23.778  0.00  0.00    -0.477 OA
ATOM     13  H   UNL     1      10.996  -2.895  23.636  0.00  0.00    +0.295 HD
ENDBRANCH  10  12
ENDBRANCH   2  10
BRANCH   6  14
ATOM     14  O   UNL     1       9.908   2.085  21.422  0.00  0.00    -0.386 OA
ATOM     15  H   UNL     1       9.511   1.592  20.683  0.00  0.00    +0.210 HD
ENDBRANCH   6  14
TORSDOF 4
ENDMDL
MODEL 4
REMARK VINA RESULT:      -4.6      2.021      3.845
REMARK  Name = 
REMARK  4 active torsions:
REMARK  status: ('A' for Active; 'I' for Inactive)
REMARK    1  A    between atoms: N_1  and  C_2
REMARK    2  A    between atoms: C_4  and  O_6
REMARK    3  A    between atoms: C_10  and  C_11
REMARK    4  A    between atoms: C_11  and  O_12
REMARK                            x       y       z     vdW  Elec       q    Type
REMARK                         _______ _______ _______ _____ _____    ______ ____
ROOT
ATOM      1  C   UNL     1      10.106  -0.302  24.186  0.00  0.00    +0.121 C 
ATOM      2  C   UNL     1       9.387   0.610  23.199  0.00  0.00    +0.056 C 
ATOM      3  C   UNL     1       8.203   0.282  22.647  0.00  0.00    +0.012 C 
ATOM      4  C   UNL     1       7.502  -0.926  23.005  0.00  0.00    -0.001 C 
ATOM      5  C   UNL     1       8.094  -1.879  23.734  0.00  0.00    +0.006 C 
ATOM      6  C   UNL     1       9.490  -1.750  24.266  0.00  0.00    +0.159 C 
ENDROOT
BRANCH   1   7
ATOM      7  N   UNL     1      10.140   0.314  25.527  0.00  0.00    -0.321 NA
ATOM      8  H   UNL     1      10.985   0.881  25.609  0.00  0.00    +0.119 HD
ATOM      9  H   UNL     1       9.336   0.924  25.657  0.00  0.00    +0.119 HD
ENDBRANCH   1   7
BRANCH   2  10
ATOM     10  C   UNL     1      10.136   1.823  22.787  0.00  0.00    +0.334 C 
ATOM     11  O   UNL     1      10.778   2.504  23.571  0.00  0.00    -0.245 OA
BRANCH  10  12
ATOM     12  O   UNL     1      10.010   2.160  21.486  0.00  0.00    -0.477 OA
ATOM     13  H   UNL     1       9.134   2.484  21.218  0.00  0.00    +0.295 HD
ENDBRANCH  10  12
ENDBRANCH   2  10
BRANCH   6  14
ATOM     14  O   UNL     1      10.287  -2.691  23.541  0.00  0.00    -0.386 OA
ATOM     15  H   UNL     1       9.676  -3.255  23.037  0.00  0.00    +0.210 HD
ENDBRANCH   6  14
TORSDOF 4
ENDMDL
MODEL 5
REMARK VINA RESULT:      -4.5      2.071      3.489
REMARK  Name = 
REMARK  4 active torsions:
REMARK  status: ('A' for Active; 'I' for Inactive)
REMARK    1  A    between atoms: N_1  and  C_2
REMARK    2  A    between atoms: C_4  and  O_6
REMARK    3  A    between atoms: C_10  and  C_11
REMARK    4  A    between atoms: C_11  and  O_12
REMARK                            x       y       z     vdW  Elec       q    Type
REMARK                         _______ _______ _______ _____ _____    ______ ____
ROOT
ATOM      1  C   UNL     1       8.790  -0.073  22.289  0.00  0.00    +0.121 C 
ATOM      2  C   UNL     1       9.628   0.689  23.307  0.00  0.00    +0.056 C 
ATOM      3  C   UNL     1       9.714   0.311  24.596  0.00  0.00    +0.012 C 
ATOM      4  C   UNL     1       9.071  -0.883  25.086  0.00  0.00    -0.001 C 
ATOM      5  C   UNL     1       8.184  -1.548  24.338  0.00  0.00    +0.006 C 
ATOM      6  C   UNL     1       7.830  -1.140  22.938  0.00  0.00    +0.159 C 
ENDROOT
BRANCH   1   7
ATOM      7  N   UNL     1       9.658  -0.712  21.281  0.00  0.00    -0.321 NA
ATOM      8  H   UNL     1       9.685  -1.718  21.458  0.00  0.00    +0.119 HD
ATOM      9  H   UNL     1       9.283  -0.566  20.347  0.00  0.00    +0.119 HD
ENDBRANCH   1   7
BRANCH   2  10
ATOM     10  C   UNL     1      10.241   1.950  22.816  0.00  0.00    +0.334 C 
ATOM     11  O   UNL     1      10.829   2.729  23.549  0.00  0.00    -0.245 OA
BRANCH  10  12
ATOM     12  O   UNL     1      10.050   2.208  21.506  0.00  0.00    -0.477 OA
ATOM     13  H   UNL     1      10.311   3.096  21.209  0.00  0.00    +0.295 HD
ENDBRANCH  10  12
ENDBRANCH   2  10
BRANCH   6  14
ATOM     14  O   UNL     1       6.483  -0.662  22.987  0.00  0.00    -0.386 OA
ATOM     15  H   UNL     1       6.121  -0.914  23.853  0.00  0.00    +0.210 HD
ENDBRANCH   6  14
TORSDOF 4
ENDMDL
MODEL 6
REMARK VINA RESULT:      -4.5      1.918      2.252
REMARK  Name = 
REMARK  4 active torsions:
REMARK  status: ('A' for Active; 'I' for Inactive)
REMARK    1  A    between atoms: N_1  and  C_2
REMARK    2  A    between atoms: C_4  and  O_6
REMARK    3  A    between atoms: C_10  and  C_11
REMARK    4  A    between atoms: C_11  and  O_12
REMARK                            x       y       z     vdW  Elec       q    Type
REMARK                         _______ _______ _______ _____ _____    ______ ____
ROOT
ATOM      1  C   UNL     1       9.829  -0.104  22.268  0.00  0.00    +0.121 C 
ATOM      2  C   UNL     1       8.856  -0.414  23.398  0.00  0.00    +0.056 C 
ATOM      3  C   UNL     1       7.666   0.206  23.515  0.00  0.00    +0.012 C 
ATOM      4  C   UNL     1       7.204   1.160  22.536  0.00  0.00    -0.001 C 
ATOM      5  C   UNL     1       8.022   1.633  21.591  0.00  0.00    +0.006 C 
ATOM      6  C   UNL     1       9.446   1.184  21.445  0.00  0.00    +0.159 C 
ENDROOT
BRANCH   1   7
ATOM      7  N   UNL     1       9.961  -1.266  21.367  0.00  0.00    -0.321 NA
ATOM      8  H   UNL     1      10.527  -0.997  20.561  0.00  0.00    +0.119 HD
ATOM      9  H   UNL     1      10.432  -2.032  21.843  0.00  0.00    +0.119 HD
ENDBRANCH   1   7
BRANCH   2  10
ATOM     10  C   UNL     1       9.357  -1.351  24.435  0.00  0.00    +0.334 C 
ATOM     11  O   UNL     1       9.227  -1.145  25.632  0.00  0.00    -0.245 OA
BRANCH  10  12
ATOM     12  O   UNL     1      10.023  -2.425  23.964  0.00  0.00    -0.477 OA
ATOM     13  H   UNL     1      10.410  -2.326  23.078  0.00  0.00    +0.295 HD
ENDBRANCH  10  12
ENDBRANCH   2  10
BRANCH   6  14
ATOM     14  O   UNL     1      10.261   2.298  21.820  0.00  0.00    -0.386 OA
ATOM     15  H   UNL     1      10.431   2.219  22.774  0.00  0.00    +0.210 HD
ENDBRANCH   6  14
TORSDOF 4
ENDMDL
MODEL 7
REMARK VINA RESULT:      -4.5      2.384      3.849
REMARK  Name = 
REMARK  4 active torsions:
REMARK  status: ('A' for Active; 'I' for Inactive)
REMARK    1  A    between atoms: N_1  and  C_2
REMARK    2  A    between atoms: C_4  and  O_6
REMARK    3  A    between atoms: C_10  and  C_11
REMARK    4  A    between atoms: C_11  and  O_12
REMARK                            x       y       z     vdW  Elec       q    Type
REMARK                         _______ _______ _______ _____ _____    ______ ____
ROOT
ATOM      1  C   UNL     1       7.992  -0.088  23.542  0.00  0.00    +0.121 C 
ATOM      2  C   UNL     1       8.930   0.252  22.392  0.00  0.00    +0.056 C 
ATOM      3  C   UNL     1       9.973  -0.533  22.057  0.00  0.00    +0.012 C 
ATOM      4  C   UNL     1      10.230  -1.785  22.724  0.00  0.00    -0.001 C 
ATOM      5  C   UNL     1       9.581  -2.119  23.844  0.00  0.00    +0.006 C 
ATOM      6  C   UNL     1       8.519  -1.256  24.459  0.00  0.00    +0.159 C 
ENDROOT
BRANCH   1   7
ATOM      7  N   UNL     1       6.644  -0.408  23.031  0.00  0.00    -0.321 NA
ATOM      8  H   UNL     1       5.950  -0.096  23.711  0.00  0.00    +0.119 HD
ATOM      9  H   UNL     1       6.472   0.082  22.156  0.00  0.00    +0.119 HD
ENDBRANCH   1   7
BRANCH   2  10
ATOM     10  C   UNL     1       8.700   1.568  21.745  0.00  0.00    +0.334 C 
ATOM     11  O   UNL     1       7.586   1.985  21.469  0.00  0.00    -0.245 OA
BRANCH  10  12
ATOM     12  O   UNL     1       9.817   2.253  21.426  0.00  0.00    -0.477 OA
ATOM     13  H   UNL     1      10.167   2.836  22.120  0.00  0.00    +0.295 HD
ENDBRANCH  10  12
ENDBRANCH   2  10
BRANCH   6  14
ATOM     14  O   UNL     1       9.067  -0.748  25.678  0.00  0.00    -0.386 OA
ATOM     15  H   UNL     1       8.411  -0.912  26.377  0.00  0.00    +0.210 HD
ENDBRANCH   6  14
TORSDOF 4
ENDMDL
MODEL 8
REMARK VINA RESULT:      -4.4      6.156      7.103
REMARK  Name = 
REMARK  4 active torsions:
REMARK  status: ('A' for Active; 'I' for Inactive)
REMARK    1  A    between atoms: N_1  and  C_2
REMARK    2  A    between atoms: C_4  and  O_6
REMARK    3  A    between atoms: C_10  and  C_11
REMARK    4  A    between atoms: C_11  and  O_12
REMARK                            x       y       z     vdW  Elec       q    Type
REMARK                         _______ _______ _______ _____ _____    ______ ____
ROOT
ATOM      1  C   UNL     1       7.550  -4.957  23.693  0.00  0.00    +0.121 C 
ATOM      2  C   UNL     1       6.253  -5.487  24.288  0.00  0.00    +0.056 C 
ATOM      3  C   UNL     1       6.055  -5.581  25.617  0.00  0.00    +0.012 C 
ATOM      4  C   UNL     1       7.037  -5.121  26.568  0.00  0.00    -0.001 C 
ATOM      5  C   UNL     1       8.272  -4.784  26.181  0.00  0.00    +0.006 C 
ATOM      6  C   UNL     1       8.712  -4.812  24.747  0.00  0.00    +0.159 C 
ENDROOT
BRANCH   1   7
ATOM      7  N   UNL     1       7.317  -3.670  23.009  0.00  0.00    -0.321 NA
ATOM      8  H   UNL     1       7.831  -3.665  22.127  0.00  0.00    +0.119 HD
ATOM      9  H   UNL     1       6.328  -3.554  22.800  0.00  0.00    +0.119 HD
ENDBRANCH   1   7
BRANCH   2  10
ATOM     10  C   UNL     1       5.268  -6.014  23.309  0.00  0.00    +0.334 C 
ATOM     11  O   UNL     1       4.877  -5.369  22.350  0.00  0.00    -0.245 OA
BRANCH  10  12
ATOM     12  O   UNL     1       4.786  -7.243  23.588  0.00  0.00    -0.477 OA
ATOM     13  H   UNL     1       3.937  -7.265  24.060  0.00  0.00    +0.295 HD
ENDBRANCH  10  12
ENDBRANCH   2  10
BRANCH   6  14
ATOM     14  O   UNL     1       9.650  -5.886  24.634  0.00  0.00    -0.386 OA
ATOM     15  H   UNL     1       9.446  -6.519  25.342  0.00  0.00    +0.210 HD
ENDBRANCH   6  14
TORSDOF 4
ENDMDL
MODEL 9
REMARK VINA RESULT:      -4.4      1.932      2.441
REMARK  Name = 
REMARK  4 active torsions:
REMARK  status: ('A' for Active; 'I' for Inactive)
REMARK    1  A    between atoms: N_1  and  C_2
REMARK    2  A    between atoms: C_4  and  O_6
REMARK    3  A    between atoms: C_10  and  C_11
REMARK    4  A    between atoms: C_11  and  O_12
REMARK                            x       y       z     vdW  Elec       q    Type
REMARK                         _______ _______ _______ _____ _____    ______ ____
ROOT
ATOM      1  C   UNL     1       9.302   0.445  24.391  0.00  0.00    +0.121 C 
ATOM      2  C   UNL     1       9.815   0.097  23.000  0.00  0.00    +0.056 C 
ATOM      3  C   UNL     1       9.934   1.018  22.025  0.00  0.00    +0.012 C 
ATOM      4  C   UNL     1       9.647   2.413  22.253  0.00  0.00    -0.001 C 
ATOM      5  C   UNL     1       9.043   2.821  23.374  0.00  0.00    +0.006 C 
ATOM      6  C   UNL     1       8.665   1.884  24.484  0.00  0.00    +0.159 C 
ENDROOT
BRANCH   1   7
ATOM      7  N   UNL     1      10.378   0.297  25.390  0.00  0.00    -0.321 NA
ATOM      8  H   UNL     1      10.165   0.887  26.196  0.00  0.00    +0.119 HD
ATOM      9  H   UNL     1      10.434  -0.666  25.710  0.00  0.00    +0.119 HD
ENDBRANCH   1   7
BRANCH   2  10
ATOM     10  C   UNL     1      10.054  -1.347  22.749  0.00  0.00    +0.334 C 
ATOM     11  O   UNL     1      10.140  -2.170  23.646  0.00  0.00    -0.245 OA
BRANCH  10  12
ATOM     12  O   UNL     1      10.230  -1.681  21.454  0.00  0.00    -0.477 OA
ATOM     13  H   UNL     1      10.646  -2.545  21.295  0.00  0.00    +0.295 HD
ENDBRANCH  10  12
ENDBRANCH   2  10
BRANCH   6  14
ATOM     14  O   UNL     1       7.236   1.818  24.487  0.00  0.00    -0.386 OA
ATOM     15  H   UNL     1       6.991   0.925  24.190  0.00  0.00    +0.210 HD
ENDBRANCH   6  14
TORSDOF 4
ENDMDL
