MODEL 1
REMARK VINA RESULT:      -2.9      0.000      0.000
REMARK  Name = 
REMARK  5 active torsions:
REMARK  status: ('A' for Active; 'I' for Inactive)
REMARK    1  A    between atoms: N_1  and  C_5
REMARK    2  A    between atoms: C_5  and  C_6
REMARK    3  A    between atoms: C_6  and  C_7
REMARK    4  A    between atoms: C_7  and  C_8
REMARK    5  A    between atoms: C_8  and  O_9
REMARK                            x       y       z     vdW  Elec       q    Type
REMARK                         _______ _______ _______ _____ _____    ______ ____
ROOT
ATOM      1  C   UNL     1       9.858   1.924  22.996  0.00  0.00    +0.127 C 
ENDROOT
BRANCH   1   2
ATOM      2  N   UNL     1       9.817   1.840  21.517  0.00  0.00    +0.219 N 
ATOM      3  H   UNL     1       9.788   2.781  21.100  0.00  0.00    +0.199 HD
ATOM      4  H   UNL     1       8.984   1.334  21.189  0.00  0.00    +0.199 HD
ATOM      5  H   UNL     1      10.647   1.369  21.132  0.00  0.00    +0.199 HD
ENDBRANCH   1   2
BRANCH   1   6
ATOM      6  C   UNL     1      10.509   0.682  23.587  0.00  0.00    +0.053 C 
BRANCH   6   7
ATOM      7  C   UNL     1       9.603  -0.557  23.566  0.00  0.00    +0.033 C 
BRANCH   7   8
ATOM      8  C   UNL     1      10.230  -1.697  22.769  0.00  0.00    +0.156 C 
BRANCH   8   9
ATOM      9  O   UNL     1      10.158  -1.391  21.388  0.00  0.00    -0.395 OA
ATOM     10  H   UNL     1      10.474  -0.478  21.263  0.00  0.00    +0.209 HD
ENDBRANCH   8   9
ENDBRANCH   7   8
ENDBRANCH   6   7
ENDBRANCH   1   6
TORSDOF 5
ENDMDL
MODEL 2
REMARK VINA RESULT:      -2.8      1.936      2.890
REMARK  Name = 
REMARK  5 active torsions:
REMARK  status: ('A' for Active; 'I' for Inactive)
REMARK    1  A    between atoms: N_1  and  C_5
REMARK    2  A    between atoms: C_5  and  C_6
REMARK    3  A    between atoms: C_6  and  C_7
REMARK    4  A    between atoms: C_7  and  C_8
REMARK    5  A    between atoms: C_8  and  O_9
REMARK                            x       y       z     vdW  Elec       q    Type
REMARK                         _______ _______ _______ _____ _____    ______ ____
ROOT
ATOM      1  C   UNL     1      10.031  -1.331  22.606  0.00  0.00    +0.127 C 
ENDROOT
BRANCH   1   2
ATOM      2  N   UNL     1       9.718  -0.902  21.223  0.00  0.00    +0.219 N 
ATOM      3  H   UNL     1      10.539  -0.464  20.783  0.00  0.00    +0.199 HD
ATOM      4  H   UNL     1       8.955  -0.213  21.203  0.00  0.00    +0.199 HD
ATOM      5  H   UNL     1       9.445  -1.694  20.624  0.00  0.00    +0.199 HD
ENDBRANCH   1   2
BRANCH   1   6
ATOM      6  C   UNL     1      10.542  -0.158  23.431  0.00  0.00    +0.053 C 
BRANCH   6   7
ATOM      7  C   UNL     1       9.542   1.003  23.533  0.00  0.00    +0.033 C 
BRANCH   7   8
ATOM      8  C   UNL     1      10.102   2.281  22.918  0.00  0.00    +0.156 C 
BRANCH   8   9
ATOM      9  O   UNL     1      10.072   2.169  21.507  0.00  0.00    -0.395 OA
ATOM     10  H   UNL     1       9.211   2.503  21.195  0.00  0.00    +0.209 HD
ENDBRANCH   8   9
ENDBRANCH   7   8
ENDBRANCH   6   7
ENDBRANCH   1   6
TORSDOF 5
ENDMDL
MODEL 3
REMARK VINA RESULT:      -2.8      4.334      5.254
REMARK  Name = 
REMARK  5 active torsions:
REMARK  status: ('A' for Active; 'I' for Inactive)
REMARK    1  A    between atoms: N_1  and  C_5
REMARK    2  A    between atoms: C_5  and  C_6
REMARK    3  A    between atoms: C_6  and  C_7
REMARK    4  A    between atoms: C_7  and  C_8
REMARK    5  A    between atoms: C_8  and  O_9
REMARK                            x       y       z     vdW  Elec       q    Type
REMARK                         _______ _______ _______ _____ _____    ______ ____
ROOT
ATOM      1  C   UNL     1       9.577   3.278  23.485  0.00  0.00    +0.127 C 
ENDROOT
BRANCH   1   2
ATOM      2  N   UNL     1       9.891   2.508  22.259  0.00  0.00    +0.219 N 
ATOM      3  H   UNL     1       9.313   2.828  21.470  0.00  0.00    +0.199 HD
ATOM      4  H   UNL     1       9.709   1.504  22.384  0.00  0.00    +0.199 HD
ATOM      5  H   UNL     1      10.874   2.618  21.973  0.00  0.00    +0.199 HD
ENDBRANCH   1   2
BRANCH   1   6
ATOM      6  C   UNL     1      10.482   4.496  23.602  0.00  0.00    +0.053 C 
BRANCH   6   7
ATOM      7  C   UNL     1      11.962   4.192  23.326  0.00  0.00    +0.033 C 
BRANCH   7   8
ATOM      8  C   UNL     1      12.805   5.462  23.326  0.00  0.00    +0.156 C 
BRANCH   8   9
ATOM      9  O   UNL     1      14.168   5.114  23.155  0.00  0.00    -0.395 OA
ATOM     10  H   UNL     1      14.586   5.089  24.035  0.00  0.00    +0.209 HD
ENDBRANCH   8   9
ENDBRANCH   7   8
ENDBRANCH   6   7
ENDBRANCH   1   6
TORSDOF 5
ENDMDL
MODEL 4
REMARK VINA RESULT:      -2.8      1.824      1.933
REMARK  Name = 
REMARK  5 active torsions:
REMARK  status: ('A' for Active; 'I' for Inactive)
REMARK    1  A    between atoms: N_1  and  C_5
REMARK    2  A    between atoms: C_5  and  C_6
REMARK    3  A    between atoms: C_6  and  C_7
REMARK    4  A    between atoms: C_7  and  C_8
REMARK    5  A    between atoms: C_8  and  O_9
REMARK                            x       y       z     vdW  Elec       q    Type
REMARK                         _______ _______ _______ _____ _____    ______ ____
ROOT
ATOM      1  C   UNL     1       9.453   0.519  21.572  0.00  0.00    +0.127 C 
ENDROOT
BRANCH   1   2
ATOM      2  N   UNL     1       9.697   1.979  21.520  0.00  0.00    +0.219 N 
ATOM      3  H   UNL     1      10.041   2.323  22.427  0.00  0.00    +0.199 HD
ATOM      4  H   UNL     1       8.838   2.500  21.301  0.00  0.00    +0.199 HD
ATOM      5  H   UNL     1      10.407   2.229  20.818  0.00  0.00    +0.199 HD
ENDBRANCH   1   2
BRANCH   1   6
ATOM      6  C   UNL     1      10.196  -0.110  22.742  0.00  0.00    +0.053 C 
BRANCH   6   7
ATOM      7  C   UNL     1      10.197  -1.646  22.716  0.00  0.00    +0.033 C 
BRANCH   7   8
ATOM      8  C   UNL     1       9.643  -2.228  24.012  0.00  0.00    +0.156 C 
BRANCH   8   9
ATOM      9  O   UNL     1      10.093  -3.565  24.149  0.00  0.00    -0.395 OA
ATOM     10  H   UNL     1      11.063  -3.550  24.242  0.00  0.00    +0.209 HD
ENDBRANCH   8   9
ENDBRANCH   7   8
ENDBRANCH   6   7
ENDBRANCH   1   6
TORSDOF 5
ENDMDL
MODEL 5
REMARK VINA RESULT:      -2.7      2.177      2.428
REMARK  Name = 
REMARK  5 active torsions:
REMARK  status: ('A' for Active; 'I' for Inactive)
REMARK    1  A    between atoms: N_1  and  C_5
REMARK    2  A    between atoms: C_5  and  C_6
REMARK    3  A    between atoms: C_6  and  C_7
REMARK    4  A    between atoms: C_7  and  C_8
REMARK    5  A    between atoms: C_8  and  O_9
REMARK                            x       y       z     vdW  Elec       q    Type
REMARK                         _______ _______ _______ _____ _____    ______ ____
ROOT
ATOM      1  C   UNL     1       9.290   0.763  21.564  0.00  0.00    +0.127 C 
ENDROOT
BRANCH   1   2
ATOM      2  N   UNL     1       9.958   2.081  21.674  0.00  0.00    +0.219 N 
ATOM      3  H   UNL     1      10.386   2.348  20.777  0.00  0.00    +0.199 HD
ATOM      4  H   UNL     1      10.706   2.069  22.379  0.00  0.00    +0.199 HD
ATOM      5  H   UNL     1       9.298   2.830  21.925  0.00  0.00    +0.199 HD
ENDBRANCH   1   2
BRANCH   1   6
ATOM      6  C   UNL     1      10.094  -0.310  22.284  0.00  0.00    +0.053 C 
BRANCH   6   7
ATOM      7  C   UNL     1       9.655  -0.536  23.738  0.00  0.00    +0.033 C 
BRANCH   7   8
ATOM      8  C   UNL     1      10.512   0.265  24.713  0.00  0.00    +0.156 C 
BRANCH   8   9
ATOM      9  O   UNL     1       9.935   1.547  24.892  0.00  0.00    -0.395 OA
ATOM     10  H   UNL     1      10.501   2.051  25.505  0.00  0.00    +0.209 HD
ENDBRANCH   8   9
ENDBRANCH   7   8
ENDBRANCH   6   7
ENDBRANCH   1   6
TORSDOF 5
ENDMDL
MODEL 6
REMARK VINA RESULT:      -2.7      2.465      2.913
REMARK  Name = 
REMARK  5 active torsions:
REMARK  status: ('A' for Active; 'I' for Inactive)
REMARK    1  A    between atoms: N_1  and  C_5
REMARK    2  A    between atoms: C_5  and  C_6
REMARK    3  A    between atoms: C_6  and  C_7
REMARK    4  A    between atoms: C_7  and  C_8
REMARK    5  A    between atoms: C_8  and  O_9
REMARK                            x       y       z     vdW  Elec       q    Type
REMARK                         _______ _______ _______ _____ _____    ______ ____
ROOT
ATOM      1  C   UNL     1       9.554   0.001  24.222  0.00  0.00    +0.127 C 
ENDROOT
BRANCH   1   2
ATOM      2  N   UNL     1      10.562   0.522  25.176  0.00  0.00    +0.219 N 
ATOM      3  H   UNL     1      11.515   0.351  24.827  0.00  0.00    +0.199 HD
ATOM      4  H   UNL     1      10.486   0.066  26.094  0.00  0.00    +0.199 HD
ATOM      5  H   UNL     1      10.473   1.537  25.318  0.00  0.00    +0.199 HD
ENDBRANCH   1   2
BRANCH   1   6
ATOM      6  C   UNL     1      10.232  -0.670  23.036  0.00  0.00    +0.053 C 
BRANCH   6   7
ATOM      7  C   UNL     1       9.763  -0.135  21.676  0.00  0.00    +0.033 C 
BRANCH   7   8
ATOM      8  C   UNL     1       9.130   1.247  21.804  0.00  0.00    +0.156 C 
BRANCH   8   9
ATOM      9  O   UNL     1      10.107   2.233  21.523  0.00  0.00    -0.395 OA
ATOM     10  H   UNL     1      10.912   1.781  21.210  0.00  0.00    +0.209 HD
ENDBRANCH   8   9
ENDBRANCH   7   8
ENDBRANCH   6   7
ENDBRANCH   1   6
TORSDOF 5
ENDMDL
MODEL 7
REMARK VINA RESULT:      -2.7      2.892      3.522
REMARK  Name = 
REMARK  5 active torsions:
REMARK  status: ('A' for Active; 'I' for Inactive)
REMARK    1  A    between atoms: N_1  and  C_5
REMARK    2  A    between atoms: C_5  and  C_6
REMARK    3  A    between atoms: C_6  and  C_7
REMARK    4  A    between atoms: C_7  and  C_8
REMARK    5  A    between atoms: C_8  and  O_9
REMARK                            x       y       z     vdW  Elec       q    Type
REMARK                         _______ _______ _______ _____ _____    ______ ____
ROOT
ATOM      1  C   UNL     1       9.815  -1.471  23.633  0.00  0.00    +0.127 C 
ENDROOT
BRANCH   1   2
ATOM      2  N   UNL     1       9.797  -2.890  24.062  0.00  0.00    +0.219 N 
ATOM      3  H   UNL     1      10.070  -3.508  23.285  0.00  0.00    +0.199 HD
ATOM      4  H   UNL     1       8.860  -3.181  24.369  0.00  0.00    +0.199 HD
ATOM      5  H   UNL     1      10.454  -3.070  24.833  0.00  0.00    +0.199 HD
ENDBRANCH   1   2
BRANCH   1   6
ATOM      6  C   UNL     1      10.108  -1.362  22.144  0.00  0.00    +0.053 C 
BRANCH   6   7
ATOM      7  C   UNL     1       9.459  -0.142  21.476  0.00  0.00    +0.033 C 
BRANCH   7   8
ATOM      8  C   UNL     1       9.973   1.164  22.074  0.00  0.00    +0.156 C 
BRANCH   8   9
ATOM      9  O   UNL     1       9.353   2.252  21.413  0.00  0.00    -0.395 OA
ATOM     10  H   UNL     1      10.012   2.963  21.316  0.00  0.00    +0.209 HD
ENDBRANCH   8   9
ENDBRANCH   7   8
ENDBRANCH   6   7
ENDBRANCH   1   6
TORSDOF 5
ENDMDL
MODEL 8
REMARK VINA RESULT:      -2.7      1.989      2.149
REMARK  Name = 
REMARK  5 active torsions:
REMARK  status: ('A' for Active; 'I' for Inactive)
REMARK    1  A    between atoms: N_1  and  C_5
REMARK    2  A    between atoms: C_5  and  C_6
REMARK    3  A    between atoms: C_6  and  C_7
REMARK    4  A    between atoms: C_7  and  C_8
REMARK    5  A    between atoms: C_8  and  O_9
REMARK                            x       y       z     vdW  Elec       q    Type
REMARK                         _______ _______ _______ _____ _____    ______ ____
ROOT
ATOM      1  C   UNL     1       9.438   0.958  24.228  0.00  0.00    +0.127 C 
ENDROOT
BRANCH   1   2
ATOM      2  N   UNL     1      10.448   0.573  25.242  0.00  0.00    +0.219 N 
ATOM      3  H   UNL     1      10.004   0.412  26.156  0.00  0.00    +0.199 HD
ATOM      4  H   UNL     1      11.155   1.309  25.371  0.00  0.00    +0.199 HD
ATOM      5  H   UNL     1      10.938  -0.296  24.990  0.00  0.00    +0.199 HD
ENDBRANCH   1   2
BRANCH   1   6
ATOM      6  C   UNL     1      10.113   1.445  22.954  0.00  0.00    +0.053 C 
BRANCH   6   7
ATOM      7  C   UNL     1       9.596   0.757  21.682  0.00  0.00    +0.033 C 
BRANCH   7   8
ATOM      8  C   UNL     1       9.199  -0.691  21.950  0.00  0.00    +0.156 C 
BRANCH   8   9
ATOM      9  O   UNL     1      10.215  -1.548  21.460  0.00  0.00    -0.395 OA
ATOM     10  H   UNL     1      10.901  -0.996  21.042  0.00  0.00    +0.209 HD
ENDBRANCH   8   9
ENDBRANCH   7   8
ENDBRANCH   6   7
ENDBRANCH   1   6
TORSDOF 5
ENDMDL
MODEL 9
REMARK VINA RESULT:      -2.4      2.807      3.102
REMARK  Name = 
REMARK  5 active torsions:
REMARK  status: ('A' for Active; 'I' for Inactive)
REMARK    1  A    between atoms: N_1  and  C_5
REMARK    2  A    between atoms: C_5  and  C_6
REMARK    3  A    between atoms: C_6  and  C_7
REMARK    4  A    between atoms: C_7  and  C_8
REMARK    5  A    between atoms: C_8  and  O_9
REMARK                            x       y       z     vdW  Elec       q    Type
REMARK                         _______ _______ _______ _____ _____    ______ ____
ROOT
ATOM      1  C   UNL     1       8.341   2.030  25.185  0.00  0.00    +0.127 C 
ENDROOT
BRANCH   1   2
ATOM      2  N   UNL     1       8.701   0.725  25.788  0.00  0.00    +0.219 N 
ATOM      3  H   UNL     1       7.995   0.012  25.560  0.00  0.00    +0.199 HD
ATOM      4  H   UNL     1       8.758   0.783  26.813  0.00  0.00    +0.199 HD
ATOM      5  H   UNL     1       9.604   0.374  25.440  0.00  0.00    +0.199 HD
ENDBRANCH   1   2
BRANCH   1   6
ATOM      6  C   UNL     1       9.436   2.508  24.242  0.00  0.00    +0.053 C 
BRANCH   6   7
ATOM      7  C   UNL     1      10.333   1.378  23.718  0.00  0.00    +0.033 C 
BRANCH   7   8
ATOM      8  C   UNL     1      10.003   1.024  22.272  0.00  0.00    +0.156 C 
BRANCH   8   9
ATOM      9  O   UNL     1      10.009   2.207  21.493  0.00  0.00    -0.395 OA
ATOM     10  H   UNL     1       9.302   2.134  20.826  0.00  0.00    +0.209 HD
ENDBRANCH   8   9
ENDBRANCH   7   8
ENDBRANCH   6   7
ENDBRANCH   1   6
TORSDOF 5
ENDMDL
