MODEL 1
REMARK VINA RESULT:      -7.5      0.000      0.000
REMARK  Name = 
REMARK  6 active torsions:
REMARK  status: ('A' for Active; 'I' for Inactive)
REMARK    1  A    between atoms: C_6  and  N_8
REMARK    2  A    between atoms: N_11  and  C_12
REMARK    3  A    between atoms: C_12  and  C_13
REMARK    4  A    between atoms: N_17  and  C_18
REMARK    5  A    between atoms: C_18  and  C_19
REMARK    6  A    between atoms: C_22  and  C_25
REMARK                            x       y       z     vdW  Elec       q    Type
REMARK                         _______ _______ _______ _____ _____    ______ ____
ROOT
ATOM      1  C   UNL     1       7.723  -0.690  23.257  0.00  0.00    +0.140 C 
ENDROOT
BRANCH   1   6
ATOM      2  N   UNL     1       8.941   2.565  23.836  0.00  0.00    -0.269 N 
ATOM      3  C   UNL     1       7.794   2.358  23.052  0.00  0.00    +0.234 C 
ATOM      4  O   UNL     1       7.563   2.924  21.983  0.00  0.00    -0.274 OA
ATOM      5  C   UNL     1       6.718   1.454  23.684  0.00  0.00    +0.181 C 
ATOM      6  N   UNL     1       7.252   0.217  24.318  0.00  0.00    -0.287 NA
ATOM      7  C   UNL     1       8.271   0.647  25.289  0.00  0.00    +0.104 C 
ATOM      8  C   UNL     1       9.414   1.460  24.679  0.00  0.00    +0.129 C 
BRANCH   2  12
ATOM      9 CL   UNL     1      13.444   4.981  23.030  0.00  0.00    -0.083 Cl
ATOM     10  C   UNL     1      11.788   4.987  23.505  0.00  0.00    +0.043 A 
ATOM     11  C   UNL     1      11.019   3.830  23.346  0.00  0.00    +0.043 A 
ATOM     12  C   UNL     1       9.689   3.791  23.789  0.00  0.00    +0.038 A 
ATOM     13  C   UNL     1       9.144   4.971  24.322  0.00  0.00    +0.023 A 
ATOM     14  C   UNL     1       9.913   6.128  24.471  0.00  0.00    +0.003 A 
ATOM     15  C   UNL     1      11.245   6.132  24.078  0.00  0.00    +0.020 A 
ENDBRANCH   2  12
ENDBRANCH   1   6
BRANCH   1  16
ATOM     16  C   UNL     1       8.466  -1.895  23.723  0.00  0.00    +0.052 A 
ATOM     17  N   UNL     1       7.970  -3.002  24.393  0.00  0.00    -0.328 N 
ATOM     18  C   UNL     1       9.029  -3.850  24.594  0.00  0.00    +0.199 A 
ATOM     19  N   UNL     1      10.140  -3.393  24.064  0.00  0.00    -0.244 NA
ATOM     20  C   UNL     1       9.802  -2.188  23.520  0.00  0.00    +0.135 A 
BRANCH  17  21
ATOM     21  C   UNL     1       6.677  -3.157  25.053  0.00  0.00    +0.158 C 
BRANCH  21  22
ATOM     22  C   UNL     1       5.869  -4.420  24.785  0.00  0.00    -0.028 A 
ATOM     23  C   UNL     1       5.808  -5.354  25.841  0.00  0.00    +0.006 A 
ATOM     24  C   UNL     1       4.983  -6.484  25.779  0.00  0.00    +0.019 A 
ATOM     25  C   UNL     1       4.195  -6.715  24.653  0.00  0.00    +0.052 A 
ATOM     26  C   UNL     1       4.310  -5.848  23.560  0.00  0.00    +0.019 A 
ATOM     27  C   UNL     1       5.141  -4.710  23.622  0.00  0.00    +0.006 A 
BRANCH  25  28
ATOM     28  C   UNL     1       3.235  -7.798  24.654  0.00  0.00    +0.099 C 
ATOM     29  N   UNL     1       2.444  -8.650  24.621  0.00  0.00    -0.191 NA
ENDBRANCH  25  28
ENDBRANCH  21  22
ENDBRANCH  17  21
ENDBRANCH   1  16
TORSDOF 6
ENDMDL
MODEL 2
REMARK VINA RESULT:      -7.4      2.313      3.209
REMARK  Name = 
REMARK  6 active torsions:
REMARK  status: ('A' for Active; 'I' for Inactive)
REMARK    1  A    between atoms: C_6  and  N_8
REMARK    2  A    between atoms: N_11  and  C_12
REMARK    3  A    between atoms: C_12  and  C_13
REMARK    4  A    between atoms: N_17  and  C_18
REMARK    5  A    between atoms: C_18  and  C_19
REMARK    6  A    between atoms: C_22  and  C_25
REMARK                            x       y       z     vdW  Elec       q    Type
REMARK                         _______ _______ _______ _____ _____    ______ ____
ROOT
ATOM      1  C   UNL     1       7.649  -2.188  23.157  0.00  0.00    +0.140 C 
ENDROOT
BRANCH   1   6
ATOM      2  N   UNL     1       9.235   0.957  23.224  0.00  0.00    -0.269 N 
ATOM      3  C   UNL     1       9.356   0.071  24.307  0.00  0.00    +0.234 C 
ATOM      4  O   UNL     1       9.261   0.393  25.492  0.00  0.00    -0.274 OA
ATOM      5  C   UNL     1       9.770  -1.367  23.939  0.00  0.00    +0.181 C 
ATOM      6  N   UNL     1       9.047  -1.933  22.768  0.00  0.00    -0.287 NA
ATOM      7  C   UNL     1       9.237  -0.987  21.656  0.00  0.00    +0.104 C 
ATOM      8  C   UNL     1       8.739   0.430  21.947  0.00  0.00    +0.129 C 
BRANCH   2  12
ATOM      9 CL   UNL     1      12.728   4.770  23.380  0.00  0.00    -0.083 Cl
ATOM     10  C   UNL     1      11.109   4.196  23.511  0.00  0.00    +0.043 A 
ATOM     11  C   UNL     1      10.818   2.868  23.183  0.00  0.00    +0.043 A 
ATOM     12  C   UNL     1       9.521   2.360  23.348  0.00  0.00    +0.038 A 
ATOM     13  C   UNL     1       8.522   3.249  23.777  0.00  0.00    +0.023 A 
ATOM     14  C   UNL     1       8.814   4.578  24.095  0.00  0.00    +0.003 A 
ATOM     15  C   UNL     1      10.116   5.050  23.980  0.00  0.00    +0.020 A 
ENDBRANCH   2  12
ENDBRANCH   1   6
BRANCH   1  16
ATOM     16  C   UNL     1       7.039  -3.426  22.596  0.00  0.00    +0.052 A 
ATOM     17  N   UNL     1       6.976  -4.687  23.169  0.00  0.00    -0.328 N 
ATOM     18  C   UNL     1       6.309  -5.492  22.282  0.00  0.00    +0.199 A 
ATOM     19  N   UNL     1       5.903  -4.833  21.220  0.00  0.00    -0.244 NA
ATOM     20  C   UNL     1       6.346  -3.556  21.407  0.00  0.00    +0.135 A 
BRANCH  17  21
ATOM     21  C   UNL     1       7.715  -5.196  24.321  0.00  0.00    +0.158 C 
BRANCH  21  22
ATOM     22  C   UNL     1       6.963  -5.426  25.625  0.00  0.00    -0.028 A 
ATOM     23  C   UNL     1       5.661  -5.955  25.506  0.00  0.00    +0.006 A 
ATOM     24  C   UNL     1       4.919  -6.349  26.627  0.00  0.00    +0.019 A 
ATOM     25  C   UNL     1       5.460  -6.219  27.905  0.00  0.00    +0.052 A 
ATOM     26  C   UNL     1       6.713  -5.613  28.048  0.00  0.00    +0.019 A 
ATOM     27  C   UNL     1       7.460  -5.217  26.919  0.00  0.00    +0.006 A 
BRANCH  25  28
ATOM     28  C   UNL     1       4.754  -6.764  29.046  0.00  0.00    +0.099 C 
ATOM     29  N   UNL     1       4.178  -7.161  29.975  0.00  0.00    -0.191 NA
ENDBRANCH  25  28
ENDBRANCH  21  22
ENDBRANCH  17  21
ENDBRANCH   1  16
TORSDOF 6
ENDMDL
MODEL 3
REMARK VINA RESULT:      -7.4      1.464      1.699
REMARK  Name = 
REMARK  6 active torsions:
REMARK  status: ('A' for Active; 'I' for Inactive)
REMARK    1  A    between atoms: C_6  and  N_8
REMARK    2  A    between atoms: N_11  and  C_12
REMARK    3  A    between atoms: C_12  and  C_13
REMARK    4  A    between atoms: N_17  and  C_18
REMARK    5  A    between atoms: C_18  and  C_19
REMARK    6  A    between atoms: C_22  and  C_25
REMARK                            x       y       z     vdW  Elec       q    Type
REMARK                         _______ _______ _______ _____ _____    ______ ____
ROOT
ATOM      1  C   UNL     1       8.730  -1.649  23.412  0.00  0.00    +0.140 C 
ENDROOT
BRANCH   1   6
ATOM      2  N   UNL     1       9.254   1.818  23.753  0.00  0.00    -0.269 N 
ATOM      3  C   UNL     1       8.297   1.324  22.852  0.00  0.00    +0.234 C 
ATOM      4  O   UNL     1       8.139   1.733  21.700  0.00  0.00    -0.274 OA
ATOM      5  C   UNL     1       7.311   0.294  23.436  0.00  0.00    +0.181 C 
ATOM      6  N   UNL     1       7.948  -0.753  24.281  0.00  0.00    -0.287 NA
ATOM      7  C   UNL     1       8.712  -0.047  25.322  0.00  0.00    +0.104 C 
ATOM      8  C   UNL     1       9.776   0.908  24.780  0.00  0.00    +0.129 C 
BRANCH   2  12
ATOM      9 CL   UNL     1      13.305   4.959  23.054  0.00  0.00    -0.083 Cl
ATOM     10  C   UNL     1      11.643   4.693  23.420  0.00  0.00    +0.043 A 
ATOM     11  C   UNL     1      11.106   3.408  23.301  0.00  0.00    +0.043 A 
ATOM     12  C   UNL     1       9.774   3.154  23.660  0.00  0.00    +0.038 A 
ATOM     13  C   UNL     1       8.988   4.247  24.065  0.00  0.00    +0.023 A 
ATOM     14  C   UNL     1       9.526   5.532  24.173  0.00  0.00    +0.003 A 
ATOM     15  C   UNL     1      10.863   5.754  23.868  0.00  0.00    +0.020 A 
ENDBRANCH   2  12
ENDBRANCH   1   6
BRANCH   1  16
ATOM     16  C   UNL     1       8.730  -3.087  23.801  0.00  0.00    +0.052 A 
ATOM     17  N   UNL     1       7.962  -4.117  23.281  0.00  0.00    -0.328 N 
ATOM     18  C   UNL     1       8.327  -5.258  23.949  0.00  0.00    +0.199 A 
ATOM     19  N   UNL     1       9.294  -5.043  24.811  0.00  0.00    -0.244 NA
ATOM     20  C   UNL     1       9.553  -3.706  24.724  0.00  0.00    +0.135 A 
BRANCH  17  21
ATOM     21  C   UNL     1       6.780  -4.024  22.430  0.00  0.00    +0.158 C 
BRANCH  21  22
ATOM     22  C   UNL     1       5.417  -4.310  23.042  0.00  0.00    -0.028 A 
ATOM     23  C   UNL     1       4.806  -5.524  22.661  0.00  0.00    +0.006 A 
ATOM     24  C   UNL     1       3.623  -5.976  23.260  0.00  0.00    +0.019 A 
ATOM     25  C   UNL     1       3.011  -5.219  24.258  0.00  0.00    +0.052 A 
ATOM     26  C   UNL     1       3.553  -3.971  24.586  0.00  0.00    +0.019 A 
ATOM     27  C   UNL     1       4.744  -3.517  23.983  0.00  0.00    +0.006 A 
BRANCH  25  28
ATOM     28  C   UNL     1       1.876  -5.758  24.978  0.00  0.00    +0.099 C 
ATOM     29  N   UNL     1       0.965  -6.155  25.581  0.00  0.00    -0.191 NA
ENDBRANCH  25  28
ENDBRANCH  21  22
ENDBRANCH  17  21
ENDBRANCH   1  16
TORSDOF 6
ENDMDL
MODEL 4
REMARK VINA RESULT:      -7.0      3.453      9.844
REMARK  Name = 
REMARK  6 active torsions:
REMARK  status: ('A' for Active; 'I' for Inactive)
REMARK    1  A    between atoms: C_6  and  N_8
REMARK    2  A    between atoms: N_11  and  C_12
REMARK    3  A    between atoms: C_12  and  C_13
REMARK    4  A    between atoms: N_17  and  C_18
REMARK    5  A    between atoms: C_18  and  C_19
REMARK    6  A    between atoms: C_22  and  C_25
REMARK                            x       y       z     vdW  Elec       q    Type
REMARK                         _______ _______ _______ _____ _____    ______ ____
ROOT
ATOM      1  C   UNL     1       7.430   1.486  22.969  0.00  0.00    +0.140 C 
ENDROOT
BRANCH   1   6
ATOM      2  N   UNL     1       7.133  -1.987  23.478  0.00  0.00    -0.269 N 
ATOM      3  C   UNL     1       8.340  -1.431  23.027  0.00  0.00    +0.234 C 
ATOM      4  O   UNL     1       9.031  -1.894  22.118  0.00  0.00    -0.274 OA
ATOM      5  C   UNL     1       8.863  -0.235  23.847  0.00  0.00    +0.181 C 
ATOM      6  N   UNL     1       7.823   0.771  24.196  0.00  0.00    -0.287 NA
ATOM      7  C   UNL     1       6.744   0.042  24.882  0.00  0.00    +0.104 C 
ATOM      8  C   UNL     1       6.126  -1.088  24.056  0.00  0.00    +0.129 C 
BRANCH   2  12
ATOM      9 CL   UNL     1       6.052  -5.999  20.395  0.00  0.00    -0.083 Cl
ATOM     10  C   UNL     1       6.243  -5.301  21.959  0.00  0.00    +0.043 A 
ATOM     11  C   UNL     1       6.736  -3.998  22.079  0.00  0.00    +0.043 A 
ATOM     12  C   UNL     1       6.835  -3.386  23.337  0.00  0.00    +0.038 A 
ATOM     13  C   UNL     1       6.496  -4.152  24.464  0.00  0.00    +0.023 A 
ATOM     14  C   UNL     1       6.013  -5.458  24.341  0.00  0.00    +0.003 A 
ATOM     15  C   UNL     1       5.868  -6.029  23.083  0.00  0.00    +0.020 A 
ENDBRANCH   2  12
ENDBRANCH   1   6
BRANCH   1  16
ATOM     16  C   UNL     1       6.603   2.709  23.173  0.00  0.00    +0.052 A 
ATOM     17  N   UNL     1       6.901   3.830  23.931  0.00  0.00    -0.328 N 
ATOM     18  C   UNL     1       5.842   4.691  23.799  0.00  0.00    +0.199 A 
ATOM     19  N   UNL     1       4.923   4.227  22.983  0.00  0.00    -0.244 NA
ATOM     20  C   UNL     1       5.386   3.006  22.588  0.00  0.00    +0.135 A 
BRANCH  17  21
ATOM     21  C   UNL     1       7.953   3.994  24.930  0.00  0.00    +0.158 C 
BRANCH  21  22
ATOM     22  C   UNL     1       9.328   4.460  24.472  0.00  0.00    -0.028 A 
ATOM     23  C   UNL     1      10.153   3.478  23.884  0.00  0.00    +0.006 A 
ATOM     24  C   UNL     1      11.379   3.804  23.290  0.00  0.00    +0.019 A 
ATOM     25  C   UNL     1      11.819   5.126  23.272  0.00  0.00    +0.052 A 
ATOM     26  C   UNL     1      11.057   6.099  23.930  0.00  0.00    +0.019 A 
ATOM     27  C   UNL     1       9.822   5.771  24.527  0.00  0.00    +0.006 A 
BRANCH  25  28
ATOM     28  C   UNL     1      13.010   5.480  22.529  0.00  0.00    +0.099 C 
ATOM     29  N   UNL     1      13.989   5.736  21.956  0.00  0.00    -0.191 NA
ENDBRANCH  25  28
ENDBRANCH  21  22
ENDBRANCH  17  21
ENDBRANCH   1  16
TORSDOF 6
ENDMDL
MODEL 5
REMARK VINA RESULT:      -7.0      2.001      2.590
REMARK  Name = 
REMARK  6 active torsions:
REMARK  status: ('A' for Active; 'I' for Inactive)
REMARK    1  A    between atoms: C_6  and  N_8
REMARK    2  A    between atoms: N_11  and  C_12
REMARK    3  A    between atoms: C_12  and  C_13
REMARK    4  A    between atoms: N_17  and  C_18
REMARK    5  A    between atoms: C_18  and  C_19
REMARK    6  A    between atoms: C_22  and  C_25
REMARK                            x       y       z     vdW  Elec       q    Type
REMARK                         _______ _______ _______ _____ _____    ______ ____
ROOT
ATOM      1  C   UNL     1       8.471  -1.695  23.931  0.00  0.00    +0.140 C 
ENDROOT
BRANCH   1   6
ATOM      2  N   UNL     1       8.925   1.770  23.484  0.00  0.00    -0.269 N 
ATOM      3  C   UNL     1       8.751   1.231  24.769  0.00  0.00    +0.234 C 
ATOM      4  O   UNL     1       8.023   1.711  25.639  0.00  0.00    -0.274 OA
ATOM      5  C   UNL     1       9.659   0.034  25.110  0.00  0.00    +0.181 C 
ATOM      6  N   UNL     1       9.760  -0.987  24.031  0.00  0.00    -0.287 NA
ATOM      7  C   UNL     1      10.192  -0.276  22.817  0.00  0.00    +0.104 C 
ATOM      8  C   UNL     1       9.257   0.854  22.385  0.00  0.00    +0.129 C 
BRANCH   2  12
ATOM      9 CL   UNL     1      10.131   6.699  24.494  0.00  0.00    -0.083 Cl
ATOM     10  C   UNL     1       9.186   5.509  23.682  0.00  0.00    +0.043 A 
ATOM     11  C   UNL     1       9.525   4.157  23.802  0.00  0.00    +0.043 A 
ATOM     12  C   UNL     1       8.730   3.167  23.207  0.00  0.00    +0.038 A 
ATOM     13  C   UNL     1       7.637   3.586  22.431  0.00  0.00    +0.023 A 
ATOM     14  C   UNL     1       7.307   4.938  22.305  0.00  0.00    +0.003 A 
ATOM     15  C   UNL     1       8.072   5.903  22.948  0.00  0.00    +0.020 A 
ENDBRANCH   2  12
ENDBRANCH   1   6
BRANCH   1  16
ATOM     16  C   UNL     1       8.540  -3.178  24.051  0.00  0.00    +0.052 A 
ATOM     17  N   UNL     1       7.818  -4.130  23.347  0.00  0.00    -0.328 N 
ATOM     18  C   UNL     1       8.238  -5.356  23.796  0.00  0.00    +0.199 A 
ATOM     19  N   UNL     1       9.197  -5.258  24.688  0.00  0.00    -0.244 NA
ATOM     20  C   UNL     1       9.394  -3.917  24.848  0.00  0.00    +0.135 A 
BRANCH  17  21
ATOM     21  C   UNL     1       6.630  -3.937  22.522  0.00  0.00    +0.158 C 
BRANCH  21  22
ATOM     22  C   UNL     1       5.266  -4.250  23.123  0.00  0.00    -0.028 A 
ATOM     23  C   UNL     1       4.648  -5.437  22.676  0.00  0.00    +0.006 A 
ATOM     24  C   UNL     1       3.464  -5.915  23.254  0.00  0.00    +0.019 A 
ATOM     25  C   UNL     1       2.861  -5.212  24.295  0.00  0.00    +0.052 A 
ATOM     26  C   UNL     1       3.410  -3.987  24.690  0.00  0.00    +0.019 A 
ATOM     27  C   UNL     1       4.602  -3.506  24.109  0.00  0.00    +0.006 A 
BRANCH  25  28
ATOM     28  C   UNL     1       1.725  -5.784  24.988  0.00  0.00    +0.099 C 
ATOM     29  N   UNL     1       0.792  -6.245  25.506  0.00  0.00    -0.191 NA
ENDBRANCH  25  28
ENDBRANCH  21  22
ENDBRANCH  17  21
ENDBRANCH   1  16
TORSDOF 6
ENDMDL
MODEL 6
REMARK VINA RESULT:      -6.9      3.665      9.866
REMARK  Name = 
REMARK  6 active torsions:
REMARK  status: ('A' for Active; 'I' for Inactive)
REMARK    1  A    between atoms: C_6  and  N_8
REMARK    2  A    between atoms: N_11  and  C_12
REMARK    3  A    between atoms: C_12  and  C_13
REMARK    4  A    between atoms: N_17  and  C_18
REMARK    5  A    between atoms: C_18  and  C_19
REMARK    6  A    between atoms: C_22  and  C_25
REMARK                            x       y       z     vdW  Elec       q    Type
REMARK                         _______ _______ _______ _____ _____    ______ ____
ROOT
ATOM      1  C   UNL     1       7.035   0.857  25.379  0.00  0.00    +0.140 C 
ENDROOT
BRANCH   1   6
ATOM      2  N   UNL     1       6.916  -2.427  24.108  0.00  0.00    -0.269 N 
ATOM      3  C   UNL     1       7.785  -1.475  23.551  0.00  0.00    +0.234 C 
ATOM      4  O   UNL     1       7.956  -1.301  22.344  0.00  0.00    -0.274 OA
ATOM      5  C   UNL     1       8.664  -0.713  24.562  0.00  0.00    +0.181 C 
ATOM      6  N   UNL     1       7.938  -0.239  25.772  0.00  0.00    -0.287 NA
ATOM      7  C   UNL     1       7.287  -1.420  26.363  0.00  0.00    +0.104 C 
ATOM      8  C   UNL     1       6.323  -2.143  25.421  0.00  0.00    +0.129 C 
BRANCH   2  12
ATOM      9 CL   UNL     1       3.320  -5.969  22.973  0.00  0.00    -0.083 Cl
ATOM     10  C   UNL     1       4.935  -5.374  22.895  0.00  0.00    +0.043 A 
ATOM     11  C   UNL     1       5.230  -4.104  23.400  0.00  0.00    +0.043 A 
ATOM     12  C   UNL     1       6.549  -3.628  23.410  0.00  0.00    +0.038 A 
ATOM     13  C   UNL     1       7.539  -4.437  22.829  0.00  0.00    +0.023 A 
ATOM     14  C   UNL     1       7.240  -5.703  22.316  0.00  0.00    +0.003 A 
ATOM     15  C   UNL     1       5.937  -6.182  22.366  0.00  0.00    +0.020 A 
ENDBRANCH   2  12
ENDBRANCH   1   6
BRANCH   1  16
ATOM     16  C   UNL     1       7.114   2.088  26.214  0.00  0.00    +0.052 A 
ATOM     17  N   UNL     1       7.222   3.404  25.793  0.00  0.00    -0.328 N 
ATOM     18  C   UNL     1       7.248   4.180  26.924  0.00  0.00    +0.199 A 
ATOM     19  N   UNL     1       7.116   3.468  28.020  0.00  0.00    -0.244 NA
ATOM     20  C   UNL     1       7.028   2.175  27.591  0.00  0.00    +0.135 A 
BRANCH  17  21
ATOM     21  C   UNL     1       7.559   3.905  24.464  0.00  0.00    +0.158 C 
BRANCH  21  22
ATOM     22  C   UNL     1       8.990   4.348  24.193  0.00  0.00    -0.028 A 
ATOM     23  C   UNL     1       9.888   3.337  23.789  0.00  0.00    +0.006 A 
ATOM     24  C   UNL     1      11.191   3.632  23.370  0.00  0.00    +0.019 A 
ATOM     25  C   UNL     1      11.638   4.952  23.348  0.00  0.00    +0.052 A 
ATOM     26  C   UNL     1      10.792   5.958  23.830  0.00  0.00    +0.019 A 
ATOM     27  C   UNL     1       9.479   5.661  24.252  0.00  0.00    +0.006 A 
BRANCH  25  28
ATOM     28  C   UNL     1      12.929   5.267  22.774  0.00  0.00    +0.099 C 
ATOM     29  N   UNL     1      13.946   5.531  22.276  0.00  0.00    -0.191 NA
ENDBRANCH  25  28
ENDBRANCH  21  22
ENDBRANCH  17  21
ENDBRANCH   1  16
TORSDOF 6
ENDMDL
MODEL 7
REMARK VINA RESULT:      -6.9      1.582      2.166
REMARK  Name = 
REMARK  6 active torsions:
REMARK  status: ('A' for Active; 'I' for Inactive)
REMARK    1  A    between atoms: C_6  and  N_8
REMARK    2  A    between atoms: N_11  and  C_12
REMARK    3  A    between atoms: C_12  and  C_13
REMARK    4  A    between atoms: N_17  and  C_18
REMARK    5  A    between atoms: C_18  and  C_19
REMARK    6  A    between atoms: C_22  and  C_25
REMARK                            x       y       z     vdW  Elec       q    Type
REMARK                         _______ _______ _______ _____ _____    ______ ____
ROOT
ATOM      1  C   UNL     1       8.212  -0.979  24.964  0.00  0.00    +0.140 C 
ENDROOT
BRANCH   1   6
ATOM      2  N   UNL     1       7.967   2.223  23.517  0.00  0.00    -0.269 N 
ATOM      3  C   UNL     1       8.734   1.219  22.906  0.00  0.00    +0.234 C 
ATOM      4  O   UNL     1       9.858   1.384  22.431  0.00  0.00    -0.274 OA
ATOM      5  C   UNL     1       8.020  -0.135  22.720  0.00  0.00    +0.181 C 
ATOM      6  N   UNL     1       7.256  -0.594  23.912  0.00  0.00    -0.287 NA
ATOM      7  C   UNL     1       6.327   0.493  24.261  0.00  0.00    +0.104 C 
ATOM      8  C   UNL     1       7.008   1.830  24.558  0.00  0.00    +0.129 C 
BRANCH   2  12
ATOM      9 CL   UNL     1      10.088   6.804  24.651  0.00  0.00    -0.083 Cl
ATOM     10  C   UNL     1       9.031   5.817  23.715  0.00  0.00    +0.043 A 
ATOM     11  C   UNL     1       9.035   4.431  23.899  0.00  0.00    +0.043 A 
ATOM     12  C   UNL     1       8.135   3.615  23.199  0.00  0.00    +0.038 A 
ATOM     13  C   UNL     1       7.293   4.230  22.258  0.00  0.00    +0.023 A 
ATOM     14  C   UNL     1       7.298   5.615  22.069  0.00  0.00    +0.003 A 
ATOM     15  C   UNL     1       8.157   6.414  22.813  0.00  0.00    +0.020 A 
ENDBRANCH   2  12
ENDBRANCH   1   6
BRANCH   1  16
ATOM     16  C   UNL     1       8.686  -2.391  24.919  0.00  0.00    +0.052 A 
ATOM     17  N   UNL     1       8.079  -3.517  25.453  0.00  0.00    -0.328 N 
ATOM     18  C   UNL     1       8.883  -4.584  25.144  0.00  0.00    +0.199 A 
ATOM     19  N   UNL     1       9.920  -4.232  24.419  0.00  0.00    -0.244 NA
ATOM     20  C   UNL     1       9.805  -2.880  24.272  0.00  0.00    +0.135 A 
BRANCH  17  21
ATOM     21  C   UNL     1       6.985  -3.585  26.417  0.00  0.00    +0.158 C 
BRANCH  21  22
ATOM     22  C   UNL     1       5.917  -4.654  26.233  0.00  0.00    -0.028 A 
ATOM     23  C   UNL     1       5.068  -4.500  25.117  0.00  0.00    +0.006 A 
ATOM     24  C   UNL     1       4.142  -5.486  24.751  0.00  0.00    +0.019 A 
ATOM     25  C   UNL     1       4.036  -6.657  25.499  0.00  0.00    +0.052 A 
ATOM     26  C   UNL     1       4.806  -6.788  26.661  0.00  0.00    +0.019 A 
ATOM     27  C   UNL     1       5.738  -5.796  27.028  0.00  0.00    +0.006 A 
BRANCH  25  28
ATOM     28  C   UNL     1       3.188  -7.735  25.034  0.00  0.00    +0.099 C 
ATOM     29  N   UNL     1       2.540  -8.628  24.666  0.00  0.00    -0.191 NA
ENDBRANCH  25  28
ENDBRANCH  21  22
ENDBRANCH  17  21
ENDBRANCH   1  16
TORSDOF 6
ENDMDL
MODEL 8
REMARK VINA RESULT:      -6.9      3.165      5.246
REMARK  Name = 
REMARK  6 active torsions:
REMARK  status: ('A' for Active; 'I' for Inactive)
REMARK    1  A    between atoms: C_6  and  N_8
REMARK    2  A    between atoms: N_11  and  C_12
REMARK    3  A    between atoms: C_12  and  C_13
REMARK    4  A    between atoms: N_17  and  C_18
REMARK    5  A    between atoms: C_18  and  C_19
REMARK    6  A    between atoms: C_22  and  C_25
REMARK                            x       y       z     vdW  Elec       q    Type
REMARK                         _______ _______ _______ _____ _____    ______ ____
ROOT
ATOM      1  C   UNL     1       6.347  -4.284  26.404  0.00  0.00    +0.140 C 
ENDROOT
BRANCH   1   6
ATOM      2  N   UNL     1       7.909  -2.270  23.973  0.00  0.00    -0.269 N 
ATOM      3  C   UNL     1       8.438  -3.526  24.307  0.00  0.00    +0.234 C 
ATOM      4  O   UNL     1       9.632  -3.759  24.496  0.00  0.00    -0.274 OA
ATOM      5  C   UNL     1       7.428  -4.691  24.294  0.00  0.00    +0.181 C 
ATOM      6  N   UNL     1       6.128  -4.383  24.950  0.00  0.00    -0.287 NA
ATOM      7  C   UNL     1       5.604  -3.171  24.300  0.00  0.00    +0.104 C 
ATOM      8  C   UNL     1       6.535  -1.961  24.385  0.00  0.00    +0.129 C 
BRANCH   2  12
ATOM      9 CL   UNL     1      10.261   2.337  24.090  0.00  0.00    -0.083 Cl
ATOM     10  C   UNL     1       9.748   0.922  23.253  0.00  0.00    +0.043 A 
ATOM     11  C   UNL     1       9.176  -0.135  23.967  0.00  0.00    +0.043 A 
ATOM     12  C   UNL     1       8.688  -1.267  23.299  0.00  0.00    +0.038 A 
ATOM     13  C   UNL     1       8.865  -1.329  21.906  0.00  0.00    +0.023 A 
ATOM     14  C   UNL     1       9.446  -0.275  21.196  0.00  0.00    +0.003 A 
ATOM     15  C   UNL     1       9.872   0.864  21.868  0.00  0.00    +0.020 A 
ENDBRANCH   2  12
ENDBRANCH   1   6
BRANCH   1  16
ATOM     16  C   UNL     1       5.844  -5.431  27.211  0.00  0.00    +0.052 A 
ATOM     17  N   UNL     1       4.577  -5.993  27.207  0.00  0.00    -0.328 N 
ATOM     18  C   UNL     1       4.602  -7.030  28.104  0.00  0.00    +0.199 A 
ATOM     19  N   UNL     1       5.791  -7.199  28.637  0.00  0.00    -0.244 NA
ATOM     20  C   UNL     1       6.566  -6.219  28.088  0.00  0.00    +0.135 A 
BRANCH  17  21
ATOM     21  C   UNL     1       3.349  -5.453  26.634  0.00  0.00    +0.158 C 
BRANCH  21  22
ATOM     22  C   UNL     1       2.679  -6.213  25.497  0.00  0.00    -0.028 A 
ATOM     23  C   UNL     1       2.226  -5.435  24.411  0.00  0.00    +0.006 A 
ATOM     24  C   UNL     1       1.726  -6.021  23.241  0.00  0.00    +0.019 A 
ATOM     25  C   UNL     1       1.659  -7.409  23.127  0.00  0.00    +0.052 A 
ATOM     26  C   UNL     1       2.020  -8.194  24.228  0.00  0.00    +0.019 A 
ATOM     27  C   UNL     1       2.524  -7.604  25.405  0.00  0.00    +0.006 A 
BRANCH  25  28
ATOM     28  C   UNL     1       1.284  -8.011  21.864  0.00  0.00    +0.099 C 
ATOM     29  N   UNL     1       1.013  -8.526  20.858  0.00  0.00    -0.191 NA
ENDBRANCH  25  28
ENDBRANCH  21  22
ENDBRANCH  17  21
ENDBRANCH   1  16
TORSDOF 6
ENDMDL
MODEL 9
REMARK VINA RESULT:      -6.9      3.946      9.870
REMARK  Name = 
REMARK  6 active torsions:
REMARK  status: ('A' for Active; 'I' for Inactive)
REMARK    1  A    between atoms: C_6  and  N_8
REMARK    2  A    between atoms: N_11  and  C_12
REMARK    3  A    between atoms: C_12  and  C_13
REMARK    4  A    between atoms: N_17  and  C_18
REMARK    5  A    between atoms: C_18  and  C_19
REMARK    6  A    between atoms: C_22  and  C_25
REMARK                            x       y       z     vdW  Elec       q    Type
REMARK                         _______ _______ _______ _____ _____    ______ ____
ROOT
ATOM      1  C   UNL     1       6.913  -1.464  24.135  0.00  0.00    +0.140 C 
ENDROOT
BRANCH   1   6
ATOM      2  N   UNL     1       5.024  -4.420  24.460  0.00  0.00    -0.269 N 
ATOM      3  C   UNL     1       6.375  -4.472  24.080  0.00  0.00    +0.234 C 
ATOM      4  O   UNL     1       6.823  -5.177  23.175  0.00  0.00    -0.274 OA
ATOM      5  C   UNL     1       7.343  -3.676  24.977  0.00  0.00    +0.181 C 
ATOM      6  N   UNL     1       6.865  -2.314  25.338  0.00  0.00    -0.287 NA
ATOM      7  C   UNL     1       5.536  -2.480  25.947  0.00  0.00    +0.104 C 
ATOM      8  C   UNL     1       4.514  -3.173  25.045  0.00  0.00    +0.129 C 
BRANCH   2  12
ATOM      9 CL   UNL     1       0.741  -6.257  22.213  0.00  0.00    -0.083 Cl
ATOM     10  C   UNL     1       2.081  -6.429  23.281  0.00  0.00    +0.043 A 
ATOM     11  C   UNL     1       3.061  -5.433  23.327  0.00  0.00    +0.043 A 
ATOM     12  C   UNL     1       4.124  -5.518  24.239  0.00  0.00    +0.038 A 
ATOM     13  C   UNL     1       4.206  -6.669  25.040  0.00  0.00    +0.023 A 
ATOM     14  C   UNL     1       3.229  -7.668  24.984  0.00  0.00    +0.003 A 
ATOM     15  C   UNL     1       2.153  -7.540  24.116  0.00  0.00    +0.020 A 
ENDBRANCH   2  12
ENDBRANCH   1   6
BRANCH   1  16
ATOM     16  C   UNL     1       8.199  -1.485  23.382  0.00  0.00    +0.052 A 
ATOM     17  N   UNL     1       9.434  -1.000  23.781  0.00  0.00    -0.328 N 
ATOM     18  C   UNL     1      10.310  -1.259  22.758  0.00  0.00    +0.199 A 
ATOM     19  N   UNL     1       9.742  -1.910  21.769  0.00  0.00    -0.244 NA
ATOM     20  C   UNL     1       8.439  -2.057  22.147  0.00  0.00    +0.135 A 
BRANCH  17  21
ATOM     21  C   UNL     1       9.741  -0.114  24.900  0.00  0.00    +0.158 C 
BRANCH  21  22
ATOM     22  C   UNL     1       9.516   1.382  24.727  0.00  0.00    -0.028 A 
ATOM     23  C   UNL     1      10.492   2.075  23.981  0.00  0.00    +0.006 A 
ATOM     24  C   UNL     1      10.332   3.421  23.626  0.00  0.00    +0.019 A 
ATOM     25  C   UNL     1       9.186   4.115  24.013  0.00  0.00    +0.052 A 
ATOM     26  C   UNL     1       8.250   3.470  24.829  0.00  0.00    +0.019 A 
ATOM     27  C   UNL     1       8.412   2.115  25.186  0.00  0.00    +0.006 A 
BRANCH  25  28
ATOM     28  C   UNL     1       8.954   5.456  23.518  0.00  0.00    +0.099 C 
ATOM     29  N   UNL     1       8.811   6.538  23.117  0.00  0.00    -0.191 NA
ENDBRANCH  25  28
ENDBRANCH  21  22
ENDBRANCH  17  21
ENDBRANCH   1  16
TORSDOF 6
ENDMDL
