MODEL 1
REMARK VINA RESULT:      -4.0      0.000      0.000
REMARK  Name = 
REMARK  7 active torsions:
REMARK  status: ('A' for Active; 'I' for Inactive)
REMARK    1  A    between atoms: N_1  and  CA_2
REMARK    2  A    between atoms: CA_2  and  C_4
REMARK    3  A    between atoms: CA_2  and  C_10
REMARK    4  A    between atoms: C_4  and  O_6
REMARK    5  A    between atoms: C_4  and  C_7
REMARK    6  A    between atoms: C_7  and  O_8
REMARK    7  A    between atoms: C_10  and  O_11
REMARK                            x       y       z     vdW  Elec       q    Type
REMARK                         _______ _______ _______ _____ _____    ______ ____
ROOT
ATOM      1  CA  UNL     1      10.247  -0.589  22.871  0.00  0.00    +0.200 C 
ENDROOT
BRANCH   1   2
ATOM      2  N   UNL     1       9.914  -1.048  21.475  0.00  0.00    -0.316 NA
ATOM      3  H1  UNL     1       9.862  -2.072  21.481  0.00  0.00    +0.119 HD
ATOM      4  H2  UNL     1       8.972  -0.725  21.241  0.00  0.00    +0.119 HD
ENDBRANCH   1   2
BRANCH   1   5
ATOM      5  C   UNL     1       9.872  -1.729  23.831  0.00  0.00    +0.325 C 
ATOM      6  OXT UNL     1      10.192  -2.899  23.718  0.00  0.00    -0.249 OA
BRANCH   5   7
ATOM      7  O   UNL     1       9.099  -1.266  24.852  0.00  0.00    -0.479 OA
ATOM      8  H   UNL     1       9.652  -0.619  25.356  0.00  0.00    +0.295 HD
ENDBRANCH   5   7
ENDBRANCH   1   5
BRANCH   1   9
ATOM      9  C   UNL     1       9.535   0.718  23.241  0.00  0.00    +0.250 C 
BRANCH   9  10
ATOM     10  C   UNL     1       9.213   1.542  21.992  0.00  0.00    +0.336 C 
ATOM     11  O   UNL     1       8.104   1.610  21.486  0.00  0.00    -0.248 OA
BRANCH  10  12
ATOM     12  O   UNL     1      10.287   2.242  21.554  0.00  0.00    -0.479 OA
ATOM     13  H   UNL     1      10.204   2.366  20.578  0.00  0.00    +0.295 HD
ENDBRANCH  10  12
ENDBRANCH   9  10
BRANCH   9  14
ATOM     14  O   UNL     1      10.282   1.482  24.200  0.00  0.00    -0.379 OA
ATOM     15  H   UNL     1       9.719   2.225  24.482  0.00  0.00    +0.211 HD
ENDBRANCH   9  14
ENDBRANCH   1   9
TORSDOF 7
ENDMDL
MODEL 2
REMARK VINA RESULT:      -4.0      1.896      3.953
REMARK  Name = 
REMARK  7 active torsions:
REMARK  status: ('A' for Active; 'I' for Inactive)
REMARK    1  A    between atoms: N_1  and  CA_2
REMARK    2  A    between atoms: CA_2  and  C_4
REMARK    3  A    between atoms: CA_2  and  C_10
REMARK    4  A    between atoms: C_4  and  O_6
REMARK    5  A    between atoms: C_4  and  C_7
REMARK    6  A    between atoms: C_7  and  O_8
REMARK    7  A    between atoms: C_10  and  O_11
REMARK                            x       y       z     vdW  Elec       q    Type
REMARK                         _______ _______ _______ _____ _____    ______ ____
ROOT
ATOM      1  CA  UNL     1      10.213   0.710  23.531  0.00  0.00    +0.200 C 
ENDROOT
BRANCH   1   2
ATOM      2  N   UNL     1      10.415   1.004  24.995  0.00  0.00    -0.316 NA
ATOM      3  H1  UNL     1       9.499   1.204  25.409  0.00  0.00    +0.119 HD
ATOM      4  H2  UNL     1      10.747   0.153  25.456  0.00  0.00    +0.119 HD
ENDBRANCH   1   2
BRANCH   1   5
ATOM      5  C   UNL     1       9.704   2.001  22.869  0.00  0.00    +0.325 C 
ATOM      6  OXT UNL     1       8.963   2.825  23.377  0.00  0.00    -0.249 OA
BRANCH   5   7
ATOM      7  O   UNL     1      10.180   2.114  21.599  0.00  0.00    -0.479 OA
ATOM      8  H   UNL     1       9.620   2.790  21.145  0.00  0.00    +0.295 HD
ENDBRANCH   5   7
ENDBRANCH   1   5
BRANCH   1   9
ATOM      9  C   UNL     1       9.249  -0.460  23.298  0.00  0.00    +0.250 C 
BRANCH   9  10
ATOM     10  C   UNL     1       9.995  -1.691  22.777  0.00  0.00    +0.336 C 
ATOM     11  O   UNL     1      10.261  -2.668  23.459  0.00  0.00    -0.248 OA
BRANCH  10  12
ATOM     12  O   UNL     1      10.264  -1.599  21.453  0.00  0.00    -0.479 OA
ATOM     13  H   UNL     1      10.767  -2.403  21.178  0.00  0.00    +0.295 HD
ENDBRANCH  10  12
ENDBRANCH   9  10
BRANCH   9  14
ATOM     14  O   UNL     1       8.162  -0.096  22.435  0.00  0.00    -0.379 OA
ATOM     15  H   UNL     1       7.483  -0.789  22.513  0.00  0.00    +0.211 HD
ENDBRANCH   9  14
ENDBRANCH   1   9
TORSDOF 7
ENDMDL
MODEL 3
REMARK VINA RESULT:      -4.0      1.369      3.715
REMARK  Name = 
REMARK  7 active torsions:
REMARK  status: ('A' for Active; 'I' for Inactive)
REMARK    1  A    between atoms: N_1  and  CA_2
REMARK    2  A    between atoms: CA_2  and  C_4
REMARK    3  A    between atoms: CA_2  and  C_10
REMARK    4  A    between atoms: C_4  and  O_6
REMARK    5  A    between atoms: C_4  and  C_7
REMARK    6  A    between atoms: C_7  and  O_8
REMARK    7  A    between atoms: C_10  and  O_11
REMARK                            x       y       z     vdW  Elec       q    Type
REMARK                         _______ _______ _______ _____ _____    ______ ____
ROOT
ATOM      1  CA  UNL     1       8.842   0.667  23.076  0.00  0.00    +0.200 C 
ENDROOT
BRANCH   1   2
ATOM      2  N   UNL     1       7.771  -0.376  22.883  0.00  0.00    -0.316 NA
ATOM      3  H1  UNL     1       7.788  -1.002  23.695  0.00  0.00    +0.119 HD
ATOM      4  H2  UNL     1       6.858   0.084  22.908  0.00  0.00    +0.119 HD
ENDBRANCH   1   2
BRANCH   1   5
ATOM      5  C   UNL     1       8.744   1.649  21.897  0.00  0.00    +0.325 C 
ATOM      6  OXT UNL     1       7.719   2.006  21.342  0.00  0.00    -0.249 OA
BRANCH   5   7
ATOM      7  O   UNL     1       9.980   2.077  21.521  0.00  0.00    -0.479 OA
ATOM      8  H   UNL     1      10.627   1.653  22.136  0.00  0.00    +0.295 HD
ENDBRANCH   5   7
ENDBRANCH   1   5
BRANCH   1   9
ATOM      9  C   UNL     1      10.243   0.053  23.183  0.00  0.00    +0.250 C 
BRANCH   9  10
ATOM     10  C   UNL     1      10.231  -1.420  22.767  0.00  0.00    +0.336 C 
ATOM     11  O   UNL     1      10.181  -2.351  23.555  0.00  0.00    -0.248 OA
BRANCH  10  12
ATOM     12  O   UNL     1      10.216  -1.568  21.421  0.00  0.00    -0.479 OA
ATOM     13  H   UNL     1       9.531  -2.239  21.186  0.00  0.00    +0.295 HD
ENDBRANCH  10  12
ENDBRANCH   9  10
BRANCH   9  14
ATOM     14  O   UNL     1      10.806   0.228  24.492  0.00  0.00    -0.379 OA
ATOM     15  H   UNL     1      11.011  -0.658  24.841  0.00  0.00    +0.211 HD
ENDBRANCH   9  14
ENDBRANCH   1   9
TORSDOF 7
ENDMDL
MODEL 4
REMARK VINA RESULT:      -3.9      1.740      2.426
REMARK  Name = 
REMARK  7 active torsions:
REMARK  status: ('A' for Active; 'I' for Inactive)
REMARK    1  A    between atoms: N_1  and  CA_2
REMARK    2  A    between atoms: CA_2  and  C_4
REMARK    3  A    between atoms: CA_2  and  C_10
REMARK    4  A    between atoms: C_4  and  O_6
REMARK    5  A    between atoms: C_4  and  C_7
REMARK    6  A    between atoms: C_7  and  O_8
REMARK    7  A    between atoms: C_10  and  O_11
REMARK                            x       y       z     vdW  Elec       q    Type
REMARK                         _______ _______ _______ _____ _____    ______ ____
ROOT
ATOM      1  CA  UNL     1       9.547  -0.064  23.184  0.00  0.00    +0.200 C 
ENDROOT
BRANCH   1   2
ATOM      2  N   UNL     1      10.117   0.210  24.552  0.00  0.00    -0.316 NA
ATOM      3  H1  UNL     1       9.423   0.747  25.083  0.00  0.00    +0.119 HD
ATOM      4  H2  UNL     1      10.216  -0.679  25.049  0.00  0.00    +0.119 HD
ENDBRANCH   1   2
BRANCH   1   5
ATOM      5  C   UNL     1      10.023  -1.463  22.760  0.00  0.00    +0.325 C 
ATOM      6  OXT UNL     1      10.224  -2.409  23.501  0.00  0.00    -0.249 OA
BRANCH   5   7
ATOM      7  O   UNL     1      10.218  -1.520  21.414  0.00  0.00    -0.479 OA
ATOM      8  H   UNL     1       9.751  -2.331  21.094  0.00  0.00    +0.295 HD
ENDBRANCH   5   7
ENDBRANCH   1   5
BRANCH   1   9
ATOM      9  C   UNL     1       9.950   1.003  22.160  0.00  0.00    +0.250 C 
BRANCH   9  10
ATOM     10  C   UNL     1      10.046   2.385  22.812  0.00  0.00    +0.336 C 
ATOM     11  O   UNL     1      10.969   2.739  23.529  0.00  0.00    -0.248 OA
BRANCH  10  12
ATOM     12  O   UNL     1       9.021   3.191  22.448  0.00  0.00    -0.479 OA
ATOM     13  H   UNL     1       8.174   2.772  22.734  0.00  0.00    +0.295 HD
ENDBRANCH  10  12
ENDBRANCH   9  10
BRANCH   9  14
ATOM     14  O   UNL     1       9.071   1.015  21.025  0.00  0.00    -0.379 OA
ATOM     15  H   UNL     1       9.473   1.594  20.352  0.00  0.00    +0.211 HD
ENDBRANCH   9  14
ENDBRANCH   1   9
TORSDOF 7
ENDMDL
MODEL 5
REMARK VINA RESULT:      -3.9      1.691      1.911
REMARK  Name = 
REMARK  7 active torsions:
REMARK  status: ('A' for Active; 'I' for Inactive)
REMARK    1  A    between atoms: N_1  and  CA_2
REMARK    2  A    between atoms: CA_2  and  C_4
REMARK    3  A    between atoms: CA_2  and  C_10
REMARK    4  A    between atoms: C_4  and  O_6
REMARK    5  A    between atoms: C_4  and  C_7
REMARK    6  A    between atoms: C_7  and  O_8
REMARK    7  A    between atoms: C_10  and  O_11
REMARK                            x       y       z     vdW  Elec       q    Type
REMARK                         _______ _______ _______ _____ _____    ______ ____
ROOT
ATOM      1  CA  UNL     1       9.445  -0.624  23.538  0.00  0.00    +0.200 C 
ENDROOT
BRANCH   1   2
ATOM      2  N   UNL     1      10.325  -0.221  24.693  0.00  0.00    -0.316 NA
ATOM      3  H1  UNL     1       9.845  -0.476  25.562  0.00  0.00    +0.119 HD
ATOM      4  H2  UNL     1      11.175  -0.790  24.670  0.00  0.00    +0.119 HD
ENDBRANCH   1   2
BRANCH   1   5
ATOM      5  C   UNL     1       9.345  -2.158  23.550  0.00  0.00    +0.325 C 
ATOM      6  OXT UNL     1      10.254  -2.936  23.782  0.00  0.00    -0.249 OA
BRANCH   5   7
ATOM      7  O   UNL     1       8.081  -2.562  23.247  0.00  0.00    -0.479 OA
ATOM      8  H   UNL     1       7.519  -2.349  24.032  0.00  0.00    +0.295 HD
ENDBRANCH   5   7
ENDBRANCH   1   5
BRANCH   1   9
ATOM      9  C   UNL     1       9.971  -0.105  22.194  0.00  0.00    +0.250 C 
BRANCH   9  10
ATOM     10  C   UNL     1       9.254   1.184  21.784  0.00  0.00    +0.336 C 
ATOM     11  O   UNL     1       8.040   1.308  21.747  0.00  0.00    -0.248 OA
BRANCH  10  12
ATOM     12  O   UNL     1      10.124   2.191  21.531  0.00  0.00    -0.479 OA
ATOM     13  H   UNL     1      10.723   2.293  22.309  0.00  0.00    +0.295 HD
ENDBRANCH  10  12
ENDBRANCH   9  10
BRANCH   9  14
ATOM     14  O   UNL     1       9.892  -1.103  21.166  0.00  0.00    -0.379 OA
ATOM     15  H   UNL     1      10.094  -0.666  20.320  0.00  0.00    +0.211 HD
ENDBRANCH   9  14
ENDBRANCH   1   9
TORSDOF 7
ENDMDL
MODEL 6
REMARK VINA RESULT:      -3.8      1.997      2.790
REMARK  Name = 
REMARK  7 active torsions:
REMARK  status: ('A' for Active; 'I' for Inactive)
REMARK    1  A    between atoms: N_1  and  CA_2
REMARK    2  A    between atoms: CA_2  and  C_4
REMARK    3  A    between atoms: CA_2  and  C_10
REMARK    4  A    between atoms: C_4  and  O_6
REMARK    5  A    between atoms: C_4  and  C_7
REMARK    6  A    between atoms: C_7  and  O_8
REMARK    7  A    between atoms: C_10  and  O_11
REMARK                            x       y       z     vdW  Elec       q    Type
REMARK                         _______ _______ _______ _____ _____    ______ ____
ROOT
ATOM      1  CA  UNL     1       8.632   0.323  22.483  0.00  0.00    +0.200 C 
ENDROOT
BRANCH   1   2
ATOM      2  N   UNL     1       7.829   0.190  23.750  0.00  0.00    -0.316 NA
ATOM      3  H1  UNL     1       7.880   1.082  24.254  0.00  0.00    +0.119 HD
ATOM      4  H2  UNL     1       6.843   0.070  23.502  0.00  0.00    +0.119 HD
ENDBRANCH   1   2
BRANCH   1   5
ATOM      5  C   UNL     1       8.916  -1.097  21.967  0.00  0.00    +0.325 C 
ATOM      6  OXT UNL     1       8.227  -2.083  22.162  0.00  0.00    -0.249 OA
BRANCH   5   7
ATOM      7  O   UNL     1      10.075  -1.130  21.255  0.00  0.00    -0.479 OA
ATOM      8  H   UNL     1      10.758  -0.670  21.803  0.00  0.00    +0.295 HD
ENDBRANCH   5   7
ENDBRANCH   1   5
BRANCH   1   9
ATOM      9  C   UNL     1       9.928   1.116  22.693  0.00  0.00    +0.250 C 
BRANCH   9  10
ATOM     10  C   UNL     1       9.952   1.775  24.074  0.00  0.00    +0.336 C 
ATOM     11  O   UNL     1       9.475   2.872  24.316  0.00  0.00    -0.248 OA
BRANCH  10  12
ATOM     12  O   UNL     1      10.505   0.969  25.012  0.00  0.00    -0.479 OA
ATOM     13  H   UNL     1      10.655   0.079  24.613  0.00  0.00    +0.295 HD
ENDBRANCH  10  12
ENDBRANCH   9  10
BRANCH   9  14
ATOM     14  O   UNL     1      10.146   2.074  21.647  0.00  0.00    -0.379 OA
ATOM     15  H   UNL     1       9.707   2.902  21.914  0.00  0.00    +0.211 HD
ENDBRANCH   9  14
ENDBRANCH   1   9
TORSDOF 7
ENDMDL
MODEL 7
REMARK VINA RESULT:      -3.8      5.434      6.824
REMARK  Name = 
REMARK  7 active torsions:
REMARK  status: ('A' for Active; 'I' for Inactive)
REMARK    1  A    between atoms: N_1  and  CA_2
REMARK    2  A    between atoms: CA_2  and  C_4
REMARK    3  A    between atoms: CA_2  and  C_10
REMARK    4  A    between atoms: C_4  and  O_6
REMARK    5  A    between atoms: C_4  and  C_7
REMARK    6  A    between atoms: C_7  and  O_8
REMARK    7  A    between atoms: C_10  and  O_11
REMARK                            x       y       z     vdW  Elec       q    Type
REMARK                         _______ _______ _______ _____ _____    ______ ____
ROOT
ATOM      1  CA  UNL     1       7.340  -5.102  26.141  0.00  0.00    +0.200 C 
ENDROOT
BRANCH   1   2
ATOM      2  N   UNL     1       7.993  -5.725  27.348  0.00  0.00    -0.316 NA
ATOM      3  H1  UNL     1       7.683  -5.209  28.179  0.00  0.00    +0.119 HD
ATOM      4  H2  UNL     1       7.630  -6.674  27.462  0.00  0.00    +0.119 HD
ENDBRANCH   1   2
BRANCH   1   5
ATOM      5  C   UNL     1       5.918  -5.675  26.040  0.00  0.00    +0.325 C 
ATOM      6  OXT UNL     1       5.532  -6.729  26.516  0.00  0.00    -0.249 OA
BRANCH   5   7
ATOM      7  O   UNL     1       5.113  -4.849  25.319  0.00  0.00    -0.479 OA
ATOM      8  H   UNL     1       5.128  -5.180  24.387  0.00  0.00    +0.295 HD
ENDBRANCH   5   7
ENDBRANCH   1   5
BRANCH   1   9
ATOM      9  C   UNL     1       8.138  -5.346  24.855  0.00  0.00    +0.250 C 
BRANCH   9  10
ATOM     10  C   UNL     1       9.553  -4.770  24.967  0.00  0.00    +0.336 C 
ATOM     11  O   UNL     1       9.915  -3.738  24.426  0.00  0.00    -0.248 OA
BRANCH  10  12
ATOM     12  O   UNL     1      10.336  -5.505  25.792  0.00  0.00    -0.479 OA
ATOM     13  H   UNL     1       9.789  -5.812  26.555  0.00  0.00    +0.295 HD
ENDBRANCH  10  12
ENDBRANCH   9  10
BRANCH   9  14
ATOM     14  O   UNL     1       7.455  -4.844  23.697  0.00  0.00    -0.379 OA
ATOM     15  H   UNL     1       6.648  -5.377  23.581  0.00  0.00    +0.211 HD
ENDBRANCH   9  14
ENDBRANCH   1   9
TORSDOF 7
ENDMDL
MODEL 8
REMARK VINA RESULT:      -3.7      1.935      3.577
REMARK  Name = 
REMARK  7 active torsions:
REMARK  status: ('A' for Active; 'I' for Inactive)
REMARK    1  A    between atoms: N_1  and  CA_2
REMARK    2  A    between atoms: CA_2  and  C_4
REMARK    3  A    between atoms: CA_2  and  C_10
REMARK    4  A    between atoms: C_4  and  O_6
REMARK    5  A    between atoms: C_4  and  C_7
REMARK    6  A    between atoms: C_7  and  O_8
REMARK    7  A    between atoms: C_10  and  O_11
REMARK                            x       y       z     vdW  Elec       q    Type
REMARK                         _______ _______ _______ _____ _____    ______ ____
ROOT
ATOM      1  CA  UNL     1       9.547   1.318  22.991  0.00  0.00    +0.200 C 
ENDROOT
BRANCH   1   2
ATOM      2  N   UNL     1       9.847   1.954  21.659  0.00  0.00    -0.316 NA
ATOM      3  H1  UNL     1       9.328   2.837  21.604  0.00  0.00    +0.119 HD
ATOM      4  H2  UNL     1      10.836   2.214  21.635  0.00  0.00    +0.119 HD
ENDBRANCH   1   2
BRANCH   1   5
ATOM      5  C   UNL     1       9.507   2.442  24.039  0.00  0.00    +0.325 C 
ATOM      6  OXT UNL     1       9.977   3.559  23.912  0.00  0.00    -0.249 OA
BRANCH   5   7
ATOM      7  O   UNL     1       8.876   2.026  25.171  0.00  0.00    -0.479 OA
ATOM      8  H   UNL     1       9.471   2.254  25.927  0.00  0.00    +0.295 HD
ENDBRANCH   5   7
ENDBRANCH   1   5
BRANCH   1   9
ATOM      9  C   UNL     1      10.568   0.237  23.365  0.00  0.00    +0.250 C 
BRANCH   9  10
ATOM     10  C   UNL     1      10.215  -1.103  22.712  0.00  0.00    +0.336 C 
ATOM     11  O   UNL     1      10.137  -2.158  23.320  0.00  0.00    -0.248 OA
BRANCH  10  12
ATOM     12  O   UNL     1       9.933  -0.968  21.394  0.00  0.00    -0.479 OA
ATOM     13  H   UNL     1       9.586  -0.057  21.239  0.00  0.00    +0.295 HD
ENDBRANCH  10  12
ENDBRANCH   9  10
BRANCH   9  14
ATOM     14  O   UNL     1      10.717   0.108  24.787  0.00  0.00    -0.379 OA
ATOM     15  H   UNL     1       9.913  -0.325  25.126  0.00  0.00    +0.211 HD
ENDBRANCH   9  14
ENDBRANCH   1   9
TORSDOF 7
ENDMDL
MODEL 9
REMARK VINA RESULT:      -3.7      3.648      5.074
REMARK  Name = 
REMARK  7 active torsions:
REMARK  status: ('A' for Active; 'I' for Inactive)
REMARK    1  A    between atoms: N_1  and  CA_2
REMARK    2  A    between atoms: CA_2  and  C_4
REMARK    3  A    between atoms: CA_2  and  C_10
REMARK    4  A    between atoms: C_4  and  O_6
REMARK    5  A    between atoms: C_4  and  C_7
REMARK    6  A    between atoms: C_7  and  O_8
REMARK    7  A    between atoms: C_10  and  O_11
REMARK                            x       y       z     vdW  Elec       q    Type
REMARK                         _______ _______ _______ _____ _____    ______ ____
ROOT
ATOM      1  CA  UNL     1       9.370  -4.569  25.542  0.00  0.00    +0.200 C 
ENDROOT
BRANCH   1   2
ATOM      2  N   UNL     1       9.834  -5.973  25.249  0.00  0.00    -0.316 NA
ATOM      3  H1  UNL     1      10.256  -5.979  24.314  0.00  0.00    +0.119 HD
ATOM      4  H2  UNL     1      10.591  -6.208  25.895  0.00  0.00    +0.119 HD
ENDBRANCH   1   2
BRANCH   1   5
ATOM      5  C   UNL     1       8.286  -4.661  26.628  0.00  0.00    +0.325 C 
ATOM      6  OXT UNL     1       7.657  -3.728  27.096  0.00  0.00    -0.249 OA
BRANCH   5   7
ATOM      7  O   UNL     1       8.114  -5.949  27.033  0.00  0.00    -0.479 OA
ATOM      8  H   UNL     1       8.993  -6.394  26.942  0.00  0.00    +0.295 HD
ENDBRANCH   5   7
ENDBRANCH   1   5
BRANCH   1   9
ATOM      9  C   UNL     1       8.853  -3.852  24.289  0.00  0.00    +0.250 C 
BRANCH   9  10
ATOM     10  C   UNL     1       9.465  -2.455  24.163  0.00  0.00    +0.336 C 
ATOM     11  O   UNL     1      10.205  -2.113  23.254  0.00  0.00    -0.248 OA
BRANCH  10  12
ATOM     12  O   UNL     1       9.037  -1.621  25.141  0.00  0.00    -0.479 OA
ATOM     13  H   UNL     1       9.688  -1.645  25.882  0.00  0.00    +0.295 HD
ENDBRANCH  10  12
ENDBRANCH   9  10
BRANCH   9  14
ATOM     14  O   UNL     1       7.419  -3.805  24.252  0.00  0.00    -0.379 OA
ATOM     15  H   UNL     1       7.105  -4.684  23.972  0.00  0.00    +0.211 HD
ENDBRANCH   9  14
ENDBRANCH   1   9
TORSDOF 7
ENDMDL
