MODEL 1
REMARK VINA RESULT:      -4.4      0.000      0.000
REMARK  Name = 
REMARK  0 active torsions:
REMARK  status: ('A' for Active; 'I' for Inactive)
REMARK                            x       y       z     vdW  Elec       q    Type
REMARK                         _______ _______ _______ _____ _____    ______ ____
ROOT
ATOM      1  F   UNL     1       9.754   2.055  21.748  0.00  0.00    -0.198 F 
ATOM      2  C   UNL     1       9.861   0.800  22.218  0.00  0.00    +0.203 A 
ATOM      3  C   UNL     1      10.214   0.623  23.646  0.00  0.00    +0.289 A 
ATOM      4  O   UNL     1      10.397   1.570  24.403  0.00  0.00    -0.265 OA
ATOM      5  N   UNL     1      10.319  -0.681  24.062  0.00  0.00    -0.273 N 
ATOM      6  H   UNL     1      10.557  -0.840  25.028  0.00  0.00    +0.174 HD
ATOM      7  C   UNL     1      10.105  -1.786  23.281  0.00  0.00    +0.327 A 
ATOM      8  O   UNL     1      10.199  -2.928  23.719  0.00  0.00    -0.247 OA
ATOM      9  N   UNL     1       9.777  -1.535  21.974  0.00  0.00    -0.312 N 
ATOM     10  H   UNL     1       9.619  -2.351  21.392  0.00  0.00    +0.170 HD
ATOM     11  C   UNL     1       9.659  -0.273  21.452  0.00  0.00    +0.131 A 
ENDROOT
TORSDOF 0
ENDMDL
MODEL 2
REMARK VINA RESULT:      -4.3      5.600      6.255
REMARK  Name = 
REMARK  0 active torsions:
REMARK  status: ('A' for Active; 'I' for Inactive)
REMARK                            x       y       z     vdW  Elec       q    Type
REMARK                         _______ _______ _______ _____ _____    ______ ____
ROOT
ATOM      1  F   UNL     1       8.115  -4.425  23.060  0.00  0.00    -0.198 F 
ATOM      2  C   UNL     1       7.865  -4.803  24.325  0.00  0.00    +0.203 A 
ATOM      3  C   UNL     1       9.021  -5.000  25.230  0.00  0.00    +0.289 A 
ATOM      4  O   UNL     1      10.179  -4.821  24.870  0.00  0.00    -0.265 OA
ATOM      5  N   UNL     1       8.701  -5.396  26.505  0.00  0.00    -0.273 N 
ATOM      6  H   UNL     1       9.462  -5.538  27.149  0.00  0.00    +0.174 HD
ATOM      7  C   UNL     1       7.433  -5.591  26.984  0.00  0.00    +0.327 A 
ATOM      8  O   UNL     1       7.212  -5.930  28.141  0.00  0.00    -0.247 OA
ATOM      9  N   UNL     1       6.419  -5.382  26.084  0.00  0.00    -0.312 N 
ATOM     10  H   UNL     1       5.478  -5.527  26.435  0.00  0.00    +0.170 HD
ATOM     11  C   UNL     1       6.629  -4.999  24.785  0.00  0.00    +0.131 A 
ENDROOT
TORSDOF 0
ENDMDL
MODEL 3
REMARK VINA RESULT:      -4.1      2.259      3.326
REMARK  Name = 
REMARK  0 active torsions:
REMARK  status: ('A' for Active; 'I' for Inactive)
REMARK                            x       y       z     vdW  Elec       q    Type
REMARK                         _______ _______ _______ _____ _____    ______ ____
ROOT
ATOM      1  F   UNL     1       8.982  -1.248  22.077  0.00  0.00    -0.198 F 
ATOM      2  C   UNL     1       9.483  -0.036  22.373  0.00  0.00    +0.203 A 
ATOM      3  C   UNL     1      10.112   0.148  23.702  0.00  0.00    +0.289 A 
ATOM      4  O   UNL     1      10.199  -0.759  24.522  0.00  0.00    -0.265 OA
ATOM      5  N   UNL     1      10.594   1.409  23.947  0.00  0.00    -0.273 N 
ATOM      6  H   UNL     1      11.030   1.571  24.841  0.00  0.00    +0.174 HD
ATOM      7  C   UNL     1      10.555   2.462  23.071  0.00  0.00    +0.327 A 
ATOM      8  O   UNL     1      11.020   3.563  23.345  0.00  0.00    -0.247 OA
ATOM      9  N   UNL     1       9.962   2.206  21.861  0.00  0.00    -0.312 N 
ATOM     10  H   UNL     1       9.930   2.984  21.211  0.00  0.00    +0.170 HD
ATOM     11  C   UNL     1       9.436   0.988  21.520  0.00  0.00    +0.131 A 
ENDROOT
TORSDOF 0
ENDMDL
MODEL 4
REMARK VINA RESULT:      -4.0      5.785      6.565
REMARK  Name = 
REMARK  0 active torsions:
REMARK  status: ('A' for Active; 'I' for Inactive)
REMARK                            x       y       z     vdW  Elec       q    Type
REMARK                         _______ _______ _______ _____ _____    ______ ____
ROOT
ATOM      1  F   UNL     1       5.198  -4.807  26.550  0.00  0.00    -0.198 F 
ATOM      2  C   UNL     1       6.469  -4.820  26.113  0.00  0.00    +0.203 A 
ATOM      3  C   UNL     1       7.497  -5.423  26.992  0.00  0.00    +0.289 A 
ATOM      4  O   UNL     1       7.229  -5.914  28.083  0.00  0.00    -0.265 OA
ATOM      5  N   UNL     1       8.777  -5.396  26.495  0.00  0.00    -0.273 N 
ATOM      6  H   UNL     1       9.503  -5.799  27.065  0.00  0.00    +0.174 HD
ATOM      7  C   UNL     1       9.148  -4.888  25.278  0.00  0.00    +0.327 A 
ATOM      8  O   UNL     1      10.308  -4.910  24.883  0.00  0.00    -0.247 OA
ATOM      9  N   UNL     1       8.135  -4.354  24.523  0.00  0.00    -0.312 N 
ATOM     10  H   UNL     1       8.406  -3.976  23.621  0.00  0.00    +0.170 HD
ATOM     11  C   UNL     1       6.827  -4.318  24.930  0.00  0.00    +0.131 A 
ENDROOT
TORSDOF 0
ENDMDL
MODEL 5
REMARK VINA RESULT:      -4.0      1.924      2.618
REMARK  Name = 
REMARK  0 active torsions:
REMARK  status: ('A' for Active; 'I' for Inactive)
REMARK                            x       y       z     vdW  Elec       q    Type
REMARK                         _______ _______ _______ _____ _____    ______ ____
ROOT
ATOM      1  F   UNL     1      10.476   2.086  21.669  0.00  0.00    -0.198 F 
ATOM      2  C   UNL     1      10.156   1.361  22.755  0.00  0.00    +0.203 A 
ATOM      3  C   UNL     1       9.669  -0.022  22.545  0.00  0.00    +0.289 A 
ATOM      4  O   UNL     1       9.561  -0.522  21.431  0.00  0.00    -0.265 OA
ATOM      5  N   UNL     1       9.350  -0.706  23.692  0.00  0.00    -0.273 N 
ATOM      6  H   UNL     1       9.017  -1.652  23.588  0.00  0.00    +0.174 HD
ATOM      7  C   UNL     1       9.469  -0.223  24.967  0.00  0.00    +0.327 A 
ATOM      8  O   UNL     1       9.182  -0.893  25.954  0.00  0.00    -0.247 OA
ATOM      9  N   UNL     1       9.933   1.063  25.075  0.00  0.00    -0.312 N 
ATOM     10  H   UNL     1      10.021   1.425  26.018  0.00  0.00    +0.170 HD
ATOM     11  C   UNL     1      10.267   1.838  23.995  0.00  0.00    +0.131 A 
ENDROOT
TORSDOF 0
ENDMDL
MODEL 6
REMARK VINA RESULT:      -3.9      6.050      6.553
REMARK  Name = 
REMARK  0 active torsions:
REMARK  status: ('A' for Active; 'I' for Inactive)
REMARK                            x       y       z     vdW  Elec       q    Type
REMARK                         _______ _______ _______ _____ _____    ______ ____
ROOT
ATOM      1  F   UNL     1       8.010  -4.479  23.040  0.00  0.00    -0.198 F 
ATOM      2  C   UNL     1       7.830  -4.860  24.317  0.00  0.00    +0.203 A 
ATOM      3  C   UNL     1       6.449  -4.859  24.851  0.00  0.00    +0.289 A 
ATOM      4  O   UNL     1       5.479  -4.539  24.174  0.00  0.00    -0.265 OA
ATOM      5  N   UNL     1       6.333  -5.248  26.163  0.00  0.00    -0.273 N 
ATOM      6  H   UNL     1       5.407  -5.261  26.560  0.00  0.00    +0.174 HD
ATOM      7  C   UNL     1       7.365  -5.642  26.972  0.00  0.00    +0.327 A 
ATOM      8  O   UNL     1       7.193  -5.995  28.133  0.00  0.00    -0.247 OA
ATOM      9  N   UNL     1       8.611  -5.620  26.398  0.00  0.00    -0.312 N 
ATOM     10  H   UNL     1       9.378  -5.910  26.995  0.00  0.00    +0.170 HD
ATOM     11  C   UNL     1       8.840  -5.236  25.103  0.00  0.00    +0.131 A 
ENDROOT
TORSDOF 0
ENDMDL
MODEL 7
REMARK VINA RESULT:      -3.9      6.429      7.188
REMARK  Name = 
REMARK  0 active torsions:
REMARK  status: ('A' for Active; 'I' for Inactive)
REMARK                            x       y       z     vdW  Elec       q    Type
REMARK                         _______ _______ _______ _____ _____    ______ ____
ROOT
ATOM      1  F   UNL     1       7.530  -3.740  22.192  0.00  0.00    -0.198 F 
ATOM      2  C   UNL     1       6.726  -4.651  22.768  0.00  0.00    +0.203 A 
ATOM      3  C   UNL     1       5.926  -5.527  21.881  0.00  0.00    +0.289 A 
ATOM      4  O   UNL     1       5.981  -5.457  20.659  0.00  0.00    -0.265 OA
ATOM      5  N   UNL     1       5.117  -6.427  22.530  0.00  0.00    -0.273 N 
ATOM      6  H   UNL     1       4.559  -7.042  21.959  0.00  0.00    +0.174 HD
ATOM      7  C   UNL     1       5.023  -6.580  23.887  0.00  0.00    +0.327 A 
ATOM      8  O   UNL     1       4.292  -7.417  24.406  0.00  0.00    -0.247 OA
ATOM      9  N   UNL     1       5.801  -5.734  24.636  0.00  0.00    -0.312 N 
ATOM     10  H   UNL     1       5.732  -5.843  25.642  0.00  0.00    +0.170 HD
ATOM     11  C   UNL     1       6.631  -4.790  24.091  0.00  0.00    +0.131 A 
ENDROOT
TORSDOF 0
ENDMDL
MODEL 8
REMARK VINA RESULT:      -3.9      2.395      3.850
REMARK  Name = 
REMARK  0 active torsions:
REMARK  status: ('A' for Active; 'I' for Inactive)
REMARK                            x       y       z     vdW  Elec       q    Type
REMARK                         _______ _______ _______ _____ _____    ______ ____
ROOT
ATOM      1  F   UNL     1       9.239  -2.707  24.683  0.00  0.00    -0.198 F 
ATOM      2  C   UNL     1       9.581  -1.419  24.501  0.00  0.00    +0.203 A 
ATOM      3  C   UNL     1      10.176  -1.039  23.200  0.00  0.00    +0.289 A 
ATOM      4  O   UNL     1      10.354  -1.844  22.293  0.00  0.00    -0.265 OA
ATOM      5  N   UNL     1      10.513   0.287  23.080  0.00  0.00    -0.273 N 
ATOM      6  H   UNL     1      10.919   0.583  22.207  0.00  0.00    +0.174 HD
ATOM      7  C   UNL     1      10.322   1.247  24.038  0.00  0.00    +0.327 A 
ATOM      8  O   UNL     1      10.630   2.421  23.862  0.00  0.00    -0.247 OA
ATOM      9  N   UNL     1       9.761   0.813  25.211  0.00  0.00    -0.312 N 
ATOM     10  H   UNL     1       9.619   1.521  25.923  0.00  0.00    +0.170 HD
ATOM     11  C   UNL     1       9.400  -0.489  25.440  0.00  0.00    +0.131 A 
ENDROOT
TORSDOF 0
ENDMDL
MODEL 9
REMARK VINA RESULT:      -3.9      2.445      3.137
REMARK  Name = 
REMARK  0 active torsions:
REMARK  status: ('A' for Active; 'I' for Inactive)
REMARK                            x       y       z     vdW  Elec       q    Type
REMARK                         _______ _______ _______ _____ _____    ______ ____
ROOT
ATOM      1  F   UNL     1       9.206  -3.070  23.880  0.00  0.00    -0.198 F 
ATOM      2  C   UNL     1       9.439  -1.866  23.330  0.00  0.00    +0.203 A 
ATOM      3  C   UNL     1       9.556  -0.702  24.238  0.00  0.00    +0.289 A 
ATOM      4  O   UNL     1       9.460  -0.801  25.455  0.00  0.00    -0.265 OA
ATOM      5  N   UNL     1       9.784   0.501  23.615  0.00  0.00    -0.273 N 
ATOM      6  H   UNL     1       9.871   1.315  24.201  0.00  0.00    +0.174 HD
ATOM      7  C   UNL     1       9.927   0.684  22.265  0.00  0.00    +0.327 A 
ATOM      8  O   UNL     1      10.147   1.785  21.771  0.00  0.00    -0.247 OA
ATOM      9  N   UNL     1       9.811  -0.445  21.496  0.00  0.00    -0.312 N 
ATOM     10  H   UNL     1       9.915  -0.313  20.496  0.00  0.00    +0.170 HD
ATOM     11  C   UNL     1       9.570  -1.691  22.014  0.00  0.00    +0.131 A 
ENDROOT
TORSDOF 0
ENDMDL
