MODEL 1
REMARK VINA RESULT:      -6.9      0.000      0.000
REMARK  Name = 
REMARK  22 active torsions:
REMARK  status: ('A' for Active; 'I' for Inactive)
REMARK    1  A    between atoms: N_1  and  C_2
REMARK    2  A    between atoms: C_2  and  C_3
REMARK    3  A    between atoms: C_6  and  O_8
REMARK    4  A    between atoms: O_8  and  C_9
REMARK    5  A    between atoms: C_11  and  C_13
REMARK    6  A    between atoms: C_13  and  O_14
REMARK    7  A    between atoms: C_16  and  O_18
REMARK    8  A    between atoms: O_18  and  C_19
REMARK    9  A    between atoms: C_21  and  O_23
REMARK   10  A    between atoms: C_24  and  N_26
REMARK   11  A    between atoms: C_28  and  N_30
REMARK   12  A    between atoms: C_31  and  O_33
REMARK   13  A    between atoms: O_33  and  C_34
REMARK   14  A    between atoms: C_37  and  C_39
REMARK   15  A    between atoms: C_39  and  N_40
REMARK   16  A    between atoms: C_41  and  O_43
REMARK   17  A    between atoms: C_44  and  O_46
REMARK   18  A    between atoms: C_47  and  N_49
REMARK   19  A    between atoms: C_50  and  O_52
REMARK   20  A    between atoms: C_53  and  N_55
REMARK   21  A    between atoms: C_56  and  O_58
REMARK   22  A    between atoms: C_59  and  O_61
REMARK                            x       y       z     vdW  Elec       q    Type
REMARK                         _______ _______ _______ _____ _____    ______ ____
ROOT
ATOM      1  C   UNL     1       4.060  -2.471  26.712  0.00  0.00    +0.182 C 
ATOM      2  C   UNL     1       4.920  -3.552  27.429  0.00  0.00    +0.169 C 
ATOM      3  C   UNL     1       4.256  -4.959  27.236  0.00  0.00    +0.084 C 
ATOM      4  C   UNL     1       2.765  -4.992  27.618  0.00  0.00    +0.042 C 
ATOM      5  C   UNL     1       1.980  -3.942  26.833  0.00  0.00    +0.084 C 
ATOM      6  C   UNL     1       2.570  -2.557  27.093  0.00  0.00    +0.163 C 
ENDROOT
BRANCH   3   7
ATOM      7  N   UNL     1       4.961  -6.021  27.982  0.00  0.00    -0.325 NA
ATOM      8  H   UNL     1       5.764  -6.347  27.445  0.00  0.00    +0.119 HD
ATOM      9  H   UNL     1       5.343  -5.628  28.843  0.00  0.00    +0.119 HD
ENDBRANCH   3   7
BRANCH   5  10
ATOM     10  N   UNL     1       0.552  -3.960  27.212  0.00  0.00    -0.325 NA
ATOM     11  H   UNL     1      -0.017  -3.726  26.397  0.00  0.00    +0.119 HD
ATOM     12  H   UNL     1       0.322  -4.949  27.378  0.00  0.00    +0.119 HD
ENDBRANCH   5  10
BRANCH   6  13
ATOM     13  O   UNL     1       1.822  -1.577  26.356  0.00  0.00    -0.388 OA
ATOM     14  H   UNL     1       0.895  -1.896  26.383  0.00  0.00    +0.210 HD
ENDBRANCH   6  13
BRANCH   2  15
ATOM     15  O   UNL     1       6.263  -3.660  26.899  0.00  0.00    -0.342 OA
BRANCH  15  16
ATOM     16  C   UNL     1       6.466  -4.632  25.876  0.00  0.00    +0.270 C 
ATOM     17  C   UNL     1       7.781  -5.425  26.094  0.00  0.00    +0.139 C 
ATOM     18  C   UNL     1       8.997  -4.536  25.787  0.00  0.00    +0.167 C 
ATOM     19  C   UNL     1       8.856  -3.922  24.388  0.00  0.00    +0.175 C 
ATOM     20  C   UNL     1       7.518  -3.165  24.297  0.00  0.00    +0.166 C 
ATOM     21  O   UNL     1       6.430  -4.063  24.563  0.00  0.00    -0.343 OA
BRANCH  17  22
ATOM     22  N   UNL     1       7.886  -6.043  27.437  0.00  0.00    -0.321 NA
ATOM     23  H   UNL     1       8.821  -5.820  27.789  0.00  0.00    +0.119 HD
ATOM     24  H   UNL     1       7.239  -5.551  28.057  0.00  0.00    +0.119 HD
ENDBRANCH  17  22
BRANCH  19  25
ATOM     25  O   UNL     1       9.995  -3.097  24.122  0.00  0.00    -0.387 OA
ATOM     26  H   UNL     1       9.880  -2.247  24.584  0.00  0.00    +0.210 HD
ENDBRANCH  19  25
BRANCH  18  27
ATOM     27  O   UNL     1      10.199  -5.327  25.847  0.00  0.00    -0.387 OA
ATOM     28  H   UNL     1      10.744  -5.031  25.097  0.00  0.00    +0.210 HD
ENDBRANCH  18  27
BRANCH  20  29
ATOM     29  C   UNL     1       7.319  -2.553  22.895  0.00  0.00    +0.112 C 
BRANCH  29  30
ATOM     30  N   UNL     1       5.902  -2.259  22.638  0.00  0.00    -0.328 NA
ATOM     31  H   UNL     1       5.355  -2.514  23.460  0.00  0.00    +0.118 HD
ATOM     32  H   UNL     1       5.804  -1.248  22.542  0.00  0.00    +0.118 HD
ENDBRANCH  29  30
ENDBRANCH  20  29
ENDBRANCH  15  16
ENDBRANCH   2  15
BRANCH   1  33
ATOM     33  O   UNL     1       4.529  -1.113  26.830  0.00  0.00    -0.340 OA
BRANCH  33  36
ATOM     34  C   UNL     1       7.060   1.195  25.873  0.00  0.00    +0.186 C 
ATOM     35  C   UNL     1       5.752   0.484  25.541  0.00  0.00    +0.202 C 
ATOM     36  C   UNL     1       5.845  -0.798  26.378  0.00  0.00    +0.282 C 
ATOM     37  O   UNL     1       6.728  -0.529  27.465  0.00  0.00    -0.341 OA
ATOM     38  C   UNL     1       7.295   0.783  27.322  0.00  0.00    +0.178 C 
BRANCH  35  39
ATOM     39  O   UNL     1       5.517   0.247  24.152  0.00  0.00    -0.384 OA
ATOM     40  H   UNL     1       6.226   0.710  23.670  0.00  0.00    +0.210 HD
ENDBRANCH  35  39
BRANCH  38  41
ATOM     41  C   UNL     1       6.682   1.714  28.368  0.00  0.00    +0.190 C 
BRANCH  41  42
ATOM     42  O   UNL     1       7.684   2.388  29.122  0.00  0.00    -0.392 OA
ATOM     43  H   UNL     1       8.540   1.986  28.883  0.00  0.00    +0.210 HD
ENDBRANCH  41  42
ENDBRANCH  38  41
BRANCH  34  44
ATOM     44  O   UNL     1       8.213   0.718  25.156  0.00  0.00    -0.341 OA
BRANCH  44  49
ATOM     45  C   UNL     1       9.298   3.824  23.619  0.00  0.00    +0.166 C 
ATOM     46  C   UNL     1      10.517   3.367  22.784  0.00  0.00    +0.175 C 
ATOM     47  C   UNL     1      10.330   1.908  22.302  0.00  0.00    +0.167 C 
ATOM     48  C   UNL     1       9.909   0.975  23.458  0.00  0.00    +0.139 C 
ATOM     49  C   UNL     1       8.670   1.606  24.146  0.00  0.00    +0.270 C 
ATOM     50  O   UNL     1       9.036   2.879  24.679  0.00  0.00    -0.343 OA
BRANCH  48  51
ATOM     51  N   UNL     1      11.026   0.767  24.424  0.00  0.00    -0.321 NA
ATOM     52  H   UNL     1      10.977   1.541  25.099  0.00  0.00    +0.119 HD
ATOM     53  H   UNL     1      10.769  -0.046  24.993  0.00  0.00    +0.119 HD
ENDBRANCH  48  51
BRANCH  47  54
ATOM     54  O   UNL     1       9.392   1.830  21.219  0.00  0.00    -0.387 OA
ATOM     55  H   UNL     1       9.599   1.074  20.642  0.00  0.00    +0.210 HD
ENDBRANCH  47  54
BRANCH  46  56
ATOM     56  O   UNL     1      11.711   3.497  23.570  0.00  0.00    -0.387 OA
ATOM     57  H   UNL     1      12.462   3.637  22.963  0.00  0.00    +0.210 HD
ENDBRANCH  46  56
BRANCH  45  58
ATOM     58  C   UNL     1       9.501   5.208  24.258  0.00  0.00    +0.112 C 
BRANCH  58  59
ATOM     59  N   UNL     1      10.187   6.111  23.319  0.00  0.00    -0.328 NA
ATOM     60  H   UNL     1      10.677   6.813  23.869  0.00  0.00    +0.118 HD
ATOM     61  H   UNL     1      10.905   5.585  22.822  0.00  0.00    +0.118 HD
ENDBRANCH  58  59
ENDBRANCH  45  58
ENDBRANCH  44  49
ENDBRANCH  34  44
ENDBRANCH  33  36
ENDBRANCH   1  33
TORSDOF 22
ENDMDL
MODEL 2
REMARK VINA RESULT:      -6.9      2.394      7.869
REMARK  Name = 
REMARK  22 active torsions:
REMARK  status: ('A' for Active; 'I' for Inactive)
REMARK    1  A    between atoms: N_1  and  C_2
REMARK    2  A    between atoms: C_2  and  C_3
REMARK    3  A    between atoms: C_6  and  O_8
REMARK    4  A    between atoms: O_8  and  C_9
REMARK    5  A    between atoms: C_11  and  C_13
REMARK    6  A    between atoms: C_13  and  O_14
REMARK    7  A    between atoms: C_16  and  O_18
REMARK    8  A    between atoms: O_18  and  C_19
REMARK    9  A    between atoms: C_21  and  O_23
REMARK   10  A    between atoms: C_24  and  N_26
REMARK   11  A    between atoms: C_28  and  N_30
REMARK   12  A    between atoms: C_31  and  O_33
REMARK   13  A    between atoms: O_33  and  C_34
REMARK   14  A    between atoms: C_37  and  C_39
REMARK   15  A    between atoms: C_39  and  N_40
REMARK   16  A    between atoms: C_41  and  O_43
REMARK   17  A    between atoms: C_44  and  O_46
REMARK   18  A    between atoms: C_47  and  N_49
REMARK   19  A    between atoms: C_50  and  O_52
REMARK   20  A    between atoms: C_53  and  N_55
REMARK   21  A    between atoms: C_56  and  O_58
REMARK   22  A    between atoms: C_59  and  O_61
REMARK                            x       y       z     vdW  Elec       q    Type
REMARK                         _______ _______ _______ _____ _____    ______ ____
ROOT
ATOM      1  C   UNL     1       6.924   0.807  24.047  0.00  0.00    +0.182 C 
ATOM      2  C   UNL     1       7.533  -0.293  23.129  0.00  0.00    +0.169 C 
ATOM      3  C   UNL     1       8.802   0.277  22.404  0.00  0.00    +0.084 C 
ATOM      4  C   UNL     1       8.551   1.618  21.691  0.00  0.00    +0.042 C 
ATOM      5  C   UNL     1       8.007   2.660  22.668  0.00  0.00    +0.084 C 
ATOM      6  C   UNL     1       6.719   2.142  23.308  0.00  0.00    +0.163 C 
ENDROOT
BRANCH   3   7
ATOM      7  N   UNL     1       9.372  -0.678  21.433  0.00  0.00    -0.325 NA
ATOM      8  H   UNL     1      10.285  -0.352  21.120  0.00  0.00    +0.119 HD
ATOM      9  H   UNL     1       9.540  -1.570  21.902  0.00  0.00    +0.119 HD
ENDBRANCH   3   7
BRANCH   5  10
ATOM     10  N   UNL     1       7.749   3.941  21.981  0.00  0.00    -0.325 NA
ATOM     11  H   UNL     1       6.898   4.362  22.360  0.00  0.00    +0.119 HD
ATOM     12  H   UNL     1       8.486   4.582  22.303  0.00  0.00    +0.119 HD
ENDBRANCH   5  10
BRANCH   6  13
ATOM     13  O   UNL     1       6.213   3.130  24.220  0.00  0.00    -0.388 OA
ATOM     14  H   UNL     1       6.507   3.989  23.848  0.00  0.00    +0.210 HD
ENDBRANCH   6  13
BRANCH   2  15
ATOM     15  O   UNL     1       7.973  -1.467  23.855  0.00  0.00    -0.342 OA
BRANCH  15  16
ATOM     16  C   UNL     1       8.159  -2.655  23.089  0.00  0.00    +0.270 C 
ATOM     17  C   UNL     1       6.817  -3.400  22.859  0.00  0.00    +0.139 C 
ATOM     18  C   UNL     1       6.343  -4.059  24.164  0.00  0.00    +0.167 C 
ATOM     19  C   UNL     1       7.461  -4.936  24.743  0.00  0.00    +0.175 C 
ATOM     20  C   UNL     1       8.732  -4.088  24.925  0.00  0.00    +0.166 C 
ATOM     21  O   UNL     1       9.133  -3.532  23.664  0.00  0.00    -0.343 OA
BRANCH  17  22
ATOM     22  N   UNL     1       5.760  -2.549  22.265  0.00  0.00    -0.321 NA
ATOM     23  H   UNL     1       6.239  -1.801  21.755  0.00  0.00    +0.119 HD
ATOM     24  H   UNL     1       5.280  -3.100  21.551  0.00  0.00    +0.119 HD
ENDBRANCH  17  22
BRANCH  19  25
ATOM     25  O   UNL     1       7.001  -5.539  25.957  0.00  0.00    -0.387 OA
ATOM     26  H   UNL     1       7.152  -4.917  26.692  0.00  0.00    +0.210 HD
ENDBRANCH  19  25
BRANCH  18  27
ATOM     27  O   UNL     1       5.183  -4.869  23.900  0.00  0.00    -0.387 OA
ATOM     28  H   UNL     1       5.432  -5.450  23.160  0.00  0.00    +0.210 HD
ENDBRANCH  18  27
BRANCH  20  29
ATOM     29  C   UNL     1       9.894  -4.937  25.480  0.00  0.00    +0.112 C 
BRANCH  29  30
ATOM     30  N   UNL     1       9.730  -6.356  25.135  0.00  0.00    -0.328 NA
ATOM     31  H   UNL     1       8.736  -6.580  25.112  0.00  0.00    +0.118 HD
ATOM     32  H   UNL     1      10.067  -6.488  24.181  0.00  0.00    +0.118 HD
ENDBRANCH  29  30
ENDBRANCH  20  29
ENDBRANCH  15  16
ENDBRANCH   2  15
BRANCH   1  33
ATOM     33  O   UNL     1       5.725   0.440  24.758  0.00  0.00    -0.340 OA
BRANCH  33  36
ATOM     34  C   UNL     1       5.341  -1.740  27.542  0.00  0.00    +0.186 C 
ATOM     35  C   UNL     1       6.217  -0.765  26.762  0.00  0.00    +0.202 C 
ATOM     36  C   UNL     1       5.643  -0.859  25.343  0.00  0.00    +0.282 C 
ATOM     37  O   UNL     1       4.293  -1.302  25.462  0.00  0.00    -0.341 OA
ATOM     38  C   UNL     1       3.997  -1.608  26.834  0.00  0.00    +0.178 C 
BRANCH  35  39
ATOM     39  O   UNL     1       7.622  -1.011  26.831  0.00  0.00    -0.384 OA
ATOM     40  H   UNL     1       7.982  -0.377  27.478  0.00  0.00    +0.210 HD
ENDBRANCH  35  39
BRANCH  38  41
ATOM     41  C   UNL     1       3.069  -0.534  27.402  0.00  0.00    +0.190 C 
BRANCH  41  42
ATOM     42  O   UNL     1       2.974   0.591  26.534  0.00  0.00    -0.392 OA
ATOM     43  H   UNL     1       3.457   0.364  25.719  0.00  0.00    +0.210 HD
ENDBRANCH  41  42
ENDBRANCH  38  41
BRANCH  34  44
ATOM     44  O   UNL     1       5.701  -3.127  27.405  0.00  0.00    -0.341 OA
BRANCH  44  49
ATOM     45  C   UNL     1       3.318  -5.859  27.198  0.00  0.00    +0.166 C 
ATOM     46  C   UNL     1       3.512  -6.568  28.560  0.00  0.00    +0.175 C 
ATOM     47  C   UNL     1       3.925  -5.547  29.649  0.00  0.00    +0.167 C 
ATOM     48  C   UNL     1       5.087  -4.647  29.177  0.00  0.00    +0.139 C 
ATOM     49  C   UNL     1       4.681  -4.028  27.814  0.00  0.00    +0.270 C 
ATOM     50  O   UNL     1       4.488  -5.080  26.868  0.00  0.00    -0.343 OA
BRANCH  48  51
ATOM     51  N   UNL     1       6.361  -5.414  29.073  0.00  0.00    -0.321 NA
ATOM     52  H   UNL     1       6.760  -5.449  30.020  0.00  0.00    +0.119 HD
ATOM     53  H   UNL     1       6.098  -6.391  28.903  0.00  0.00    +0.119 HD
ENDBRANCH  48  51
BRANCH  47  54
ATOM     54  O   UNL     1       2.807  -4.753  30.073  0.00  0.00    -0.387 OA
ATOM     55  H   UNL     1       2.195  -5.284  30.611  0.00  0.00    +0.210 HD
ENDBRANCH  47  54
BRANCH  46  56
ATOM     56  O   UNL     1       4.501  -7.599  28.425  0.00  0.00    -0.387 OA
ATOM     57  H   UNL     1       4.207  -8.373  28.941  0.00  0.00    +0.210 HD
ENDBRANCH  46  56
BRANCH  45  58
ATOM     58  C   UNL     1       3.066  -6.847  26.047  0.00  0.00    +0.112 C 
BRANCH  58  59
ATOM     59  N   UNL     1       4.333  -7.193  25.381  0.00  0.00    -0.328 NA
ATOM     60  H   UNL     1       4.902  -7.708  26.050  0.00  0.00    +0.118 HD
ATOM     61  H   UNL     1       4.138  -7.839  24.616  0.00  0.00    +0.118 HD
ENDBRANCH  58  59
ENDBRANCH  45  58
ENDBRANCH  44  49
ENDBRANCH  34  44
ENDBRANCH  33  36
ENDBRANCH   1  33
TORSDOF 22
ENDMDL
MODEL 3
REMARK VINA RESULT:      -6.8      2.466      5.338
REMARK  Name = 
REMARK  22 active torsions:
REMARK  status: ('A' for Active; 'I' for Inactive)
REMARK    1  A    between atoms: N_1  and  C_2
REMARK    2  A    between atoms: C_2  and  C_3
REMARK    3  A    between atoms: C_6  and  O_8
REMARK    4  A    between atoms: O_8  and  C_9
REMARK    5  A    between atoms: C_11  and  C_13
REMARK    6  A    between atoms: C_13  and  O_14
REMARK    7  A    between atoms: C_16  and  O_18
REMARK    8  A    between atoms: O_18  and  C_19
REMARK    9  A    between atoms: C_21  and  O_23
REMARK   10  A    between atoms: C_24  and  N_26
REMARK   11  A    between atoms: C_28  and  N_30
REMARK   12  A    between atoms: C_31  and  O_33
REMARK   13  A    between atoms: O_33  and  C_34
REMARK   14  A    between atoms: C_37  and  C_39
REMARK   15  A    between atoms: C_39  and  N_40
REMARK   16  A    between atoms: C_41  and  O_43
REMARK   17  A    between atoms: C_44  and  O_46
REMARK   18  A    between atoms: C_47  and  N_49
REMARK   19  A    between atoms: C_50  and  O_52
REMARK   20  A    between atoms: C_53  and  N_55
REMARK   21  A    between atoms: C_56  and  O_58
REMARK   22  A    between atoms: C_59  and  O_61
REMARK                            x       y       z     vdW  Elec       q    Type
REMARK                         _______ _______ _______ _____ _____    ______ ____
ROOT
ATOM      1  C   UNL     1       6.993  -3.745  24.660  0.00  0.00    +0.182 C 
ATOM      2  C   UNL     1       5.949  -4.275  25.686  0.00  0.00    +0.169 C 
ATOM      3  C   UNL     1       6.632  -4.434  27.089  0.00  0.00    +0.084 C 
ATOM      4  C   UNL     1       7.938  -5.249  27.047  0.00  0.00    +0.042 C 
ATOM      5  C   UNL     1       8.930  -4.635  26.061  0.00  0.00    +0.084 C 
ATOM      6  C   UNL     1       8.296  -4.564  24.671  0.00  0.00    +0.163 C 
ENDROOT
BRANCH   3   7
ATOM      7  N   UNL     1       5.728  -5.035  28.090  0.00  0.00    -0.325 NA
ATOM      8  H   UNL     1       6.242  -5.701  28.666  0.00  0.00    +0.119 HD
ATOM      9  H   UNL     1       5.404  -4.307  28.727  0.00  0.00    +0.119 HD
ENDBRANCH   3   7
BRANCH   5  10
ATOM     10  N   UNL     1      10.176  -5.427  26.006  0.00  0.00    -0.325 NA
ATOM     11  H   UNL     1      10.428  -5.592  25.030  0.00  0.00    +0.119 HD
ATOM     12  H   UNL     1      10.919  -4.796  26.334  0.00  0.00    +0.119 HD
ENDBRANCH   5  10
BRANCH   6  13
ATOM     13  O   UNL     1       9.239  -3.992  23.750  0.00  0.00    -0.388 OA
ATOM     14  H   UNL     1       8.733  -3.864  22.919  0.00  0.00    +0.210 HD
ENDBRANCH   6  13
BRANCH   2  15
ATOM     15  O   UNL     1       4.828  -3.378  25.880  0.00  0.00    -0.342 OA
BRANCH  15  16
ATOM     16  C   UNL     1       3.667  -3.633  25.093  0.00  0.00    +0.270 C 
ATOM     17  C   UNL     1       2.371  -3.211  25.836  0.00  0.00    +0.139 C 
ATOM     18  C   UNL     1       2.071  -4.190  26.982  0.00  0.00    +0.167 C 
ATOM     19  C   UNL     1       2.053  -5.629  26.450  0.00  0.00    +0.175 C 
ATOM     20  C   UNL     1       3.386  -5.926  25.738  0.00  0.00    +0.166 C 
ATOM     21  O   UNL     1       3.583  -4.995  24.663  0.00  0.00    -0.343 OA
BRANCH  17  22
ATOM     22  N   UNL     1       2.390  -1.808  26.311  0.00  0.00    -0.321 NA
ATOM     23  H   UNL     1       3.203  -1.362  25.875  0.00  0.00    +0.119 HD
ATOM     24  H   UNL     1       1.576  -1.334  25.915  0.00  0.00    +0.119 HD
ENDBRANCH  17  22
BRANCH  19  25
ATOM     25  O   UNL     1       1.774  -6.524  27.531  0.00  0.00    -0.387 OA
ATOM     26  H   UNL     1       1.360  -6.021  28.254  0.00  0.00    +0.210 HD
ENDBRANCH  19  25
BRANCH  18  27
ATOM     27  O   UNL     1       0.792  -3.874  27.561  0.00  0.00    -0.387 OA
ATOM     28  H   UNL     1       0.593  -4.607  28.171  0.00  0.00    +0.210 HD
ENDBRANCH  18  27
BRANCH  20  29
ATOM     29  C   UNL     1       3.402  -7.355  25.160  0.00  0.00    +0.112 C 
BRANCH  29  30
ATOM     30  N   UNL     1       4.344  -7.465  24.036  0.00  0.00    -0.328 NA
ATOM     31  H   UNL     1       5.093  -6.785  24.162  0.00  0.00    +0.118 HD
ATOM     32  H   UNL     1       4.789  -8.382  24.089  0.00  0.00    +0.118 HD
ENDBRANCH  29  30
ENDBRANCH  20  29
ENDBRANCH  15  16
ENDBRANCH   2  15
BRANCH   1  33
ATOM     33  O   UNL     1       6.518  -3.579  23.309  0.00  0.00    -0.340 OA
BRANCH  33  36
ATOM     34  C   UNL     1       7.450  -0.146  23.302  0.00  0.00    +0.186 C 
ATOM     35  C   UNL     1       6.586  -1.261  23.884  0.00  0.00    +0.202 C 
ATOM     36  C   UNL     1       6.524  -2.274  22.734  0.00  0.00    +0.282 C 
ATOM     37  O   UNL     1       7.676  -2.059  21.920  0.00  0.00    -0.341 OA
ATOM     38  C   UNL     1       8.404  -0.915  22.395  0.00  0.00    +0.178 C 
BRANCH  35  39
ATOM     39  O   UNL     1       5.302  -0.857  24.362  0.00  0.00    -0.384 OA
ATOM     40  H   UNL     1       5.232   0.100  24.189  0.00  0.00    +0.210 HD
ENDBRANCH  35  39
BRANCH  38  41
ATOM     41  C   UNL     1       9.697  -1.382  23.063  0.00  0.00    +0.190 C 
BRANCH  41  42
ATOM     42  O   UNL     1      10.653  -1.826  22.105  0.00  0.00    -0.392 OA
ATOM     43  H   UNL     1      10.547  -2.791  22.023  0.00  0.00    +0.210 HD
ENDBRANCH  41  42
ENDBRANCH  38  41
BRANCH  34  44
ATOM     44  O   UNL     1       6.760   0.768  22.431  0.00  0.00    -0.341 OA
BRANCH  44  49
ATOM     45  C   UNL     1       7.063   3.528  24.771  0.00  0.00    +0.166 C 
ATOM     46  C   UNL     1       7.754   4.613  23.911  0.00  0.00    +0.175 C 
ATOM     47  C   UNL     1       7.345   4.470  22.424  0.00  0.00    +0.167 C 
ATOM     48  C   UNL     1       7.489   3.014  21.930  0.00  0.00    +0.139 C 
ATOM     49  C   UNL     1       6.714   2.102  22.918  0.00  0.00    +0.270 C 
ATOM     50  O   UNL     1       7.303   2.218  24.212  0.00  0.00    -0.343 OA
BRANCH  48  51
ATOM     51  N   UNL     1       8.922   2.616  21.823  0.00  0.00    -0.321 NA
ATOM     52  H   UNL     1       9.008   2.060  20.963  0.00  0.00    +0.119 HD
ATOM     53  H   UNL     1       9.443   3.468  21.595  0.00  0.00    +0.119 HD
ENDBRANCH  48  51
BRANCH  47  54
ATOM     54  O   UNL     1       6.013   4.953  22.199  0.00  0.00    -0.387 OA
ATOM     55  H   UNL     1       6.020   5.913  22.039  0.00  0.00    +0.210 HD
ENDBRANCH  47  54
BRANCH  46  56
ATOM     56  O   UNL     1       9.177   4.506  24.061  0.00  0.00    -0.387 OA
ATOM     57  H   UNL     1       9.414   4.822  24.954  0.00  0.00    +0.210 HD
ENDBRANCH  46  56
BRANCH  45  58
ATOM     58  C   UNL     1       7.558   3.521  26.227  0.00  0.00    +0.112 C 
BRANCH  58  59
ATOM     59  N   UNL     1       7.560   2.149  26.762  0.00  0.00    -0.328 NA
ATOM     60  H   UNL     1       8.287   1.630  26.274  0.00  0.00    +0.118 HD
ATOM     61  H   UNL     1       7.837   2.179  27.742  0.00  0.00    +0.118 HD
ENDBRANCH  58  59
ENDBRANCH  45  58
ENDBRANCH  44  49
ENDBRANCH  34  44
ENDBRANCH  33  36
ENDBRANCH   1  33
TORSDOF 22
ENDMDL
MODEL 4
REMARK VINA RESULT:      -6.7      1.897      2.795
REMARK  Name = 
REMARK  22 active torsions:
REMARK  status: ('A' for Active; 'I' for Inactive)
REMARK    1  A    between atoms: N_1  and  C_2
REMARK    2  A    between atoms: C_2  and  C_3
REMARK    3  A    between atoms: C_6  and  O_8
REMARK    4  A    between atoms: O_8  and  C_9
REMARK    5  A    between atoms: C_11  and  C_13
REMARK    6  A    between atoms: C_13  and  O_14
REMARK    7  A    between atoms: C_16  and  O_18
REMARK    8  A    between atoms: O_18  and  C_19
REMARK    9  A    between atoms: C_21  and  O_23
REMARK   10  A    between atoms: C_24  and  N_26
REMARK   11  A    between atoms: C_28  and  N_30
REMARK   12  A    between atoms: C_31  and  O_33
REMARK   13  A    between atoms: O_33  and  C_34
REMARK   14  A    between atoms: C_37  and  C_39
REMARK   15  A    between atoms: C_39  and  N_40
REMARK   16  A    between atoms: C_41  and  O_43
REMARK   17  A    between atoms: C_44  and  O_46
REMARK   18  A    between atoms: C_47  and  N_49
REMARK   19  A    between atoms: C_50  and  O_52
REMARK   20  A    between atoms: C_53  and  N_55
REMARK   21  A    between atoms: C_56  and  O_58
REMARK   22  A    between atoms: C_59  and  O_61
REMARK                            x       y       z     vdW  Elec       q    Type
REMARK                         _______ _______ _______ _____ _____    ______ ____
ROOT
ATOM      1  C   UNL     1       3.816  -2.696  26.906  0.00  0.00    +0.182 C 
ATOM      2  C   UNL     1       5.108  -3.224  27.596  0.00  0.00    +0.169 C 
ATOM      3  C   UNL     1       4.762  -4.492  28.451  0.00  0.00    +0.084 C 
ATOM      4  C   UNL     1       3.580  -4.280  29.414  0.00  0.00    +0.042 C 
ATOM      5  C   UNL     1       2.337  -3.818  28.656  0.00  0.00    +0.084 C 
ATOM      6  C   UNL     1       2.648  -2.529  27.895  0.00  0.00    +0.163 C 
ENDROOT
BRANCH   3   7
ATOM      7  N   UNL     1       5.921  -4.985  29.221  0.00  0.00    -0.325 NA
ATOM      8  H   UNL     1       6.246  -4.261  29.861  0.00  0.00    +0.119 HD
ATOM      9  H   UNL     1       5.624  -5.765  29.809  0.00  0.00    +0.119 HD
ENDBRANCH   3   7
BRANCH   5  10
ATOM     10  N   UNL     1       1.208  -3.595  29.582  0.00  0.00    -0.325 NA
ATOM     11  H   UNL     1       1.571  -3.361  30.508  0.00  0.00    +0.119 HD
ATOM     12  H   UNL     1       0.768  -2.717  29.278  0.00  0.00    +0.119 HD
ENDBRANCH   5  10
BRANCH   6  13
ATOM     13  O   UNL     1       1.471  -2.099  27.191  0.00  0.00    -0.388 OA
ATOM     14  H   UNL     1       0.732  -2.258  27.816  0.00  0.00    +0.210 HD
ENDBRANCH   6  13
BRANCH   2  15
ATOM     15  O   UNL     1       6.133  -3.634  26.658  0.00  0.00    -0.342 OA
BRANCH  15  16
ATOM     16  C   UNL     1       6.025  -4.956  26.138  0.00  0.00    +0.270 C 
ATOM     17  C   UNL     1       7.415  -5.638  26.021  0.00  0.00    +0.139 C 
ATOM     18  C   UNL     1       8.217  -5.018  24.865  0.00  0.00    +0.167 C 
ATOM     19  C   UNL     1       7.387  -5.053  23.575  0.00  0.00    +0.175 C 
ATOM     20  C   UNL     1       6.040  -4.350  23.817  0.00  0.00    +0.166 C 
ATOM     21  O   UNL     1       5.334  -5.000  24.885  0.00  0.00    -0.343 OA
BRANCH  17  22
ATOM     22  N   UNL     1       8.188  -5.628  27.285  0.00  0.00    -0.321 NA
ATOM     23  H   UNL     1       9.160  -5.426  27.032  0.00  0.00    +0.119 HD
ATOM     24  H   UNL     1       7.878  -4.823  27.833  0.00  0.00    +0.119 HD
ENDBRANCH  17  22
BRANCH  19  25
ATOM     25  O   UNL     1       8.150  -4.471  22.513  0.00  0.00    -0.387 OA
ATOM     26  H   UNL     1       8.990  -4.957  22.429  0.00  0.00    +0.210 HD
ENDBRANCH  19  25
BRANCH  18  27
ATOM     27  O   UNL     1       9.436  -5.760  24.675  0.00  0.00    -0.387 OA
ATOM     28  H   UNL     1       9.455  -6.420  25.389  0.00  0.00    +0.210 HD
ENDBRANCH  18  27
BRANCH  20  29
ATOM     29  C   UNL     1       5.157  -4.385  22.553  0.00  0.00    +0.112 C 
BRANCH  29  30
ATOM     30  N   UNL     1       5.600  -3.390  21.565  0.00  0.00    -0.328 NA
ATOM     31  H   UNL     1       6.577  -3.158  21.742  0.00  0.00    +0.118 HD
ATOM     32  H   UNL     1       5.581  -3.831  20.645  0.00  0.00    +0.118 HD
ENDBRANCH  29  30
ENDBRANCH  20  29
ENDBRANCH  15  16
ENDBRANCH   2  15
BRANCH   1  33
ATOM     33  O   UNL     1       3.970  -1.507  26.107  0.00  0.00    -0.340 OA
BRANCH  33  36
ATOM     34  C   UNL     1       6.335   0.877  24.934  0.00  0.00    +0.186 C 
ATOM     35  C   UNL     1       5.755  -0.532  24.854  0.00  0.00    +0.202 C 
ATOM     36  C   UNL     1       5.157  -0.730  26.253  0.00  0.00    +0.282 C 
ATOM     37  O   UNL     1       4.881   0.566  26.780  0.00  0.00    -0.341 OA
ATOM     38  C   UNL     1       5.362   1.575  25.878  0.00  0.00    +0.178 C 
BRANCH  35  39
ATOM     39  O   UNL     1       6.677  -1.555  24.474  0.00  0.00    -0.384 OA
ATOM     40  H   UNL     1       7.322  -1.136  23.875  0.00  0.00    +0.210 HD
ENDBRANCH  35  39
BRANCH  38  41
ATOM     41  C   UNL     1       4.173   2.251  25.197  0.00  0.00    +0.190 C 
BRANCH  41  42
ATOM     42  O   UNL     1       4.327   2.286  23.782  0.00  0.00    -0.392 OA
ATOM     43  H   UNL     1       4.489   3.215  23.536  0.00  0.00    +0.210 HD
ENDBRANCH  41  42
ENDBRANCH  38  41
BRANCH  34  44
ATOM     44  O   UNL     1       7.617   0.972  25.581  0.00  0.00    -0.341 OA
BRANCH  44  49
ATOM     45  C   UNL     1       9.926   0.010  22.949  0.00  0.00    +0.166 C 
ATOM     46  C   UNL     1      10.040   1.312  22.120  0.00  0.00    +0.175 C 
ATOM     47  C   UNL     1       9.863   2.552  23.031  0.00  0.00    +0.167 C 
ATOM     48  C   UNL     1       8.617   2.425  23.933  0.00  0.00    +0.139 C 
ATOM     49  C   UNL     1       8.711   1.068  24.679  0.00  0.00    +0.270 C 
ATOM     50  O   UNL     1       8.704   0.012  23.718  0.00  0.00    -0.343 OA
BRANCH  48  51
ATOM     51  N   UNL     1       7.359   2.530  23.140  0.00  0.00    -0.321 NA
ATOM     52  H   UNL     1       7.043   1.568  22.964  0.00  0.00    +0.119 HD
ATOM     53  H   UNL     1       6.643   2.890  23.779  0.00  0.00    +0.119 HD
ENDBRANCH  48  51
BRANCH  47  54
ATOM     54  O   UNL     1      11.038   2.794  23.819  0.00  0.00    -0.387 OA
ATOM     55  H   UNL     1      11.832   2.480  23.353  0.00  0.00    +0.210 HD
ENDBRANCH  47  54
BRANCH  46  56
ATOM     56  O   UNL     1       9.056   1.301  21.076  0.00  0.00    -0.387 OA
ATOM     57  H   UNL     1       9.515   1.160  20.226  0.00  0.00    +0.210 HD
ENDBRANCH  46  56
BRANCH  45  58
ATOM     58  C   UNL     1       9.931  -1.253  22.071  0.00  0.00    +0.112 C 
BRANCH  58  59
ATOM     59  N   UNL     1       8.562  -1.766  21.901  0.00  0.00    -0.328 NA
ATOM     60  H   UNL     1       8.427  -2.515  22.578  0.00  0.00    +0.118 HD
ATOM     61  H   UNL     1       7.902  -1.031  22.153  0.00  0.00    +0.118 HD
ENDBRANCH  58  59
ENDBRANCH  45  58
ENDBRANCH  44  49
ENDBRANCH  34  44
ENDBRANCH  33  36
ENDBRANCH   1  33
TORSDOF 22
ENDMDL
MODEL 5
REMARK VINA RESULT:      -6.7      2.879      8.826
REMARK  Name = 
REMARK  22 active torsions:
REMARK  status: ('A' for Active; 'I' for Inactive)
REMARK    1  A    between atoms: N_1  and  C_2
REMARK    2  A    between atoms: C_2  and  C_3
REMARK    3  A    between atoms: C_6  and  O_8
REMARK    4  A    between atoms: O_8  and  C_9
REMARK    5  A    between atoms: C_11  and  C_13
REMARK    6  A    between atoms: C_13  and  O_14
REMARK    7  A    between atoms: C_16  and  O_18
REMARK    8  A    between atoms: O_18  and  C_19
REMARK    9  A    between atoms: C_21  and  O_23
REMARK   10  A    between atoms: C_24  and  N_26
REMARK   11  A    between atoms: C_28  and  N_30
REMARK   12  A    between atoms: C_31  and  O_33
REMARK   13  A    between atoms: O_33  and  C_34
REMARK   14  A    between atoms: C_37  and  C_39
REMARK   15  A    between atoms: C_39  and  N_40
REMARK   16  A    between atoms: C_41  and  O_43
REMARK   17  A    between atoms: C_44  and  O_46
REMARK   18  A    between atoms: C_47  and  N_49
REMARK   19  A    between atoms: C_50  and  O_52
REMARK   20  A    between atoms: C_53  and  N_55
REMARK   21  A    between atoms: C_56  and  O_58
REMARK   22  A    between atoms: C_59  and  O_61
REMARK                            x       y       z     vdW  Elec       q    Type
REMARK                         _______ _______ _______ _____ _____    ______ ____
ROOT
ATOM      1  C   UNL     1       8.439  -0.971  24.497  0.00  0.00    +0.182 C 
ATOM      2  C   UNL     1       7.955   0.474  24.178  0.00  0.00    +0.169 C 
ATOM      3  C   UNL     1       7.882   0.668  22.624  0.00  0.00    +0.084 C 
ATOM      4  C   UNL     1       9.176   0.265  21.893  0.00  0.00    +0.042 C 
ATOM      5  C   UNL     1       9.553  -1.180  22.212  0.00  0.00    +0.084 C 
ATOM      6  C   UNL     1       9.715  -1.349  23.723  0.00  0.00    +0.163 C 
ENDROOT
BRANCH   3   7
ATOM      7  N   UNL     1       7.533   2.051  22.245  0.00  0.00    -0.325 NA
ATOM      8  H   UNL     1       8.364   2.641  22.278  0.00  0.00    +0.119 HD
ATOM      9  H   UNL     1       7.221   2.063  21.273  0.00  0.00    +0.119 HD
ENDBRANCH   3   7
BRANCH   5  10
ATOM     10  N   UNL     1      10.805  -1.562  21.527  0.00  0.00    -0.325 NA
ATOM     11  H   UNL     1      11.340  -0.719  21.307  0.00  0.00    +0.119 HD
ATOM     12  H   UNL     1      11.382  -2.023  22.241  0.00  0.00    +0.119 HD
ENDBRANCH   5  10
BRANCH   6  13
ATOM     13  O   UNL     1      10.076  -2.709  24.013  0.00  0.00    -0.388 OA
ATOM     14  H   UNL     1       9.442  -2.995  24.704  0.00  0.00    +0.210 HD
ENDBRANCH   6  13
BRANCH   2  15
ATOM     15  O   UNL     1       6.629   0.760  24.686  0.00  0.00    -0.342 OA
BRANCH  15  16
ATOM     16  C   UNL     1       6.469   1.993  25.383  0.00  0.00    +0.270 C 
ATOM     17  C   UNL     1       5.609   1.816  26.663  0.00  0.00    +0.139 C 
ATOM     18  C   UNL     1       4.136   1.589  26.289  0.00  0.00    +0.167 C 
ATOM     19  C   UNL     1       3.655   2.708  25.356  0.00  0.00    +0.175 C 
ATOM     20  C   UNL     1       4.582   2.784  24.130  0.00  0.00    +0.166 C 
ATOM     21  O   UNL     1       5.932   3.028  24.553  0.00  0.00    -0.343 OA
BRANCH  17  22
ATOM     22  N   UNL     1       6.108   0.757  27.571  0.00  0.00    -0.321 NA
ATOM     23  H   UNL     1       5.290   0.375  28.053  0.00  0.00    +0.119 HD
ATOM     24  H   UNL     1       6.463  -0.008  26.992  0.00  0.00    +0.119 HD
ENDBRANCH  17  22
BRANCH  19  25
ATOM     25  O   UNL     1       2.283   2.478  25.018  0.00  0.00    -0.387 OA
ATOM     26  H   UNL     1       2.240   1.766  24.356  0.00  0.00    +0.210 HD
ENDBRANCH  19  25
BRANCH  18  27
ATOM     27  O   UNL     1       3.333   1.579  27.484  0.00  0.00    -0.387 OA
ATOM     28  H   UNL     1       2.727   0.824  27.385  0.00  0.00    +0.210 HD
ENDBRANCH  18  27
BRANCH  20  29
ATOM     29  C   UNL     1       4.154   3.917  23.176  0.00  0.00    +0.112 C 
BRANCH  29  30
ATOM     30  N   UNL     1       5.249   4.295  22.271  0.00  0.00    -0.328 NA
ATOM     31  H   UNL     1       5.162   3.765  21.404  0.00  0.00    +0.118 HD
ATOM     32  H   UNL     1       5.118   5.273  22.013  0.00  0.00    +0.118 HD
ENDBRANCH  29  30
ENDBRANCH  20  29
ENDBRANCH  15  16
ENDBRANCH   2  15
BRANCH   1  33
ATOM     33  O   UNL     1       8.588  -1.290  25.895  0.00  0.00    -0.340 OA
BRANCH  33  36
ATOM     34  C   UNL     1       6.321  -4.018  25.632  0.00  0.00    +0.186 C 
ATOM     35  C   UNL     1       6.578  -2.520  25.504  0.00  0.00    +0.202 C 
ATOM     36  C   UNL     1       7.752  -2.296  26.464  0.00  0.00    +0.282 C 
ATOM     37  O   UNL     1       8.435  -3.542  26.592  0.00  0.00    -0.341 OA
ATOM     38  C   UNL     1       7.721  -4.566  25.883  0.00  0.00    +0.178 C 
BRANCH  35  39
ATOM     39  O   UNL     1       5.453  -1.680  25.767  0.00  0.00    -0.384 OA
ATOM     40  H   UNL     1       5.517  -0.931  25.147  0.00  0.00    +0.210 HD
ENDBRANCH  35  39
BRANCH  38  41
ATOM     41  C   UNL     1       8.503  -4.947  24.625  0.00  0.00    +0.190 C 
BRANCH  41  42
ATOM     42  O   UNL     1       9.777  -5.497  24.944  0.00  0.00    -0.392 OA
ATOM     43  H   UNL     1       9.919  -6.252  24.345  0.00  0.00    +0.210 HD
ENDBRANCH  41  42
ENDBRANCH  38  41
BRANCH  34  44
ATOM     44  O   UNL     1       5.555  -4.409  26.786  0.00  0.00    -0.341 OA
BRANCH  44  49
ATOM     45  C   UNL     1       2.944  -5.920  24.764  0.00  0.00    +0.166 C 
ATOM     46  C   UNL     1       2.509  -7.122  25.635  0.00  0.00    +0.175 C 
ATOM     47  C   UNL     1       2.687  -6.796  27.138  0.00  0.00    +0.167 C 
ATOM     48  C   UNL     1       4.085  -6.211  27.434  0.00  0.00    +0.139 C 
ATOM     49  C   UNL     1       4.310  -5.017  26.469  0.00  0.00    +0.270 C 
ATOM     50  O   UNL     1       4.276  -5.496  25.125  0.00  0.00    -0.343 OA
BRANCH  48  51
ATOM     51  N   UNL     1       5.149  -7.245  27.285  0.00  0.00    -0.321 NA
ATOM     52  H   UNL     1       4.746  -8.130  27.617  0.00  0.00    +0.119 HD
ATOM     53  H   UNL     1       5.255  -7.408  26.278  0.00  0.00    +0.119 HD
ENDBRANCH  48  51
BRANCH  47  54
ATOM     54  O   UNL     1       1.657  -5.914  27.609  0.00  0.00    -0.387 OA
ATOM     55  H   UNL     1       1.977  -5.388  28.362  0.00  0.00    +0.210 HD
ENDBRANCH  47  54
BRANCH  46  56
ATOM     56  O   UNL     1       3.274  -8.279  25.269  0.00  0.00    -0.387 OA
ATOM     57  H   UNL     1       4.186  -8.157  25.593  0.00  0.00    +0.210 HD
ENDBRANCH  46  56
BRANCH  45  58
ATOM     58  C   UNL     1       2.941  -6.245  23.260  0.00  0.00    +0.112 C 
BRANCH  58  59
ATOM     59  N   UNL     1       4.311  -6.503  22.789  0.00  0.00    -0.328 NA
ATOM     60  H   UNL     1       4.779  -5.603  22.696  0.00  0.00    +0.118 HD
ATOM     61  H   UNL     1       4.817  -7.015  23.511  0.00  0.00    +0.118 HD
ENDBRANCH  58  59
ENDBRANCH  45  58
ENDBRANCH  44  49
ENDBRANCH  34  44
ENDBRANCH  33  36
ENDBRANCH   1  33
TORSDOF 22
ENDMDL
MODEL 6
REMARK VINA RESULT:      -6.7      2.126      5.250
REMARK  Name = 
REMARK  22 active torsions:
REMARK  status: ('A' for Active; 'I' for Inactive)
REMARK    1  A    between atoms: N_1  and  C_2
REMARK    2  A    between atoms: C_2  and  C_3
REMARK    3  A    between atoms: C_6  and  O_8
REMARK    4  A    between atoms: O_8  and  C_9
REMARK    5  A    between atoms: C_11  and  C_13
REMARK    6  A    between atoms: C_13  and  O_14
REMARK    7  A    between atoms: C_16  and  O_18
REMARK    8  A    between atoms: O_18  and  C_19
REMARK    9  A    between atoms: C_21  and  O_23
REMARK   10  A    between atoms: C_24  and  N_26
REMARK   11  A    between atoms: C_28  and  N_30
REMARK   12  A    between atoms: C_31  and  O_33
REMARK   13  A    between atoms: O_33  and  C_34
REMARK   14  A    between atoms: C_37  and  C_39
REMARK   15  A    between atoms: C_39  and  N_40
REMARK   16  A    between atoms: C_41  and  O_43
REMARK   17  A    between atoms: C_44  and  O_46
REMARK   18  A    between atoms: C_47  and  N_49
REMARK   19  A    between atoms: C_50  and  O_52
REMARK   20  A    between atoms: C_53  and  N_55
REMARK   21  A    between atoms: C_56  and  O_58
REMARK   22  A    between atoms: C_59  and  O_61
REMARK                            x       y       z     vdW  Elec       q    Type
REMARK                         _______ _______ _______ _____ _____    ______ ____
ROOT
ATOM      1  C   UNL     1       7.753  -2.774  24.750  0.00  0.00    +0.182 C 
ATOM      2  C   UNL     1       6.473  -3.601  25.069  0.00  0.00    +0.169 C 
ATOM      3  C   UNL     1       6.794  -4.644  26.195  0.00  0.00    +0.084 C 
ATOM      4  C   UNL     1       8.037  -5.503  25.899  0.00  0.00    +0.042 C 
ATOM      5  C   UNL     1       9.261  -4.623  25.653  0.00  0.00    +0.084 C 
ATOM      6  C   UNL     1       8.981  -3.666  24.494  0.00  0.00    +0.163 C 
ENDROOT
BRANCH   3   7
ATOM      7  N   UNL     1       5.653  -5.538  26.475  0.00  0.00    -0.325 NA
ATOM      8  H   UNL     1       5.526  -6.192  25.703  0.00  0.00    +0.119 HD
ATOM      9  H   UNL     1       5.870  -6.111  27.292  0.00  0.00    +0.119 HD
ENDBRANCH   3   7
BRANCH   5  10
ATOM     10  N   UNL     1      10.449  -5.446  25.351  0.00  0.00    -0.325 NA
ATOM     11  H   UNL     1      10.412  -6.307  25.899  0.00  0.00    +0.119 HD
ATOM     12  H   UNL     1      10.318  -5.779  24.387  0.00  0.00    +0.119 HD
ENDBRANCH   5  10
BRANCH   6  13
ATOM     13  O   UNL     1      10.139  -2.847  24.265  0.00  0.00    -0.388 OA
ATOM     14  H   UNL     1       9.853  -2.188  23.597  0.00  0.00    +0.210 HD
ENDBRANCH   6  13
BRANCH   2  15
ATOM     15  O   UNL     1       5.377  -2.794  25.564  0.00  0.00    -0.342 OA
BRANCH  15  16
ATOM     16  C   UNL     1       5.602  -2.098  26.787  0.00  0.00    +0.270 C 
ATOM     17  C   UNL     1       4.456  -2.344  27.804  0.00  0.00    +0.139 C 
ATOM     18  C   UNL     1       3.185  -1.599  27.366  0.00  0.00    +0.167 C 
ATOM     19  C   UNL     1       3.505  -0.119  27.123  0.00  0.00    +0.175 C 
ATOM     20  C   UNL     1       4.651  -0.005  26.102  0.00  0.00    +0.166 C 
ATOM     21  O   UNL     1       5.811  -0.695  26.591  0.00  0.00    -0.343 OA
BRANCH  17  22
ATOM     22  N   UNL     1       4.185  -3.779  28.055  0.00  0.00    -0.321 NA
ATOM     23  H   UNL     1       3.801  -3.844  29.002  0.00  0.00    +0.119 HD
ATOM     24  H   UNL     1       3.425  -4.065  27.435  0.00  0.00    +0.119 HD
ENDBRANCH  17  22
BRANCH  19  25
ATOM     25  O   UNL     1       2.311   0.557  26.714  0.00  0.00    -0.387 OA
ATOM     26  H   UNL     1       2.371   1.490  26.986  0.00  0.00    +0.210 HD
ENDBRANCH  19  25
BRANCH  18  27
ATOM     27  O   UNL     1       2.183  -1.714  28.392  0.00  0.00    -0.387 OA
ATOM     28  H   UNL     1       1.587  -0.956  28.262  0.00  0.00    +0.210 HD
ENDBRANCH  18  27
BRANCH  20  29
ATOM     29  C   UNL     1       5.027   1.469  25.847  0.00  0.00    +0.112 C 
BRANCH  29  30
ATOM     30  N   UNL     1       4.755   1.856  24.455  0.00  0.00    -0.328 NA
ATOM     31  H   UNL     1       4.942   1.060  23.846  0.00  0.00    +0.118 HD
ATOM     32  H   UNL     1       3.756   2.041  24.371  0.00  0.00    +0.118 HD
ENDBRANCH  29  30
ENDBRANCH  20  29
ENDBRANCH  15  16
ENDBRANCH   2  15
BRANCH   1  33
ATOM     33  O   UNL     1       7.622  -1.790  23.704  0.00  0.00    -0.340 OA
BRANCH  33  36
ATOM     34  C   UNL     1       8.665   1.571  24.213  0.00  0.00    +0.186 C 
ATOM     35  C   UNL     1       8.659   0.122  24.690  0.00  0.00    +0.202 C 
ATOM     36  C   UNL     1       7.374  -0.432  24.064  0.00  0.00    +0.282 C 
ATOM     37  O   UNL     1       7.078   0.372  22.924  0.00  0.00    -0.341 OA
ATOM     38  C   UNL     1       8.007   1.464  22.842  0.00  0.00    +0.178 C 
BRANCH  35  39
ATOM     39  O   UNL     1       8.734  -0.059  26.105  0.00  0.00    -0.384 OA
ATOM     40  H   UNL     1       9.250   0.691  26.452  0.00  0.00    +0.210 HD
ENDBRANCH  35  39
BRANCH  38  41
ATOM     41  C   UNL     1       8.969   1.222  21.679  0.00  0.00    +0.190 C 
BRANCH  41  42
ATOM     42  O   UNL     1       9.950   2.250  21.585  0.00  0.00    -0.392 OA
ATOM     43  H   UNL     1      10.635   2.051  22.250  0.00  0.00    +0.210 HD
ENDBRANCH  41  42
ENDBRANCH  38  41
BRANCH  34  44
ATOM     44  O   UNL     1       7.822   2.464  24.964  0.00  0.00    -0.341 OA
BRANCH  44  49
ATOM     45  C   UNL     1       9.944   5.325  24.260  0.00  0.00    +0.166 C 
ATOM     46  C   UNL     1       8.909   6.429  23.938  0.00  0.00    +0.175 C 
ATOM     47  C   UNL     1       7.602   6.198  24.735  0.00  0.00    +0.167 C 
ATOM     48  C   UNL     1       7.106   4.741  24.608  0.00  0.00    +0.139 C 
ATOM     49  C   UNL     1       8.285   3.807  24.989  0.00  0.00    +0.270 C 
ATOM     50  O   UNL     1       9.357   4.019  24.072  0.00  0.00    -0.343 OA
BRANCH  48  51
ATOM     51  N   UNL     1       6.602   4.457  23.234  0.00  0.00    -0.321 NA
ATOM     52  H   UNL     1       7.431   4.319  22.641  0.00  0.00    +0.119 HD
ATOM     53  H   UNL     1       6.189   3.519  23.265  0.00  0.00    +0.119 HD
ENDBRANCH  48  51
BRANCH  47  54
ATOM     54  O   UNL     1       7.758   6.563  26.114  0.00  0.00    -0.387 OA
ATOM     55  H   UNL     1       7.238   7.360  26.317  0.00  0.00    +0.210 HD
ENDBRANCH  47  54
BRANCH  46  56
ATOM     56  O   UNL     1       8.651   6.445  22.527  0.00  0.00    -0.387 OA
ATOM     57  H   UNL     1       8.366   7.344  22.278  0.00  0.00    +0.210 HD
ENDBRANCH  46  56
BRANCH  45  58
ATOM     58  C   UNL     1      11.200   5.413  23.376  0.00  0.00    +0.112 C 
BRANCH  58  59
ATOM     59  N   UNL     1      11.636   4.067  22.969  0.00  0.00    -0.328 NA
ATOM     60  H   UNL     1      12.223   4.170  22.144  0.00  0.00    +0.118 HD
ATOM     61  H   UNL     1      12.234   3.680  23.699  0.00  0.00    +0.118 HD
ENDBRANCH  58  59
ENDBRANCH  45  58
ENDBRANCH  44  49
ENDBRANCH  34  44
ENDBRANCH  33  36
ENDBRANCH   1  33
TORSDOF 22
ENDMDL
MODEL 7
REMARK VINA RESULT:      -6.7      2.487      5.049
REMARK  Name = 
REMARK  22 active torsions:
REMARK  status: ('A' for Active; 'I' for Inactive)
REMARK    1  A    between atoms: N_1  and  C_2
REMARK    2  A    between atoms: C_2  and  C_3
REMARK    3  A    between atoms: C_6  and  O_8
REMARK    4  A    between atoms: O_8  and  C_9
REMARK    5  A    between atoms: C_11  and  C_13
REMARK    6  A    between atoms: C_13  and  O_14
REMARK    7  A    between atoms: C_16  and  O_18
REMARK    8  A    between atoms: O_18  and  C_19
REMARK    9  A    between atoms: C_21  and  O_23
REMARK   10  A    between atoms: C_24  and  N_26
REMARK   11  A    between atoms: C_28  and  N_30
REMARK   12  A    between atoms: C_31  and  O_33
REMARK   13  A    between atoms: O_33  and  C_34
REMARK   14  A    between atoms: C_37  and  C_39
REMARK   15  A    between atoms: C_39  and  N_40
REMARK   16  A    between atoms: C_41  and  O_43
REMARK   17  A    between atoms: C_44  and  O_46
REMARK   18  A    between atoms: C_47  and  N_49
REMARK   19  A    between atoms: C_50  and  O_52
REMARK   20  A    between atoms: C_53  and  N_55
REMARK   21  A    between atoms: C_56  and  O_58
REMARK   22  A    between atoms: C_59  and  O_61
REMARK                            x       y       z     vdW  Elec       q    Type
REMARK                         _______ _______ _______ _____ _____    ______ ____
ROOT
ATOM      1  C   UNL     1       7.520  -3.382  24.469  0.00  0.00    +0.182 C 
ATOM      2  C   UNL     1       6.309  -4.133  25.097  0.00  0.00    +0.169 C 
ATOM      3  C   UNL     1       6.697  -4.642  26.529  0.00  0.00    +0.084 C 
ATOM      4  C   UNL     1       8.013  -5.440  26.562  0.00  0.00    +0.042 C 
ATOM      5  C   UNL     1       9.162  -4.617  25.982  0.00  0.00    +0.084 C 
ATOM      6  C   UNL     1       8.824  -4.197  24.551  0.00  0.00    +0.163 C 
ENDROOT
BRANCH   3   7
ATOM      7  N   UNL     1       5.631  -5.458  27.144  0.00  0.00    -0.325 NA
ATOM      8  H   UNL     1       6.042  -6.222  27.678  0.00  0.00    +0.119 HD
ATOM      9  H   UNL     1       5.122  -4.887  27.821  0.00  0.00    +0.119 HD
ENDBRANCH   3   7
BRANCH   5  10
ATOM     10  N   UNL     1      10.421  -5.388  25.995  0.00  0.00    -0.325 NA
ATOM     11  H   UNL     1      10.955  -5.149  26.833  0.00  0.00    +0.119 HD
ATOM     12  H   UNL     1      10.147  -6.364  26.167  0.00  0.00    +0.119 HD
ENDBRANCH   5  10
BRANCH   6  13
ATOM     13  O   UNL     1       9.912  -3.430  24.012  0.00  0.00    -0.388 OA
ATOM     14  H   UNL     1      10.594  -3.432  24.717  0.00  0.00    +0.210 HD
ENDBRANCH   6  13
BRANCH   2  15
ATOM     15  O   UNL     1       5.140  -3.296  25.267  0.00  0.00    -0.342 OA
BRANCH  15  16
ATOM     16  C   UNL     1       4.127  -3.410  24.270  0.00  0.00    +0.270 C 
ATOM     17  C   UNL     1       2.853  -4.099  24.828  0.00  0.00    +0.139 C 
ATOM     18  C   UNL     1       3.110  -5.599  25.044  0.00  0.00    +0.167 C 
ATOM     19  C   UNL     1       3.654  -6.227  23.753  0.00  0.00    +0.175 C 
ATOM     20  C   UNL     1       4.910  -5.460  23.303  0.00  0.00    +0.166 C 
ATOM     21  O   UNL     1       4.588  -4.077  23.091  0.00  0.00    -0.343 OA
BRANCH  17  22
ATOM     22  N   UNL     1       2.320  -3.459  26.053  0.00  0.00    -0.321 NA
ATOM     23  H   UNL     1       1.705  -2.700  25.744  0.00  0.00    +0.119 HD
ATOM     24  H   UNL     1       1.707  -4.133  26.516  0.00  0.00    +0.119 HD
ENDBRANCH  17  22
BRANCH  19  25
ATOM     25  O   UNL     1       3.888  -7.621  23.974  0.00  0.00    -0.387 OA
ATOM     26  H   UNL     1       3.845  -7.798  24.931  0.00  0.00    +0.210 HD
ENDBRANCH  19  25
BRANCH  18  27
ATOM     27  O   UNL     1       1.881  -6.249  25.415  0.00  0.00    -0.387 OA
ATOM     28  H   UNL     1       1.876  -6.264  26.388  0.00  0.00    +0.210 HD
ENDBRANCH  18  27
BRANCH  20  29
ATOM     29  C   UNL     1       5.476  -6.039  21.990  0.00  0.00    +0.112 C 
BRANCH  29  30
ATOM     30  N   UNL     1       5.982  -4.974  21.112  0.00  0.00    -0.328 NA
ATOM     31  H   UNL     1       5.441  -4.124  21.274  0.00  0.00    +0.118 HD
ATOM     32  H   UNL     1       6.935  -4.756  21.400  0.00  0.00    +0.118 HD
ENDBRANCH  29  30
ENDBRANCH  20  29
ENDBRANCH  15  16
ENDBRANCH   2  15
BRANCH   1  33
ATOM     33  O   UNL     1       7.325  -2.882  23.132  0.00  0.00    -0.340 OA
BRANCH  33  36
ATOM     34  C   UNL     1       8.121   0.523  23.781  0.00  0.00    +0.186 C 
ATOM     35  C   UNL     1       7.491  -0.782  24.258  0.00  0.00    +0.202 C 
ATOM     36  C   UNL     1       7.130  -1.482  22.942  0.00  0.00    +0.282 C 
ATOM     37  O   UNL     1       7.993  -0.959  21.935  0.00  0.00    -0.341 OA
ATOM     38  C   UNL     1       8.795   0.101  22.480  0.00  0.00    +0.178 C 
BRANCH  35  39
ATOM     39  O   UNL     1       6.389  -0.640  25.155  0.00  0.00    -0.384 OA
ATOM     40  H   UNL     1       5.599  -0.502  24.601  0.00  0.00    +0.210 HD
ENDBRANCH  35  39
BRANCH  38  41
ATOM     41  C   UNL     1      10.238  -0.382  22.625  0.00  0.00    +0.190 C 
BRANCH  41  42
ATOM     42  O   UNL     1      10.471  -1.573  21.880  0.00  0.00    -0.392 OA
ATOM     43  H   UNL     1      11.045  -2.142  22.425  0.00  0.00    +0.210 HD
ENDBRANCH  41  42
ENDBRANCH  38  41
BRANCH  34  44
ATOM     44  O   UNL     1       7.185   1.548  23.402  0.00  0.00    -0.341 OA
BRANCH  44  49
ATOM     45  C   UNL     1       9.193   4.485  24.129  0.00  0.00    +0.166 C 
ATOM     46  C   UNL     1       8.225   5.640  23.778  0.00  0.00    +0.175 C 
ATOM     47  C   UNL     1       6.759   5.217  24.039  0.00  0.00    +0.167 C 
ATOM     48  C   UNL     1       6.439   3.844  23.409  0.00  0.00    +0.139 C 
ATOM     49  C   UNL     1       7.513   2.838  23.900  0.00  0.00    +0.270 C 
ATOM     50  O   UNL     1       8.795   3.274  23.450  0.00  0.00    -0.343 OA
BRANCH  48  51
ATOM     51  N   UNL     1       6.403   3.925  21.921  0.00  0.00    -0.321 NA
ATOM     52  H   UNL     1       6.794   3.041  21.570  0.00  0.00    +0.119 HD
ATOM     53  H   UNL     1       5.416   3.859  21.651  0.00  0.00    +0.119 HD
ENDBRANCH  48  51
BRANCH  47  54
ATOM     54  O   UNL     1       6.457   5.214  25.443  0.00  0.00    -0.387 OA
ATOM     55  H   UNL     1       6.908   4.475  25.887  0.00  0.00    +0.210 HD
ENDBRANCH  47  54
BRANCH  46  56
ATOM     56  O   UNL     1       8.410   6.019  22.407  0.00  0.00    -0.387 OA
ATOM     57  H   UNL     1       8.773   5.252  21.924  0.00  0.00    +0.210 HD
ENDBRANCH  46  56
BRANCH  45  58
ATOM     58  C   UNL     1      10.649   4.792  23.736  0.00  0.00    +0.112 C 
BRANCH  58  59
ATOM     59  N   UNL     1      11.220   3.672  22.970  0.00  0.00    -0.328 NA
ATOM     60  H   UNL     1      11.610   4.055  22.111  0.00  0.00    +0.118 HD
ATOM     61  H   UNL     1      12.006   3.283  23.492  0.00  0.00    +0.118 HD
ENDBRANCH  58  59
ENDBRANCH  45  58
ENDBRANCH  44  49
ENDBRANCH  34  44
ENDBRANCH  33  36
ENDBRANCH   1  33
TORSDOF 22
ENDMDL
MODEL 8
REMARK VINA RESULT:      -6.6      2.799      5.255
REMARK  Name = 
REMARK  22 active torsions:
REMARK  status: ('A' for Active; 'I' for Inactive)
REMARK    1  A    between atoms: N_1  and  C_2
REMARK    2  A    between atoms: C_2  and  C_3
REMARK    3  A    between atoms: C_6  and  O_8
REMARK    4  A    between atoms: O_8  and  C_9
REMARK    5  A    between atoms: C_11  and  C_13
REMARK    6  A    between atoms: C_13  and  O_14
REMARK    7  A    between atoms: C_16  and  O_18
REMARK    8  A    between atoms: O_18  and  C_19
REMARK    9  A    between atoms: C_21  and  O_23
REMARK   10  A    between atoms: C_24  and  N_26
REMARK   11  A    between atoms: C_28  and  N_30
REMARK   12  A    between atoms: C_31  and  O_33
REMARK   13  A    between atoms: O_33  and  C_34
REMARK   14  A    between atoms: C_37  and  C_39
REMARK   15  A    between atoms: C_39  and  N_40
REMARK   16  A    between atoms: C_41  and  O_43
REMARK   17  A    between atoms: C_44  and  O_46
REMARK   18  A    between atoms: C_47  and  N_49
REMARK   19  A    between atoms: C_50  and  O_52
REMARK   20  A    between atoms: C_53  and  N_55
REMARK   21  A    between atoms: C_56  and  O_58
REMARK   22  A    between atoms: C_59  and  O_61
REMARK                            x       y       z     vdW  Elec       q    Type
REMARK                         _______ _______ _______ _____ _____    ______ ____
ROOT
ATOM      1  C   UNL     1       6.792  -5.235  23.989  0.00  0.00    +0.182 C 
ATOM      2  C   UNL     1       5.368  -5.359  24.606  0.00  0.00    +0.169 C 
ATOM      3  C   UNL     1       4.510  -6.347  23.741  0.00  0.00    +0.084 C 
ATOM      4  C   UNL     1       4.515  -6.011  22.239  0.00  0.00    +0.042 C 
ATOM      5  C   UNL     1       5.942  -5.963  21.697  0.00  0.00    +0.084 C 
ATOM      6  C   UNL     1       6.756  -4.932  22.480  0.00  0.00    +0.163 C 
ENDROOT
BRANCH   3   7
ATOM      7  N   UNL     1       3.111  -6.432  24.205  0.00  0.00    -0.325 NA
ATOM      8  H   UNL     1       2.563  -6.993  23.555  0.00  0.00    +0.119 HD
ATOM      9  H   UNL     1       3.084  -6.930  25.096  0.00  0.00    +0.119 HD
ENDBRANCH   3   7
BRANCH   5  10
ATOM     10  N   UNL     1       5.949  -5.622  20.260  0.00  0.00    -0.325 NA
ATOM     11  H   UNL     1       5.036  -5.841  19.857  0.00  0.00    +0.119 HD
ATOM     12  H   UNL     1       5.980  -4.595  20.219  0.00  0.00    +0.119 HD
ENDBRANCH   5  10
BRANCH   6  13
ATOM     13  O   UNL     1       8.094  -4.890  21.959  0.00  0.00    -0.388 OA
ATOM     14  H   UNL     1       8.515  -4.127  22.410  0.00  0.00    +0.210 HD
ENDBRANCH   6  13
BRANCH   2  15
ATOM     15  O   UNL     1       5.370  -5.894  25.951  0.00  0.00    -0.342 OA
BRANCH  15  16
ATOM     16  C   UNL     1       5.433  -4.945  27.013  0.00  0.00    +0.270 C 
ATOM     17  C   UNL     1       6.420  -5.395  28.123  0.00  0.00    +0.139 C 
ATOM     18  C   UNL     1       5.826  -6.567  28.920  0.00  0.00    +0.167 C 
ATOM     19  C   UNL     1       4.428  -6.197  29.432  0.00  0.00    +0.175 C 
ATOM     20  C   UNL     1       3.547  -5.771  28.244  0.00  0.00    +0.166 C 
ATOM     21  O   UNL     1       4.146  -4.655  27.567  0.00  0.00    -0.343 OA
BRANCH  17  22
ATOM     22  N   UNL     1       7.775  -5.713  27.618  0.00  0.00    -0.321 NA
ATOM     23  H   UNL     1       8.432  -5.150  28.167  0.00  0.00    +0.119 HD
ATOM     24  H   UNL     1       7.979  -6.684  27.863  0.00  0.00    +0.119 HD
ENDBRANCH  17  22
BRANCH  19  25
ATOM     25  O   UNL     1       3.892  -7.301  30.169  0.00  0.00    -0.387 OA
ATOM     26  H   UNL     1       2.966  -7.438  29.899  0.00  0.00    +0.210 HD
ENDBRANCH  19  25
BRANCH  18  27
ATOM     27  O   UNL     1       6.683  -6.872  30.037  0.00  0.00    -0.387 OA
ATOM     28  H   UNL     1       7.525  -7.166  29.648  0.00  0.00    +0.210 HD
ENDBRANCH  18  27
BRANCH  20  29
ATOM     29  C   UNL     1       2.137  -5.361  28.714  0.00  0.00    +0.112 C 
BRANCH  29  30
ATOM     30  N   UNL     1       1.262  -6.534  28.862  0.00  0.00    -0.328 NA
ATOM     31  H   UNL     1       0.994  -6.867  27.936  0.00  0.00    +0.118 HD
ATOM     32  H   UNL     1       1.812  -7.285  29.279  0.00  0.00    +0.118 HD
ENDBRANCH  29  30
ENDBRANCH  20  29
ENDBRANCH  15  16
ENDBRANCH   2  15
BRANCH   1  33
ATOM     33  O   UNL     1       7.691  -4.330  24.660  0.00  0.00    -0.340 OA
BRANCH  33  36
ATOM     34  C   UNL     1       8.674  -0.923  24.935  0.00  0.00    +0.186 C 
ATOM     35  C   UNL     1       8.346  -2.245  25.624  0.00  0.00    +0.202 C 
ATOM     36  C   UNL     1       7.421  -2.930  24.611  0.00  0.00    +0.282 C 
ATOM     37  O   UNL     1       7.715  -2.379  23.329  0.00  0.00    -0.341 OA
ATOM     38  C   UNL     1       8.672  -1.315  23.462  0.00  0.00    +0.178 C 
BRANCH  35  39
ATOM     39  O   UNL     1       7.784  -2.132  26.931  0.00  0.00    -0.384 OA
ATOM     40  H   UNL     1       8.263  -2.768  27.494  0.00  0.00    +0.210 HD
ENDBRANCH  35  39
BRANCH  38  41
ATOM     41  C   UNL     1      10.021  -1.778  22.913  0.00  0.00    +0.190 C 
BRANCH  41  42
ATOM     42  O   UNL     1      10.118  -1.565  21.508  0.00  0.00    -0.392 OA
ATOM     43  H   UNL     1       9.390  -2.063  21.094  0.00  0.00    +0.210 HD
ENDBRANCH  41  42
ENDBRANCH  38  41
BRANCH  34  44
ATOM     44  O   UNL     1       7.663   0.093  25.054  0.00  0.00    -0.341 OA
BRANCH  44  49
ATOM     45  C   UNL     1       6.441   2.507  22.631  0.00  0.00    +0.166 C 
ATOM     46  C   UNL     1       7.434   3.680  22.806  0.00  0.00    +0.175 C 
ATOM     47  C   UNL     1       8.828   3.152  23.228  0.00  0.00    +0.167 C 
ATOM     48  C   UNL     1       8.730   2.160  24.406  0.00  0.00    +0.139 C 
ATOM     49  C   UNL     1       7.701   1.066  24.018  0.00  0.00    +0.270 C 
ATOM     50  O   UNL     1       6.429   1.680  23.814  0.00  0.00    -0.343 OA
BRANCH  48  51
ATOM     51  N   UNL     1       8.345   2.852  25.669  0.00  0.00    -0.321 NA
ATOM     52  H   UNL     1       8.240   2.121  26.384  0.00  0.00    +0.119 HD
ATOM     53  H   UNL     1       9.176   3.361  25.986  0.00  0.00    +0.119 HD
ENDBRANCH  48  51
BRANCH  47  54
ATOM     54  O   UNL     1       9.520   2.558  22.120  0.00  0.00    -0.387 OA
ATOM     55  H   UNL     1       8.898   2.076  21.547  0.00  0.00    +0.210 HD
ENDBRANCH  47  54
BRANCH  46  56
ATOM     56  O   UNL     1       6.921   4.600  23.780  0.00  0.00    -0.387 OA
ATOM     57  H   UNL     1       7.613   4.754  24.449  0.00  0.00    +0.210 HD
ENDBRANCH  46  56
BRANCH  45  58
ATOM     58  C   UNL     1       5.001   2.983  22.371  0.00  0.00    +0.112 C 
BRANCH  58  59
ATOM     59  N   UNL     1       4.133   2.637  23.508  0.00  0.00    -0.328 NA
ATOM     60  H   UNL     1       3.668   3.490  23.811  0.00  0.00    +0.118 HD
ATOM     61  H   UNL     1       3.397   2.011  23.182  0.00  0.00    +0.118 HD
ENDBRANCH  58  59
ENDBRANCH  45  58
ENDBRANCH  44  49
ENDBRANCH  34  44
ENDBRANCH  33  36
ENDBRANCH   1  33
TORSDOF 22
ENDMDL
MODEL 9
REMARK VINA RESULT:      -6.6      2.654      5.152
REMARK  Name = 
REMARK  22 active torsions:
REMARK  status: ('A' for Active; 'I' for Inactive)
REMARK    1  A    between atoms: N_1  and  C_2
REMARK    2  A    between atoms: C_2  and  C_3
REMARK    3  A    between atoms: C_6  and  O_8
REMARK    4  A    between atoms: O_8  and  C_9
REMARK    5  A    between atoms: C_11  and  C_13
REMARK    6  A    between atoms: C_13  and  O_14
REMARK    7  A    between atoms: C_16  and  O_18
REMARK    8  A    between atoms: O_18  and  C_19
REMARK    9  A    between atoms: C_21  and  O_23
REMARK   10  A    between atoms: C_24  and  N_26
REMARK   11  A    between atoms: C_28  and  N_30
REMARK   12  A    between atoms: C_31  and  O_33
REMARK   13  A    between atoms: O_33  and  C_34
REMARK   14  A    between atoms: C_37  and  C_39
REMARK   15  A    between atoms: C_39  and  N_40
REMARK   16  A    between atoms: C_41  and  O_43
REMARK   17  A    between atoms: C_44  and  O_46
REMARK   18  A    between atoms: C_47  and  N_49
REMARK   19  A    between atoms: C_50  and  O_52
REMARK   20  A    between atoms: C_53  and  N_55
REMARK   21  A    between atoms: C_56  and  O_58
REMARK   22  A    between atoms: C_59  and  O_61
REMARK                            x       y       z     vdW  Elec       q    Type
REMARK                         _______ _______ _______ _____ _____    ______ ____
ROOT
ATOM      1  C   UNL     1       6.609  -5.182  24.266  0.00  0.00    +0.182 C 
ATOM      2  C   UNL     1       5.167  -5.420  24.802  0.00  0.00    +0.169 C 
ATOM      3  C   UNL     1       4.448  -6.488  23.906  0.00  0.00    +0.084 C 
ATOM      4  C   UNL     1       4.511  -6.170  22.401  0.00  0.00    +0.042 C 
ATOM      5  C   UNL     1       5.959  -6.006  21.940  0.00  0.00    +0.084 C 
ATOM      6  C   UNL     1       6.635  -4.900  22.752  0.00  0.00    +0.163 C 
ENDROOT
BRANCH   3   7
ATOM      7  N   UNL     1       3.036  -6.686  24.290  0.00  0.00    -0.325 NA
ATOM      8  H   UNL     1       2.424  -6.395  23.529  0.00  0.00    +0.119 HD
ATOM      9  H   UNL     1       2.863  -7.684  24.422  0.00  0.00    +0.119 HD
ENDBRANCH   3   7
BRANCH   5  10
ATOM     10  N   UNL     1       6.020  -5.682  20.501  0.00  0.00    -0.325 NA
ATOM     11  H   UNL     1       5.696  -6.486  19.960  0.00  0.00    +0.119 HD
ATOM     12  H   UNL     1       5.283  -4.984  20.342  0.00  0.00    +0.119 HD
ENDBRANCH   5  10
BRANCH   6  13
ATOM     13  O   UNL     1       7.993  -4.749  22.308  0.00  0.00    -0.388 OA
ATOM     14  H   UNL     1       8.426  -5.600  22.532  0.00  0.00    +0.210 HD
ENDBRANCH   6  13
BRANCH   2  15
ATOM     15  O   UNL     1       5.135  -5.937  26.154  0.00  0.00    -0.342 OA
BRANCH  15  16
ATOM     16  C   UNL     1       5.240  -4.979  27.204  0.00  0.00    +0.270 C 
ATOM     17  C   UNL     1       6.284  -5.410  28.268  0.00  0.00    +0.139 C 
ATOM     18  C   UNL     1       5.743  -6.582  29.102  0.00  0.00    +0.167 C 
ATOM     19  C   UNL     1       4.367  -6.221  29.678  0.00  0.00    +0.175 C 
ATOM     20  C   UNL     1       3.425  -5.813  28.531  0.00  0.00    +0.166 C 
ATOM     21  O   UNL     1       3.979  -4.697  27.818  0.00  0.00    -0.343 OA
BRANCH  17  22
ATOM     22  N   UNL     1       7.617  -5.719  27.699  0.00  0.00    -0.321 NA
ATOM     23  H   UNL     1       7.981  -4.844  27.312  0.00  0.00    +0.119 HD
ATOM     24  H   UNL     1       8.241  -5.951  28.475  0.00  0.00    +0.119 HD
ENDBRANCH  17  22
BRANCH  19  25
ATOM     25  O   UNL     1       3.879  -7.324  30.449  0.00  0.00    -0.387 OA
ATOM     26  H   UNL     1       4.558  -7.573  31.103  0.00  0.00    +0.210 HD
ENDBRANCH  19  25
BRANCH  18  27
ATOM     27  O   UNL     1       6.655  -6.869  30.177  0.00  0.00    -0.387 OA
ATOM     28  H   UNL     1       6.233  -6.517  30.980  0.00  0.00    +0.210 HD
ENDBRANCH  18  27
BRANCH  20  29
ATOM     29  C   UNL     1       2.035  -5.413  29.067  0.00  0.00    +0.112 C 
BRANCH  29  30
ATOM     30  N   UNL     1       2.129  -4.837  30.415  0.00  0.00    -0.328 NA
ATOM     31  H   UNL     1       2.982  -4.282  30.482  0.00  0.00    +0.118 HD
ATOM     32  H   UNL     1       1.359  -4.177  30.529  0.00  0.00    +0.118 HD
ENDBRANCH  29  30
ENDBRANCH  20  29
ENDBRANCH  15  16
ENDBRANCH   2  15
BRANCH   1  33
ATOM     33  O   UNL     1       7.387  -4.195  24.972  0.00  0.00    -0.340 OA
BRANCH  33  36
ATOM     34  C   UNL     1       8.157  -0.736  25.273  0.00  0.00    +0.186 C 
ATOM     35  C   UNL     1       7.710  -2.035  25.938  0.00  0.00    +0.202 C 
ATOM     36  C   UNL     1       7.092  -2.814  24.771  0.00  0.00    +0.282 C 
ATOM     37  O   UNL     1       7.681  -2.315  23.572  0.00  0.00    -0.341 OA
ATOM     38  C   UNL     1       8.537  -1.203  23.873  0.00  0.00    +0.178 C 
BRANCH  35  39
ATOM     39  O   UNL     1       6.834  -1.882  27.055  0.00  0.00    -0.384 OA
ATOM     40  H   UNL     1       7.402  -1.758  27.837  0.00  0.00    +0.210 HD
ENDBRANCH  35  39
BRANCH  38  41
ATOM     41  C   UNL     1       9.996  -1.629  23.706  0.00  0.00    +0.190 C 
BRANCH  41  42
ATOM     42  O   UNL     1      10.138  -3.045  23.750  0.00  0.00    -0.392 OA
ATOM     43  H   UNL     1       9.756  -3.343  24.596  0.00  0.00    +0.210 HD
ENDBRANCH  41  42
ENDBRANCH  38  41
BRANCH  34  44
ATOM     44  O   UNL     1       7.115   0.236  25.074  0.00  0.00    -0.341 OA
BRANCH  44  49
ATOM     45  C   UNL     1       9.267   2.967  24.024  0.00  0.00    +0.166 C 
ATOM     46  C   UNL     1       8.244   4.032  23.563  0.00  0.00    +0.175 C 
ATOM     47  C   UNL     1       6.933   3.915  24.378  0.00  0.00    +0.167 C 
ATOM     48  C   UNL     1       6.423   2.459  24.433  0.00  0.00    +0.139 C 
ATOM     49  C   UNL     1       7.591   1.568  24.932  0.00  0.00    +0.270 C 
ATOM     50  O   UNL     1       8.668   1.653  23.999  0.00  0.00    -0.343 OA
BRANCH  48  51
ATOM     51  N   UNL     1       5.919   2.009  23.104  0.00  0.00    -0.321 NA
ATOM     52  H   UNL     1       5.963   0.982  23.106  0.00  0.00    +0.119 HD
ATOM     53  H   UNL     1       4.910   2.193  23.100  0.00  0.00    +0.119 HD
ENDBRANCH  48  51
BRANCH  47  54
ATOM     54  O   UNL     1       7.090   4.448  25.702  0.00  0.00    -0.387 OA
ATOM     55  H   UNL     1       7.373   3.751  26.319  0.00  0.00    +0.210 HD
ENDBRANCH  47  54
BRANCH  46  56
ATOM     56  O   UNL     1       7.989   3.873  22.160  0.00  0.00    -0.387 OA
ATOM     57  H   UNL     1       8.467   3.081  21.851  0.00  0.00    +0.210 HD
ENDBRANCH  46  56
BRANCH  45  58
ATOM     58  C   UNL     1      10.526   2.931  23.140  0.00  0.00    +0.112 C 
BRANCH  58  59
ATOM     59  N   UNL     1      10.245   2.228  21.877  0.00  0.00    -0.328 NA
ATOM     60  H   UNL     1      10.108   1.244  22.096  0.00  0.00    +0.118 HD
ATOM     61  H   UNL     1       9.358   2.564  21.503  0.00  0.00    +0.118 HD
ENDBRANCH  58  59
ENDBRANCH  45  58
ENDBRANCH  44  49
ENDBRANCH  34  44
ENDBRANCH  33  36
ENDBRANCH   1  33
TORSDOF 22
ENDMDL
