MODEL 1
REMARK VINA RESULT:      -7.2      0.000      0.000
REMARK  Name = 
REMARK  7 active torsions:
REMARK  status: ('A' for Active; 'I' for Inactive)
REMARK    1  A    between atoms: C_2  and  N_3
REMARK    2  A    between atoms: C_2  and  C_4
REMARK    3  A    between atoms: C_2  and  C_11
REMARK    4  A    between atoms: C_4  and  C_5
REMARK    5  A    between atoms: C_17  and  C_19
REMARK    6  A    between atoms: N_21  and  C_22
REMARK    7  A    between atoms: C_22  and  C_23
REMARK                            x       y       z     vdW  Elec       q    Type
REMARK                         _______ _______ _______ _____ _____    ______ ____
ROOT
ATOM      1  C   UNL     1       7.012  -5.227  26.507  0.00  0.00    +0.233 C 
ATOM      2  N   UNL     1       6.892  -4.118  25.674  0.00  0.00    -0.289 N 
ATOM      3  C   UNL     1       7.449  -4.185  24.311  0.00  0.00    +0.162 C 
ATOM      4  C   UNL     1       6.433  -3.411  23.446  0.00  0.00    +0.033 C 
ATOM      5  C   UNL     1       5.278  -3.053  24.378  0.00  0.00    +0.021 C 
ATOM      6  C   UNL     1       5.908  -3.057  25.754  0.00  0.00    +0.108 C 
ATOM      7  O   UNL     1       7.945  -6.017  26.350  0.00  0.00    -0.274 OA
ENDROOT
BRANCH   3   8
ATOM      8  C   UNL     1       8.847  -3.576  24.082  0.00  0.00    +0.234 C 
ATOM      9  N   UNL     1       8.897  -2.407  23.364  0.00  0.00    -0.310 N 
ATOM     10  H   UNL     1       8.032  -2.002  23.033  0.00  0.00    +0.149 HD
ATOM     11  O   UNL     1       9.860  -4.148  24.485  0.00  0.00    -0.274 OA
BRANCH   9  12
ATOM     12  C   UNL     1      10.161  -1.822  22.979  0.00  0.00    +0.139 C 
BRANCH  12  13
ATOM     13  C   UNL     1      10.135  -0.320  22.998  0.00  0.00    -0.030 A 
ATOM     14  C   UNL     1       9.762   0.410  21.860  0.00  0.00    +0.005 A 
ATOM     15  C   UNL     1       9.818   1.806  21.860  0.00  0.00    +0.000 A 
ATOM     16  C   UNL     1      10.253   2.488  22.995  0.00  0.00    +0.000 A 
ATOM     17  C   UNL     1      10.623   1.776  24.134  0.00  0.00    +0.000 A 
ATOM     18  C   UNL     1      10.568   0.381  24.135  0.00  0.00    +0.005 A 
ENDBRANCH  12  13
ENDBRANCH   9  12
ENDBRANCH   3   8
BRANCH   1  19
ATOM     19  C   UNL     1       5.870  -5.471  27.541  0.00  0.00    +0.142 C 
BRANCH  19  20
ATOM     20  N   UNL     1       6.415  -5.809  28.870  0.00  0.00    -0.320 NA
ATOM     21  H   UNL     1       5.651  -5.906  29.538  0.00  0.00    +0.119 HD
ATOM     22  H   UNL     1       6.896  -6.707  28.823  0.00  0.00    +0.119 HD
ENDBRANCH  19  20
BRANCH  19  23
ATOM     23  C   UNL     1       5.003  -6.626  26.995  0.00  0.00    +0.063 C 
BRANCH  23  24
ATOM     24  C   UNL     1       4.137  -6.339  25.788  0.00  0.00    -0.045 A 
ATOM     25  C   UNL     1       4.568  -6.753  24.517  0.00  0.00    +0.004 A 
ATOM     26  C   UNL     1       3.864  -6.392  23.369  0.00  0.00    +0.000 A 
ATOM     27  C   UNL     1       2.715  -5.613  23.474  0.00  0.00    +0.000 A 
ATOM     28  C   UNL     1       2.268  -5.205  24.729  0.00  0.00    +0.000 A 
ATOM     29  C   UNL     1       2.975  -5.561  25.881  0.00  0.00    +0.004 A 
ENDBRANCH  23  24
ENDBRANCH  19  23
ENDBRANCH   1  19
TORSDOF 7
ENDMDL
MODEL 2
REMARK VINA RESULT:      -7.0      2.546      3.870
REMARK  Name = 
REMARK  7 active torsions:
REMARK  status: ('A' for Active; 'I' for Inactive)
REMARK    1  A    between atoms: C_2  and  N_3
REMARK    2  A    between atoms: C_2  and  C_4
REMARK    3  A    between atoms: C_2  and  C_11
REMARK    4  A    between atoms: C_4  and  C_5
REMARK    5  A    between atoms: C_17  and  C_19
REMARK    6  A    between atoms: N_21  and  C_22
REMARK    7  A    between atoms: C_22  and  C_23
REMARK                            x       y       z     vdW  Elec       q    Type
REMARK                         _______ _______ _______ _____ _____    ______ ____
ROOT
ATOM      1  C   UNL     1       9.460  -3.162  24.638  0.00  0.00    +0.233 C 
ATOM      2  N   UNL     1       8.740  -2.115  25.204  0.00  0.00    -0.289 N 
ATOM      3  C   UNL     1       8.457  -0.920  24.390  0.00  0.00    +0.162 C 
ATOM      4  C   UNL     1       7.032  -0.502  24.807  0.00  0.00    +0.033 C 
ATOM      5  C   UNL     1       6.544  -1.585  25.765  0.00  0.00    +0.021 C 
ATOM      6  C   UNL     1       7.819  -2.179  26.322  0.00  0.00    +0.108 C 
ATOM      7  O   UNL     1      10.257  -2.940  23.725  0.00  0.00    -0.274 OA
ENDROOT
BRANCH   3   8
ATOM      8  C   UNL     1       9.391   0.296  24.559  0.00  0.00    +0.234 C 
ATOM      9  N   UNL     1       8.882   1.516  24.190  0.00  0.00    -0.310 N 
ATOM     10  H   UNL     1       7.934   1.563  23.839  0.00  0.00    +0.149 HD
ATOM     11  O   UNL     1      10.546   0.155  24.959  0.00  0.00    -0.274 OA
BRANCH   9  12
ATOM     12  C   UNL     1       9.711   2.700  24.184  0.00  0.00    +0.139 C 
BRANCH  12  13
ATOM     13  C   UNL     1       9.000   3.904  23.636  0.00  0.00    -0.030 A 
ATOM     14  C   UNL     1       7.851   3.767  22.845  0.00  0.00    +0.005 A 
ATOM     15  C   UNL     1       7.242   4.887  22.273  0.00  0.00    +0.000 A 
ATOM     16  C   UNL     1       7.780   6.156  22.481  0.00  0.00    +0.000 A 
ATOM     17  C   UNL     1       8.920   6.308  23.268  0.00  0.00    +0.000 A 
ATOM     18  C   UNL     1       9.529   5.190  23.840  0.00  0.00    +0.005 A 
ENDBRANCH  12  13
ENDBRANCH   9  12
ENDBRANCH   3   8
BRANCH   1  19
ATOM     19  C   UNL     1       9.127  -4.605  25.128  0.00  0.00    +0.142 C 
BRANCH  19  20
ATOM     20  N   UNL     1      10.356  -5.387  25.369  0.00  0.00    -0.320 NA
ATOM     21  H   UNL     1      10.907  -4.940  26.100  0.00  0.00    +0.119 HD
ATOM     22  H   UNL     1      10.108  -6.319  25.699  0.00  0.00    +0.119 HD
ENDBRANCH  19  20
BRANCH  19  23
ATOM     23  C   UNL     1       8.264  -5.268  24.033  0.00  0.00    +0.063 C 
BRANCH  23  24
ATOM     24  C   UNL     1       6.794  -4.912  23.991  0.00  0.00    -0.045 A 
ATOM     25  C   UNL     1       6.318  -4.071  22.972  0.00  0.00    +0.004 A 
ATOM     26  C   UNL     1       5.000  -3.615  22.975  0.00  0.00    +0.000 A 
ATOM     27  C   UNL     1       4.136  -3.995  23.999  0.00  0.00    +0.000 A 
ATOM     28  C   UNL     1       4.590  -4.839  25.011  0.00  0.00    +0.000 A 
ATOM     29  C   UNL     1       5.912  -5.293  25.012  0.00  0.00    +0.004 A 
ENDBRANCH  23  24
ENDBRANCH  19  23
ENDBRANCH   1  19
TORSDOF 7
ENDMDL
MODEL 3
REMARK VINA RESULT:      -6.9      2.150      3.483
REMARK  Name = 
REMARK  7 active torsions:
REMARK  status: ('A' for Active; 'I' for Inactive)
REMARK    1  A    between atoms: C_2  and  N_3
REMARK    2  A    between atoms: C_2  and  C_4
REMARK    3  A    between atoms: C_2  and  C_11
REMARK    4  A    between atoms: C_4  and  C_5
REMARK    5  A    between atoms: C_17  and  C_19
REMARK    6  A    between atoms: N_21  and  C_22
REMARK    7  A    between atoms: C_22  and  C_23
REMARK                            x       y       z     vdW  Elec       q    Type
REMARK                         _______ _______ _______ _____ _____    ______ ____
ROOT
ATOM      1  C   UNL     1       6.507  -4.294  22.391  0.00  0.00    +0.233 C 
ATOM      2  N   UNL     1       7.535  -4.158  23.319  0.00  0.00    -0.289 N 
ATOM      3  C   UNL     1       7.681  -2.882  24.041  0.00  0.00    +0.162 C 
ATOM      4  C   UNL     1       8.103  -3.296  25.466  0.00  0.00    +0.033 C 
ATOM      5  C   UNL     1       8.049  -4.820  25.491  0.00  0.00    +0.021 C 
ATOM      6  C   UNL     1       8.220  -5.214  24.039  0.00  0.00    +0.108 C 
ATOM      7  O   UNL     1       6.064  -3.301  21.811  0.00  0.00    -0.274 OA
ENDROOT
BRANCH   3   8
ATOM      8  C   UNL     1       8.713  -1.871  23.501  0.00  0.00    +0.234 C 
ATOM      9  N   UNL     1       8.391  -1.233  22.329  0.00  0.00    -0.310 N 
ATOM     10  H   UNL     1       7.506  -1.443  21.887  0.00  0.00    +0.149 HD
ATOM     11  O   UNL     1       9.787  -1.696  24.076  0.00  0.00    -0.274 OA
BRANCH   9  12
ATOM     12  C   UNL     1       9.340  -0.367  21.667  0.00  0.00    +0.139 C 
BRANCH  12  13
ATOM     13  C   UNL     1       9.237   1.062  22.121  0.00  0.00    -0.030 A 
ATOM     14  C   UNL     1      10.234   1.639  22.920  0.00  0.00    +0.005 A 
ATOM     15  C   UNL     1      10.092   2.941  23.405  0.00  0.00    +0.000 A 
ATOM     16  C   UNL     1       8.950   3.679  23.100  0.00  0.00    +0.000 A 
ATOM     17  C   UNL     1       7.953   3.120  22.304  0.00  0.00    +0.000 A 
ATOM     18  C   UNL     1       8.094   1.819  21.819  0.00  0.00    +0.005 A 
ENDBRANCH  12  13
ENDBRANCH   9  12
ENDBRANCH   3   8
BRANCH   1  19
ATOM     19  C   UNL     1       5.886  -5.714  22.216  0.00  0.00    +0.142 C 
BRANCH  19  20
ATOM     20  N   UNL     1       5.743  -6.065  20.789  0.00  0.00    -0.320 NA
ATOM     21  H   UNL     1       4.805  -6.424  20.617  0.00  0.00    +0.119 HD
ATOM     22  H   UNL     1       5.860  -5.228  20.219  0.00  0.00    +0.119 HD
ENDBRANCH  19  20
BRANCH  19  23
ATOM     23  C   UNL     1       4.509  -5.696  22.915  0.00  0.00    +0.063 C 
BRANCH  23  24
ATOM     24  C   UNL     1       4.493  -5.629  24.426  0.00  0.00    -0.045 A 
ATOM     25  C   UNL     1       4.278  -4.393  25.058  0.00  0.00    +0.004 A 
ATOM     26  C   UNL     1       4.388  -4.267  26.443  0.00  0.00    +0.000 A 
ATOM     27  C   UNL     1       4.712  -5.377  27.218  0.00  0.00    +0.000 A 
ATOM     28  C   UNL     1       4.917  -6.613  26.606  0.00  0.00    +0.000 A 
ATOM     29  C   UNL     1       4.813  -6.740  25.218  0.00  0.00    +0.004 A 
ENDBRANCH  23  24
ENDBRANCH  19  23
ENDBRANCH   1  19
TORSDOF 7
ENDMDL
MODEL 4
REMARK VINA RESULT:      -6.8      1.852      3.266
REMARK  Name = 
REMARK  7 active torsions:
REMARK  status: ('A' for Active; 'I' for Inactive)
REMARK    1  A    between atoms: C_2  and  N_3
REMARK    2  A    between atoms: C_2  and  C_4
REMARK    3  A    between atoms: C_2  and  C_11
REMARK    4  A    between atoms: C_4  and  C_5
REMARK    5  A    between atoms: C_17  and  C_19
REMARK    6  A    between atoms: N_21  and  C_22
REMARK    7  A    between atoms: C_22  and  C_23
REMARK                            x       y       z     vdW  Elec       q    Type
REMARK                         _______ _______ _______ _____ _____    ______ ____
ROOT
ATOM      1  C   UNL     1       5.743  -5.216  24.193  0.00  0.00    +0.233 C 
ATOM      2  N   UNL     1       6.964  -4.783  24.700  0.00  0.00    -0.289 N 
ATOM      3  C   UNL     1       7.288  -3.346  24.655  0.00  0.00    +0.162 C 
ATOM      4  C   UNL     1       8.038  -3.083  25.977  0.00  0.00    +0.033 C 
ATOM      5  C   UNL     1       7.982  -4.393  26.757  0.00  0.00    +0.021 C 
ATOM      6  C   UNL     1       7.795  -5.446  25.686  0.00  0.00    +0.108 C 
ATOM      7  O   UNL     1       5.180  -4.570  23.307  0.00  0.00    -0.274 OA
ENDROOT
BRANCH   3   8
ATOM      8  C   UNL     1       8.167  -2.850  23.489  0.00  0.00    +0.234 C 
ATOM      9  N   UNL     1       9.441  -2.452  23.807  0.00  0.00    -0.310 N 
ATOM     10  H   UNL     1       9.743  -2.509  24.772  0.00  0.00    +0.149 HD
ATOM     11  O   UNL     1       7.717  -2.773  22.346  0.00  0.00    -0.274 OA
BRANCH   9  12
ATOM     12  C   UNL     1      10.303  -1.847  22.817  0.00  0.00    +0.139 C 
BRANCH  12  13
ATOM     13  C   UNL     1      10.283  -0.346  22.869  0.00  0.00    -0.030 A 
ATOM     14  C   UNL     1      10.714   0.344  24.011  0.00  0.00    +0.005 A 
ATOM     15  C   UNL     1      10.617   1.735  24.081  0.00  0.00    +0.000 A 
ATOM     16  C   UNL     1      10.082   2.453  23.012  0.00  0.00    +0.000 A 
ATOM     17  C   UNL     1       9.654   1.781  21.869  0.00  0.00    +0.000 A 
ATOM     18  C   UNL     1       9.751   0.390  21.798  0.00  0.00    +0.005 A 
ENDBRANCH  12  13
ENDBRANCH   9  12
ENDBRANCH   3   8
BRANCH   1  19
ATOM     19  C   UNL     1       5.088  -6.459  24.871  0.00  0.00    +0.142 C 
BRANCH  19  20
ATOM     20  N   UNL     1       4.445  -7.337  23.873  0.00  0.00    -0.320 NA
ATOM     21  H   UNL     1       4.510  -6.910  22.950  0.00  0.00    +0.119 HD
ATOM     22  H   UNL     1       4.940  -8.227  23.833  0.00  0.00    +0.119 HD
ENDBRANCH  19  20
BRANCH  19  23
ATOM     23  C   UNL     1       4.048  -5.930  25.883  0.00  0.00    +0.063 C 
BRANCH  23  24
ATOM     24  C   UNL     1       4.526  -5.648  27.291  0.00  0.00    -0.045 A 
ATOM     25  C   UNL     1       5.137  -6.674  28.029  0.00  0.00    +0.004 A 
ATOM     26  C   UNL     1       5.470  -6.491  29.371  0.00  0.00    +0.000 A 
ATOM     27  C   UNL     1       5.198  -5.277  29.996  0.00  0.00    +0.000 A 
ATOM     28  C   UNL     1       4.602  -4.245  29.273  0.00  0.00    +0.000 A 
ATOM     29  C   UNL     1       4.263  -4.428  27.929  0.00  0.00    +0.004 A 
ENDBRANCH  23  24
ENDBRANCH  19  23
ENDBRANCH   1  19
TORSDOF 7
ENDMDL
MODEL 5
REMARK VINA RESULT:      -6.8      3.477      5.726
REMARK  Name = 
REMARK  7 active torsions:
REMARK  status: ('A' for Active; 'I' for Inactive)
REMARK    1  A    between atoms: C_2  and  N_3
REMARK    2  A    between atoms: C_2  and  C_4
REMARK    3  A    between atoms: C_2  and  C_11
REMARK    4  A    between atoms: C_4  and  C_5
REMARK    5  A    between atoms: C_17  and  C_19
REMARK    6  A    between atoms: N_21  and  C_22
REMARK    7  A    between atoms: C_22  and  C_23
REMARK                            x       y       z     vdW  Elec       q    Type
REMARK                         _______ _______ _______ _____ _____    ______ ____
ROOT
ATOM      1  C   UNL     1       8.581  -0.379  23.351  0.00  0.00    +0.233 C 
ATOM      2  N   UNL     1       8.669  -0.000  24.687  0.00  0.00    -0.289 N 
ATOM      3  C   UNL     1       7.525   0.689  25.310  0.00  0.00    +0.162 C 
ATOM      4  C   UNL     1       7.477   0.127  26.746  0.00  0.00    +0.033 C 
ATOM      5  C   UNL     1       8.546  -0.960  26.804  0.00  0.00    +0.021 C 
ATOM      6  C   UNL     1       9.520  -0.571  25.712  0.00  0.00    +0.108 C 
ATOM      7  O   UNL     1       7.851   0.245  22.579  0.00  0.00    -0.274 OA
ENDROOT
BRANCH   3   8
ATOM      8  C   UNL     1       7.580   2.229  25.391  0.00  0.00    +0.234 C 
ATOM      9  N   UNL     1       7.912   2.892  24.237  0.00  0.00    -0.310 N 
ATOM     10  H   UNL     1       8.094   2.353  23.400  0.00  0.00    +0.149 HD
ATOM     11  O   UNL     1       7.382   2.813  26.456  0.00  0.00    -0.274 OA
BRANCH   9  12
ATOM     12  C   UNL     1       8.120   4.323  24.232  0.00  0.00    +0.139 C 
BRANCH  12  13
ATOM     13  C   UNL     1       9.555   4.700  23.994  0.00  0.00    -0.030 A 
ATOM     14  C   UNL     1      10.464   3.779  23.455  0.00  0.00    +0.005 A 
ATOM     15  C   UNL     1      11.813   4.111  23.312  0.00  0.00    +0.000 A 
ATOM     16  C   UNL     1      12.270   5.366  23.712  0.00  0.00    +0.000 A 
ATOM     17  C   UNL     1      11.377   6.293  24.246  0.00  0.00    +0.000 A 
ATOM     18  C   UNL     1      10.028   5.962  24.389  0.00  0.00    +0.005 A 
ENDBRANCH  12  13
ENDBRANCH   9  12
ENDBRANCH   3   8
BRANCH   1  19
ATOM     19  C   UNL     1       9.343  -1.672  22.924  0.00  0.00    +0.142 C 
BRANCH  19  20
ATOM     20  N   UNL     1       9.947  -1.520  21.585  0.00  0.00    -0.320 NA
ATOM     21  H   UNL     1      10.000  -2.430  21.129  0.00  0.00    +0.119 HD
ATOM     22  H   UNL     1       9.353  -0.924  21.009  0.00  0.00    +0.119 HD
ENDBRANCH  19  20
BRANCH  19  23
ATOM     23  C   UNL     1       8.319  -2.827  22.933  0.00  0.00    +0.063 C 
BRANCH  23  24
ATOM     24  C   UNL     1       8.215  -3.658  24.193  0.00  0.00    -0.045 A 
ATOM     25  C   UNL     1       6.957  -3.863  24.782  0.00  0.00    +0.004 A 
ATOM     26  C   UNL     1       6.837  -4.509  26.012  0.00  0.00    +0.000 A 
ATOM     27  C   UNL     1       7.976  -4.964  26.672  0.00  0.00    +0.000 A 
ATOM     28  C   UNL     1       9.231  -4.779  26.094  0.00  0.00    +0.000 A 
ATOM     29  C   UNL     1       9.353  -4.127  24.864  0.00  0.00    +0.004 A 
ENDBRANCH  23  24
ENDBRANCH  19  23
ENDBRANCH   1  19
TORSDOF 7
ENDMDL
MODEL 6
REMARK VINA RESULT:      -6.8      2.283      8.857
REMARK  Name = 
REMARK  7 active torsions:
REMARK  status: ('A' for Active; 'I' for Inactive)
REMARK    1  A    between atoms: C_2  and  N_3
REMARK    2  A    between atoms: C_2  and  C_4
REMARK    3  A    between atoms: C_2  and  C_11
REMARK    4  A    between atoms: C_4  and  C_5
REMARK    5  A    between atoms: C_17  and  C_19
REMARK    6  A    between atoms: N_21  and  C_22
REMARK    7  A    between atoms: C_22  and  C_23
REMARK                            x       y       z     vdW  Elec       q    Type
REMARK                         _______ _______ _______ _____ _____    ______ ____
ROOT
ATOM      1  C   UNL     1       9.610  -0.217  23.037  0.00  0.00    +0.233 C 
ATOM      2  N   UNL     1       8.743  -0.850  23.923  0.00  0.00    -0.289 N 
ATOM      3  C   UNL     1       9.236  -1.994  24.711  0.00  0.00    +0.162 C 
ATOM      4  C   UNL     1       8.561  -1.828  26.088  0.00  0.00    +0.033 C 
ATOM      5  C   UNL     1       7.809  -0.502  26.026  0.00  0.00    +0.021 C 
ATOM      6  C   UNL     1       7.559  -0.294  24.548  0.00  0.00    +0.108 C 
ATOM      7  O   UNL     1      10.546  -0.844  22.537  0.00  0.00    -0.274 OA
ENDROOT
BRANCH   3   8
ATOM      8  C   UNL     1       8.925  -3.409  24.183  0.00  0.00    +0.234 C 
ATOM      9  N   UNL     1       7.734  -3.568  23.520  0.00  0.00    -0.310 N 
ATOM     10  H   UNL     1       7.130  -2.765  23.403  0.00  0.00    +0.149 HD
ATOM     11  O   UNL     1       9.693  -4.347  24.398  0.00  0.00    -0.274 OA
BRANCH   9  12
ATOM     12  C   UNL     1       7.283  -4.876  23.100  0.00  0.00    +0.139 C 
BRANCH  12  13
ATOM     13  C   UNL     1       6.289  -5.481  24.052  0.00  0.00    -0.030 A 
ATOM     14  C   UNL     1       6.465  -5.381  25.439  0.00  0.00    +0.005 A 
ATOM     15  C   UNL     1       5.581  -6.015  26.316  0.00  0.00    +0.000 A 
ATOM     16  C   UNL     1       4.515  -6.760  25.815  0.00  0.00    +0.000 A 
ATOM     17  C   UNL     1       4.326  -6.865  24.439  0.00  0.00    +0.000 A 
ATOM     18  C   UNL     1       5.209  -6.232  23.562  0.00  0.00    +0.005 A 
ENDBRANCH  12  13
ENDBRANCH   9  12
ENDBRANCH   3   8
BRANCH   1  19
ATOM     19  C   UNL     1       9.408   1.313  22.810  0.00  0.00    +0.142 C 
BRANCH  19  20
ATOM     20  N   UNL     1       9.496   1.658  21.377  0.00  0.00    -0.320 NA
ATOM     21  H   UNL     1      10.474   1.761  21.109  0.00  0.00    +0.119 HD
ATOM     22  H   UNL     1       9.104   0.899  20.819  0.00  0.00    +0.119 HD
ENDBRANCH  19  20
BRANCH  19  23
ATOM     23  C   UNL     1      10.506   2.041  23.615  0.00  0.00    +0.063 C 
BRANCH  23  24
ATOM     24  C   UNL     1      10.439   3.551  23.680  0.00  0.00    -0.045 A 
ATOM     25  C   UNL     1      11.601   4.302  23.443  0.00  0.00    +0.004 A 
ATOM     26  C   UNL     1      11.609   5.685  23.623  0.00  0.00    +0.000 A 
ATOM     27  C   UNL     1      10.453   6.339  24.041  0.00  0.00    +0.000 A 
ATOM     28  C   UNL     1       9.289   5.608  24.270  0.00  0.00    +0.000 A 
ATOM     29  C   UNL     1       9.280   4.221  24.095  0.00  0.00    +0.004 A 
ENDBRANCH  23  24
ENDBRANCH  19  23
ENDBRANCH   1  19
TORSDOF 7
ENDMDL
MODEL 7
REMARK VINA RESULT:      -6.7      2.005      2.992
REMARK  Name = 
REMARK  7 active torsions:
REMARK  status: ('A' for Active; 'I' for Inactive)
REMARK    1  A    between atoms: C_2  and  N_3
REMARK    2  A    between atoms: C_2  and  C_4
REMARK    3  A    between atoms: C_2  and  C_11
REMARK    4  A    between atoms: C_4  and  C_5
REMARK    5  A    between atoms: C_17  and  C_19
REMARK    6  A    between atoms: N_21  and  C_22
REMARK    7  A    between atoms: C_22  and  C_23
REMARK                            x       y       z     vdW  Elec       q    Type
REMARK                         _______ _______ _______ _____ _____    ______ ____
ROOT
ATOM      1  C   UNL     1       8.942  -3.506  24.966  0.00  0.00    +0.233 C 
ATOM      2  N   UNL     1       8.272  -2.348  24.584  0.00  0.00    -0.289 N 
ATOM      3  C   UNL     1       8.284  -1.951  23.165  0.00  0.00    +0.162 C 
ATOM      4  C   UNL     1       6.872  -1.382  22.916  0.00  0.00    +0.033 C 
ATOM      5  C   UNL     1       6.096  -1.611  24.209  0.00  0.00    +0.021 C 
ATOM      6  C   UNL     1       7.173  -1.697  25.269  0.00  0.00    +0.108 C 
ATOM      7  O   UNL     1       9.904  -3.907  24.309  0.00  0.00    -0.274 OA
ENDROOT
BRANCH   3   8
ATOM      8  C   UNL     1       9.319  -0.894  22.729  0.00  0.00    +0.234 C 
ATOM      9  N   UNL     1       9.882  -0.139  23.727  0.00  0.00    -0.310 N 
ATOM     10  H   UNL     1       9.605  -0.313  24.685  0.00  0.00    +0.149 HD
ATOM     11  O   UNL     1       9.578  -0.716  21.539  0.00  0.00    -0.274 OA
BRANCH   9  12
ATOM     12  C   UNL     1      10.763   0.965  23.421  0.00  0.00    +0.139 C 
BRANCH  12  13
ATOM     13  C   UNL     1      10.209   2.289  23.863  0.00  0.00    -0.030 A 
ATOM     14  C   UNL     1       9.012   2.366  24.588  0.00  0.00    +0.005 A 
ATOM     15  C   UNL     1       8.462   3.605  24.926  0.00  0.00    +0.000 A 
ATOM     16  C   UNL     1       9.100   4.781  24.537  0.00  0.00    +0.000 A 
ATOM     17  C   UNL     1      10.293   4.721  23.820  0.00  0.00    +0.000 A 
ATOM     18  C   UNL     1      10.843   3.483  23.482  0.00  0.00    +0.005 A 
ENDBRANCH  12  13
ENDBRANCH   9  12
ENDBRANCH   3   8
BRANCH   1  19
ATOM     19  C   UNL     1       8.352  -4.310  26.166  0.00  0.00    +0.142 C 
BRANCH  19  20
ATOM     20  N   UNL     1       9.416  -4.758  27.086  0.00  0.00    -0.320 NA
ATOM     21  H   UNL     1       8.999  -5.200  27.903  0.00  0.00    +0.119 HD
ATOM     22  H   UNL     1       9.995  -5.458  26.622  0.00  0.00    +0.119 HD
ENDBRANCH  19  20
BRANCH  19  23
ATOM     23  C   UNL     1       7.596  -5.520  25.575  0.00  0.00    +0.063 C 
BRANCH  23  24
ATOM     24  C   UNL     1       6.354  -5.235  24.758  0.00  0.00    -0.045 A 
ATOM     25  C   UNL     1       5.145  -4.958  25.416  0.00  0.00    +0.004 A 
ATOM     26  C   UNL     1       3.955  -4.821  24.703  0.00  0.00    +0.000 A 
ATOM     27  C   UNL     1       3.956  -4.959  23.317  0.00  0.00    +0.000 A 
ATOM     28  C   UNL     1       5.150  -5.222  22.648  0.00  0.00    +0.000 A 
ATOM     29  C   UNL     1       6.343  -5.365  23.362  0.00  0.00    +0.004 A 
ENDBRANCH  23  24
ENDBRANCH  19  23
ENDBRANCH   1  19
TORSDOF 7
ENDMDL
MODEL 8
REMARK VINA RESULT:      -6.7      3.004      8.192
REMARK  Name = 
REMARK  7 active torsions:
REMARK  status: ('A' for Active; 'I' for Inactive)
REMARK    1  A    between atoms: C_2  and  N_3
REMARK    2  A    between atoms: C_2  and  C_4
REMARK    3  A    between atoms: C_2  and  C_11
REMARK    4  A    between atoms: C_4  and  C_5
REMARK    5  A    between atoms: C_17  and  C_19
REMARK    6  A    between atoms: N_21  and  C_22
REMARK    7  A    between atoms: C_22  and  C_23
REMARK                            x       y       z     vdW  Elec       q    Type
REMARK                         _______ _______ _______ _____ _____    ______ ____
ROOT
ATOM      1  C   UNL     1       7.761   0.795  24.681  0.00  0.00    +0.233 C 
ATOM      2  N   UNL     1       8.802   0.608  23.777  0.00  0.00    -0.289 N 
ATOM      3  C   UNL     1       8.507   0.014  22.461  0.00  0.00    +0.162 C 
ATOM      4  C   UNL     1       9.429   0.772  21.485  0.00  0.00    +0.033 C 
ATOM      5  C   UNL     1      10.113   1.855  22.314  0.00  0.00    +0.021 C 
ATOM      6  C   UNL     1      10.066   1.315  23.727  0.00  0.00    +0.108 C 
ATOM      7  O   UNL     1       6.766   0.069  24.636  0.00  0.00    -0.274 OA
ENDROOT
BRANCH   3   8
ATOM      8  C   UNL     1       8.755  -1.499  22.290  0.00  0.00    +0.234 C 
ATOM      9  N   UNL     1       7.741  -2.335  22.685  0.00  0.00    -0.310 N 
ATOM     10  H   UNL     1       6.890  -1.929  23.054  0.00  0.00    +0.149 HD
ATOM     11  O   UNL     1       9.831  -1.919  21.867  0.00  0.00    -0.274 OA
BRANCH   9  12
ATOM     12  C   UNL     1       7.916  -3.770  22.692  0.00  0.00    +0.139 C 
BRANCH  12  13
ATOM     13  C   UNL     1       7.931  -4.347  24.079  0.00  0.00    -0.030 A 
ATOM     14  C   UNL     1       6.756  -4.829  24.673  0.00  0.00    +0.005 A 
ATOM     15  C   UNL     1       6.763  -5.288  25.992  0.00  0.00    +0.000 A 
ATOM     16  C   UNL     1       7.943  -5.266  26.734  0.00  0.00    +0.000 A 
ATOM     17  C   UNL     1       9.119  -4.794  26.155  0.00  0.00    +0.000 A 
ATOM     18  C   UNL     1       9.113  -4.334  24.836  0.00  0.00    +0.005 A 
ENDBRANCH  12  13
ENDBRANCH   9  12
ENDBRANCH   3   8
BRANCH   1  19
ATOM     19  C   UNL     1       7.867   2.014  25.649  0.00  0.00    +0.142 C 
BRANCH  19  20
ATOM     20  N   UNL     1       7.389   1.667  27.002  0.00  0.00    -0.320 NA
ATOM     21  H   UNL     1       7.221   2.519  27.535  0.00  0.00    +0.119 HD
ATOM     22  H   UNL     1       6.501   1.169  26.933  0.00  0.00    +0.119 HD
ENDBRANCH  19  20
BRANCH  19  23
ATOM     23  C   UNL     1       7.014   3.150  25.044  0.00  0.00    +0.063 C 
BRANCH  23  24
ATOM     24  C   UNL     1       7.736   4.219  24.252  0.00  0.00    -0.045 A 
ATOM     25  C   UNL     1       8.981   4.686  24.702  0.00  0.00    +0.004 A 
ATOM     26  C   UNL     1       9.614   5.759  24.075  0.00  0.00    +0.000 A 
ATOM     27  C   UNL     1       9.011   6.381  22.985  0.00  0.00    +0.000 A 
ATOM     28  C   UNL     1       7.780   5.920  22.519  0.00  0.00    +0.000 A 
ATOM     29  C   UNL     1       7.143   4.848  23.149  0.00  0.00    +0.004 A 
ENDBRANCH  23  24
ENDBRANCH  19  23
ENDBRANCH   1  19
TORSDOF 7
ENDMDL
MODEL 9
REMARK VINA RESULT:      -6.5      1.831      2.430
REMARK  Name = 
REMARK  7 active torsions:
REMARK  status: ('A' for Active; 'I' for Inactive)
REMARK    1  A    between atoms: C_2  and  N_3
REMARK    2  A    between atoms: C_2  and  C_4
REMARK    3  A    between atoms: C_2  and  C_11
REMARK    4  A    between atoms: C_4  and  C_5
REMARK    5  A    between atoms: C_17  and  C_19
REMARK    6  A    between atoms: N_21  and  C_22
REMARK    7  A    between atoms: C_22  and  C_23
REMARK                            x       y       z     vdW  Elec       q    Type
REMARK                         _______ _______ _______ _____ _____    ______ ____
ROOT
ATOM      1  C   UNL     1       5.081  -3.546  25.440  0.00  0.00    +0.233 C 
ATOM      2  N   UNL     1       5.647  -3.962  24.239  0.00  0.00    -0.289 N 
ATOM      3  C   UNL     1       6.672  -5.021  24.262  0.00  0.00    +0.162 C 
ATOM      4  C   UNL     1       6.382  -5.859  22.999  0.00  0.00    +0.033 C 
ATOM      5  C   UNL     1       5.107  -5.277  22.396  0.00  0.00    +0.021 C 
ATOM      6  C   UNL     1       5.078  -3.854  22.910  0.00  0.00    +0.108 C 
ATOM      7  O   UNL     1       5.717  -3.650  26.491  0.00  0.00    -0.274 OA
ENDROOT
BRANCH   3   8
ATOM      8  C   UNL     1       8.150  -4.583  24.228  0.00  0.00    +0.234 C 
ATOM      9  N   UNL     1       8.389  -3.235  24.133  0.00  0.00    -0.310 N 
ATOM     10  H   UNL     1       7.600  -2.602  24.100  0.00  0.00    +0.149 HD
ATOM     11  O   UNL     1       9.057  -5.416  24.234  0.00  0.00    -0.274 OA
BRANCH   9  12
ATOM     12  C   UNL     1       9.730  -2.724  23.962  0.00  0.00    +0.139 C 
BRANCH  12  13
ATOM     13  C   UNL     1       9.756  -1.363  23.328  0.00  0.00    -0.030 A 
ATOM     14  C   UNL     1       9.362  -1.179  21.995  0.00  0.00    +0.005 A 
ATOM     15  C   UNL     1       9.467   0.075  21.388  0.00  0.00    +0.000 A 
ATOM     16  C   UNL     1       9.972   1.158  22.106  0.00  0.00    +0.000 A 
ATOM     17  C   UNL     1      10.363   0.991  23.433  0.00  0.00    +0.000 A 
ATOM     18  C   UNL     1      10.259  -0.262  24.040  0.00  0.00    +0.005 A 
ENDBRANCH  12  13
ENDBRANCH   9  12
ENDBRANCH   3   8
BRANCH   1  19
ATOM     19  C   UNL     1       3.597  -3.067  25.401  0.00  0.00    +0.142 C 
BRANCH  19  20
ATOM     20  N   UNL     1       3.401  -1.861  26.231  0.00  0.00    -0.320 NA
ATOM     21  H   UNL     1       3.557  -2.092  27.212  0.00  0.00    +0.119 HD
ATOM     22  H   UNL     1       4.087  -1.153  25.971  0.00  0.00    +0.119 HD
ENDBRANCH  19  20
BRANCH  19  23
ATOM     23  C   UNL     1       2.729  -4.234  25.920  0.00  0.00    +0.063 C 
BRANCH  23  24
ATOM     24  C   UNL     1       2.335  -5.306  24.928  0.00  0.00    -0.045 A 
ATOM     25  C   UNL     1       2.838  -6.608  25.085  0.00  0.00    +0.004 A 
ATOM     26  C   UNL     1       2.605  -7.588  24.121  0.00  0.00    +0.000 A 
ATOM     27  C   UNL     1       1.863  -7.281  22.983  0.00  0.00    +0.000 A 
ATOM     28  C   UNL     1       1.348  -5.996  22.818  0.00  0.00    +0.000 A 
ATOM     29  C   UNL     1       1.584  -5.012  23.781  0.00  0.00    +0.004 A 
ENDBRANCH  23  24
ENDBRANCH  19  23
ENDBRANCH   1  19
TORSDOF 7
ENDMDL
