MODEL 1
REMARK VINA RESULT:      -8.7      0.000      0.000
REMARK  Name = 
REMARK  10 active torsions:
REMARK  status: ('A' for Active; 'I' for Inactive)
REMARK    1  A    between atoms: C_1  and  C_2
REMARK    2  A    between atoms: N_4  and  C_26
REMARK    3  A    between atoms: N_8  and  N_9
REMARK    4  A    between atoms: N_9  and  C_10
REMARK    5  A    between atoms: C_11  and  O_12
REMARK    6  A    between atoms: C_13  and  C_17
REMARK    7  A    between atoms: C_21  and  C_23
REMARK    8  A    between atoms: C_23  and  O_24
REMARK    9  A    between atoms: C_29  and  C_30
REMARK   10  A    between atoms: C_31  and  C_32
REMARK                            x       y       z     vdW  Elec       q    Type
REMARK                         _______ _______ _______ _____ _____    ______ ____
ROOT
ATOM      1  N   UNL     1       6.851   1.523  23.399  0.00  0.00    -0.233 N 
ATOM      2  H   UNL     1       5.889   1.198  23.561  0.00  0.00    +0.175 HD
ENDROOT
BRANCH   1   6
ATOM      3  C   UNL     1       9.780  -1.316  21.830  0.00  0.00    +0.070 C 
ATOM      4  C   UNL     1       8.548  -1.635  22.592  0.00  0.00    +0.089 C 
ATOM      5  C   UNL     1       7.641  -0.573  23.098  0.00  0.00    +0.168 C 
ATOM      6  N   UNL     1       7.803   0.694  22.883  0.00  0.00    -0.175 NA
ATOM      7  C   UNL     1       6.560  -1.280  23.833  0.00  0.00    +0.292 C 
ATOM      8  O   UNL     1       5.656  -0.698  24.398  0.00  0.00    -0.266 OA
ATOM      9  N   UNL     1       6.902  -2.612  23.644  0.00  0.00    -0.155 N 
ATOM     10  N   UNL     1       8.088  -2.810  22.910  0.00  0.00    -0.175 NA
BRANCH   9  11
ATOM     11  C   UNL     1       6.160  -3.737  24.075  0.00  0.00    +0.061 A 
ATOM     12  C   UNL     1       4.908  -4.034  23.522  0.00  0.00    +0.029 A 
ATOM     13  C   UNL     1       4.150  -5.141  23.960  0.00  0.00    -0.046 A 
ATOM     14  C   UNL     1       2.810  -5.372  23.316  0.00  0.00    +0.044 C 
ATOM     15  C   UNL     1       4.660  -5.967  24.978  0.00  0.00    -0.047 A 
ATOM     16  C   UNL     1       3.917  -7.163  25.498  0.00  0.00    +0.044 C 
ATOM     17  C   UNL     1       5.915  -5.672  25.522  0.00  0.00    +0.005 A 
ATOM     18  C   UNL     1       6.655  -4.577  25.077  0.00  0.00    +0.026 A 
ENDBRANCH   9  11
ENDBRANCH   1   6
BRANCH   1  19
ATOM     19  C   UNL     1       7.030   2.924  23.365  0.00  0.00    +0.090 A 
ATOM     20  C   UNL     1       6.068   3.744  22.770  0.00  0.00    +0.028 A 
ATOM     21  C   UNL     1       6.245   5.130  22.730  0.00  0.00    +0.003 A 
ATOM     22  C   UNL     1       7.409   5.712  23.245  0.00  0.00    +0.012 A 
ATOM     23  C   UNL     1       8.418   4.924  23.818  0.00  0.00    +0.025 A 
ATOM     24  C   UNL     1       8.168   3.542  23.918  0.00  0.00    +0.147 A 
BRANCH  23  25
ATOM     25  C   UNL     1       9.733   5.497  24.178  0.00  0.00    -0.014 A 
ATOM     26  C   UNL     1      10.830   5.275  23.323  0.00  0.00    +0.023 A 
ATOM     27  C   UNL     1      12.100   5.774  23.605  0.00  0.00    +0.059 A 
ATOM     28  C   UNL     1      12.278   6.604  24.714  0.00  0.00    +0.015 A 
ATOM     29  C   UNL     1      11.200   6.867  25.561  0.00  0.00    +0.001 A 
ATOM     30  C   UNL     1       9.943   6.303  25.306  0.00  0.00    +0.008 A 
BRANCH  27  31
ATOM     31  C   UNL     1      13.244   5.467  22.725  0.00  0.00    +0.337 C 
ATOM     32  O   UNL     1      13.251   5.708  21.530  0.00  0.00    -0.245 OA
BRANCH  31  33
ATOM     33  O   UNL     1      14.305   4.932  23.378  0.00  0.00    -0.477 OA
ATOM     34  H   UNL     1      15.173   5.151  22.981  0.00  0.00    +0.295 HD
ENDBRANCH  31  33
ENDBRANCH  27  31
ENDBRANCH  23  25
BRANCH  24  35
ATOM     35  O   UNL     1       9.076   2.741  24.583  0.00  0.00    -0.504 OA
ATOM     36  H   UNL     1       8.857   1.850  24.232  0.00  0.00    +0.292 HD
ENDBRANCH  24  35
ENDBRANCH   1  19
TORSDOF 7
ENDMDL
MODEL 2
REMARK VINA RESULT:      -8.3      2.697      3.983
REMARK  Name = 
REMARK  10 active torsions:
REMARK  status: ('A' for Active; 'I' for Inactive)
REMARK    1  A    between atoms: C_1  and  C_2
REMARK    2  A    between atoms: N_4  and  C_26
REMARK    3  A    between atoms: N_8  and  N_9
REMARK    4  A    between atoms: N_9  and  C_10
REMARK    5  A    between atoms: C_11  and  O_12
REMARK    6  A    between atoms: C_13  and  C_17
REMARK    7  A    between atoms: C_21  and  C_23
REMARK    8  A    between atoms: C_23  and  O_24
REMARK    9  A    between atoms: C_29  and  C_30
REMARK   10  A    between atoms: C_31  and  C_32
REMARK                            x       y       z     vdW  Elec       q    Type
REMARK                         _______ _______ _______ _____ _____    ______ ____
ROOT
ATOM      1  N   UNL     1       9.831  -1.959  24.027  0.00  0.00    -0.233 N 
ATOM      2  H   UNL     1      10.197  -1.791  24.974  0.00  0.00    +0.175 HD
ENDROOT
BRANCH   1   6
ATOM      3  C   UNL     1       7.907  -5.775  23.114  0.00  0.00    +0.070 C 
ATOM      4  C   UNL     1       7.627  -4.890  24.272  0.00  0.00    +0.089 C 
ATOM      5  C   UNL     1       8.373  -3.624  24.488  0.00  0.00    +0.168 C 
ATOM      6  N   UNL     1       9.273  -3.156  23.683  0.00  0.00    -0.175 NA
ATOM      7  C   UNL     1       7.840  -3.052  25.753  0.00  0.00    +0.292 C 
ATOM      8  O   UNL     1       8.256  -2.018  26.235  0.00  0.00    -0.266 OA
ATOM      9  N   UNL     1       6.856  -3.968  26.095  0.00  0.00    -0.155 N 
ATOM     10  N   UNL     1       6.743  -5.059  25.211  0.00  0.00    -0.175 NA
BRANCH   9  11
ATOM     11  C   UNL     1       5.967  -3.873  27.192  0.00  0.00    +0.061 A 
ATOM     12  C   UNL     1       5.941  -4.857  28.189  0.00  0.00    +0.029 A 
ATOM     13  C   UNL     1       5.044  -4.783  29.276  0.00  0.00    -0.046 A 
ATOM     14  C   UNL     1       5.080  -5.892  30.291  0.00  0.00    +0.044 C 
ATOM     15  C   UNL     1       4.151  -3.699  29.361  0.00  0.00    -0.047 A 
ATOM     16  C   UNL     1       3.167  -3.548  30.485  0.00  0.00    +0.044 C 
ATOM     17  C   UNL     1       4.186  -2.715  28.368  0.00  0.00    +0.005 A 
ATOM     18  C   UNL     1       5.080  -2.798  27.302  0.00  0.00    +0.026 A 
ENDBRANCH   9  11
ENDBRANCH   1   6
BRANCH   1  19
ATOM     19  C   UNL     1       9.584  -0.807  23.248  0.00  0.00    +0.090 A 
ATOM     20  C   UNL     1       9.336  -0.922  21.878  0.00  0.00    +0.028 A 
ATOM     21  C   UNL     1       9.097   0.217  21.104  0.00  0.00    +0.003 A 
ATOM     22  C   UNL     1       9.147   1.491  21.681  0.00  0.00    +0.012 A 
ATOM     23  C   UNL     1       9.431   1.657  23.045  0.00  0.00    +0.025 A 
ATOM     24  C   UNL     1       9.581   0.485  23.810  0.00  0.00    +0.147 A 
BRANCH  23  25
ATOM     25  C   UNL     1       9.689   2.993  23.623  0.00  0.00    -0.014 A 
ATOM     26  C   UNL     1      10.917   3.626  23.354  0.00  0.00    +0.023 A 
ATOM     27  C   UNL     1      11.234   4.879  23.875  0.00  0.00    +0.059 A 
ATOM     28  C   UNL     1      10.271   5.579  24.604  0.00  0.00    +0.015 A 
ATOM     29  C   UNL     1       9.031   4.988  24.858  0.00  0.00    +0.001 A 
ATOM     30  C   UNL     1       8.750   3.699  24.389  0.00  0.00    +0.008 A 
BRANCH  27  31
ATOM     31  C   UNL     1      12.557   5.486  23.631  0.00  0.00    +0.337 C 
ATOM     32  O   UNL     1      13.242   5.224  22.657  0.00  0.00    -0.245 OA
BRANCH  31  33
ATOM     33  O   UNL     1      12.919   6.398  24.567  0.00  0.00    -0.477 OA
ATOM     34  H   UNL     1      13.594   7.038  24.264  0.00  0.00    +0.295 HD
ENDBRANCH  31  33
ENDBRANCH  27  31
ENDBRANCH  23  25
BRANCH  24  35
ATOM     35  O   UNL     1       9.740   0.591  25.179  0.00  0.00    -0.504 OA
ATOM     36  H   UNL     1       9.317  -0.237  25.498  0.00  0.00    +0.292 HD
ENDBRANCH  24  35
ENDBRANCH   1  19
TORSDOF 7
ENDMDL
MODEL 3
REMARK VINA RESULT:      -8.3      1.794      3.084
REMARK  Name = 
REMARK  10 active torsions:
REMARK  status: ('A' for Active; 'I' for Inactive)
REMARK    1  A    between atoms: C_1  and  C_2
REMARK    2  A    between atoms: N_4  and  C_26
REMARK    3  A    between atoms: N_8  and  N_9
REMARK    4  A    between atoms: N_9  and  C_10
REMARK    5  A    between atoms: C_11  and  O_12
REMARK    6  A    between atoms: C_13  and  C_17
REMARK    7  A    between atoms: C_21  and  C_23
REMARK    8  A    between atoms: C_23  and  O_24
REMARK    9  A    between atoms: C_29  and  C_30
REMARK   10  A    between atoms: C_31  and  C_32
REMARK                            x       y       z     vdW  Elec       q    Type
REMARK                         _______ _______ _______ _____ _____    ______ ____
ROOT
ATOM      1  N   UNL     1       8.332  -0.940  25.077  0.00  0.00    -0.233 N 
ATOM      2  H   UNL     1       7.434  -0.671  25.500  0.00  0.00    +0.175 HD
ENDROOT
BRANCH   1   6
ATOM      3  C   UNL     1       9.807  -5.018  25.625  0.00  0.00    +0.070 C 
ATOM      4  C   UNL     1       8.422  -4.609  25.284  0.00  0.00    +0.089 C 
ATOM      5  C   UNL     1       8.037  -3.181  25.152  0.00  0.00    +0.168 C 
ATOM      6  N   UNL     1       8.858  -2.186  25.263  0.00  0.00    -0.175 NA
ATOM      7  C   UNL     1       6.581  -3.181  24.848  0.00  0.00    +0.292 C 
ATOM      8  O   UNL     1       5.938  -2.161  24.702  0.00  0.00    -0.266 OA
ATOM      9  N   UNL     1       6.297  -4.538  24.786  0.00  0.00    -0.155 N 
ATOM     10  N   UNL     1       7.397  -5.376  25.053  0.00  0.00    -0.175 NA
BRANCH   9  11
ATOM     11  C   UNL     1       5.052  -5.118  24.448  0.00  0.00    +0.061 A 
ATOM     12  C   UNL     1       4.549  -6.216  25.157  0.00  0.00    +0.029 A 
ATOM     13  C   UNL     1       3.319  -6.817  24.815  0.00  0.00    -0.046 A 
ATOM     14  C   UNL     1       2.866  -7.999  25.628  0.00  0.00    +0.044 C 
ATOM     15  C   UNL     1       2.579  -6.306  23.733  0.00  0.00    -0.047 A 
ATOM     16  C   UNL     1       1.263  -6.888  23.307  0.00  0.00    +0.044 C 
ATOM     17  C   UNL     1       3.081  -5.205  23.032  0.00  0.00    +0.005 A 
ATOM     18  C   UNL     1       4.296  -4.618  23.383  0.00  0.00    +0.026 A 
ENDBRANCH   9  11
ENDBRANCH   1   6
BRANCH   1  19
ATOM     19  C   UNL     1       8.782  -0.127  24.014  0.00  0.00    +0.090 A 
ATOM     20  C   UNL     1       8.957  -0.667  22.738  0.00  0.00    +0.028 A 
ATOM     21  C   UNL     1       9.408   0.135  21.686  0.00  0.00    +0.003 A 
ATOM     22  C   UNL     1       9.733   1.479  21.906  0.00  0.00    +0.012 A 
ATOM     23  C   UNL     1       9.608   2.053  23.178  0.00  0.00    +0.025 A 
ATOM     24  C   UNL     1       9.071   1.240  24.195  0.00  0.00    +0.147 A 
BRANCH  23  25
ATOM     25  C   UNL     1      10.137   3.403  23.472  0.00  0.00    -0.014 A 
ATOM     26  C   UNL     1      11.384   3.777  22.937  0.00  0.00    +0.023 A 
ATOM     27  C   UNL     1      11.949   5.027  23.181  0.00  0.00    +0.059 A 
ATOM     28  C   UNL     1      11.218   5.981  23.893  0.00  0.00    +0.015 A 
ATOM     29  C   UNL     1       9.963   5.647  24.407  0.00  0.00    +0.001 A 
ATOM     30  C   UNL     1       9.436   4.363  24.215  0.00  0.00    +0.008 A 
BRANCH  27  31
ATOM     31  C   UNL     1      13.290   5.365  22.663  0.00  0.00    +0.337 C 
ATOM     32  O   UNL     1      13.469   6.033  21.660  0.00  0.00    -0.245 OA
BRANCH  31  33
ATOM     33  O   UNL     1      14.304   4.900  23.434  0.00  0.00    -0.477 OA
ATOM     34  H   UNL     1      14.085   4.095  23.944  0.00  0.00    +0.295 HD
ENDBRANCH  31  33
ENDBRANCH  27  31
ENDBRANCH  23  25
BRANCH  24  35
ATOM     35  O   UNL     1       8.814   1.794  25.434  0.00  0.00    -0.504 OA
ATOM     36  H   UNL     1       7.846   1.648  25.526  0.00  0.00    +0.292 HD
ENDBRANCH  24  35
ENDBRANCH   1  19
TORSDOF 7
ENDMDL
MODEL 4
REMARK VINA RESULT:      -8.2      1.969      3.286
REMARK  Name = 
REMARK  10 active torsions:
REMARK  status: ('A' for Active; 'I' for Inactive)
REMARK    1  A    between atoms: C_1  and  C_2
REMARK    2  A    between atoms: N_4  and  C_26
REMARK    3  A    between atoms: N_8  and  N_9
REMARK    4  A    between atoms: N_9  and  C_10
REMARK    5  A    between atoms: C_11  and  O_12
REMARK    6  A    between atoms: C_13  and  C_17
REMARK    7  A    between atoms: C_21  and  C_23
REMARK    8  A    between atoms: C_23  and  O_24
REMARK    9  A    between atoms: C_29  and  C_30
REMARK   10  A    between atoms: C_31  and  C_32
REMARK                            x       y       z     vdW  Elec       q    Type
REMARK                         _______ _______ _______ _____ _____    ______ ____
ROOT
ATOM      1  N   UNL     1       8.795  -1.420  24.886  0.00  0.00    -0.233 N 
ATOM      2  H   UNL     1       9.507  -2.141  25.061  0.00  0.00    +0.175 HD
ENDROOT
BRANCH   1   6
ATOM      3  C   UNL     1       5.621  -0.657  27.792  0.00  0.00    +0.070 C 
ATOM      4  C   UNL     1       5.669  -1.750  26.791  0.00  0.00    +0.089 C 
ATOM      5  C   UNL     1       6.796  -1.888  25.834  0.00  0.00    +0.168 C 
ATOM      6  N   UNL     1       7.842  -1.123  25.817  0.00  0.00    -0.175 NA
ATOM      7  C   UNL     1       6.464  -3.061  24.983  0.00  0.00    +0.292 C 
ATOM      8  O   UNL     1       7.174  -3.437  24.072  0.00  0.00    -0.266 OA
ATOM      9  N   UNL     1       5.268  -3.493  25.537  0.00  0.00    -0.155 N 
ATOM     10  N   UNL     1       4.802  -2.703  26.607  0.00  0.00    -0.175 NA
BRANCH   9  11
ATOM     11  C   UNL     1       4.534  -4.641  25.156  0.00  0.00    +0.061 A 
ATOM     12  C   UNL     1       3.432  -4.542  24.296  0.00  0.00    +0.029 A 
ATOM     13  C   UNL     1       2.680  -5.677  23.926  0.00  0.00    -0.046 A 
ATOM     14  C   UNL     1       1.507  -5.472  23.007  0.00  0.00    +0.044 C 
ATOM     15  C   UNL     1       3.039  -6.939  24.434  0.00  0.00    -0.047 A 
ATOM     16  C   UNL     1       2.290  -8.194  24.089  0.00  0.00    +0.044 C 
ATOM     17  C   UNL     1       4.144  -7.034  25.286  0.00  0.00    +0.005 A 
ATOM     18  C   UNL     1       4.881  -5.905  25.641  0.00  0.00    +0.026 A 
ENDBRANCH   9  11
ENDBRANCH   1   6
BRANCH   1  19
ATOM     19  C   UNL     1       9.080  -0.512  23.842  0.00  0.00    +0.090 A 
ATOM     20  C   UNL     1       9.166  -0.960  22.522  0.00  0.00    +0.028 A 
ATOM     21  C   UNL     1       9.453  -0.064  21.488  0.00  0.00    +0.003 A 
ATOM     22  C   UNL     1       9.703   1.284  21.765  0.00  0.00    +0.012 A 
ATOM     23  C   UNL     1       9.666   1.771  23.080  0.00  0.00    +0.025 A 
ATOM     24  C   UNL     1       9.289   0.860  24.085  0.00  0.00    +0.147 A 
BRANCH  23  25
ATOM     25  C   UNL     1      10.125   3.136  23.411  0.00  0.00    -0.014 A 
ATOM     26  C   UNL     1      11.356   3.585  22.896  0.00  0.00    +0.023 A 
ATOM     27  C   UNL     1      11.857   4.855  23.177  0.00  0.00    +0.059 A 
ATOM     28  C   UNL     1      11.075   5.753  23.906  0.00  0.00    +0.015 A 
ATOM     29  C   UNL     1       9.835   5.345  24.402  0.00  0.00    +0.001 A 
ATOM     30  C   UNL     1       9.373   4.042  24.173  0.00  0.00    +0.008 A 
BRANCH  27  31
ATOM     31  C   UNL     1      13.183   5.270  22.678  0.00  0.00    +0.337 C 
ATOM     32  O   UNL     1      13.338   5.926  21.663  0.00  0.00    -0.245 OA
BRANCH  31  33
ATOM     33  O   UNL     1      14.209   4.895  23.481  0.00  0.00    -0.477 OA
ATOM     34  H   UNL     1      14.605   5.627  23.996  0.00  0.00    +0.295 HD
ENDBRANCH  31  33
ENDBRANCH  27  31
ENDBRANCH  23  25
BRANCH  24  35
ATOM     35  O   UNL     1       9.118   1.318  25.377  0.00  0.00    -0.504 OA
ATOM     36  H   UNL     1       8.149   1.482  25.409  0.00  0.00    +0.292 HD
ENDBRANCH  24  35
ENDBRANCH   1  19
TORSDOF 7
ENDMDL
MODEL 5
REMARK VINA RESULT:      -7.8      2.222      2.997
REMARK  Name = 
REMARK  10 active torsions:
REMARK  status: ('A' for Active; 'I' for Inactive)
REMARK    1  A    between atoms: C_1  and  C_2
REMARK    2  A    between atoms: N_4  and  C_26
REMARK    3  A    between atoms: N_8  and  N_9
REMARK    4  A    between atoms: N_9  and  C_10
REMARK    5  A    between atoms: C_11  and  O_12
REMARK    6  A    between atoms: C_13  and  C_17
REMARK    7  A    between atoms: C_21  and  C_23
REMARK    8  A    between atoms: C_23  and  O_24
REMARK    9  A    between atoms: C_29  and  C_30
REMARK   10  A    between atoms: C_31  and  C_32
REMARK                            x       y       z     vdW  Elec       q    Type
REMARK                         _______ _______ _______ _____ _____    ______ ____
ROOT
ATOM      1  N   UNL     1       5.942   3.055  23.308  0.00  0.00    -0.233 N 
ATOM      2  H   UNL     1       6.315   2.383  22.625  0.00  0.00    +0.175 HD
ENDROOT
BRANCH   1   6
ATOM      3  C   UNL     1       3.888   1.517  26.846  0.00  0.00    +0.070 C 
ATOM      4  C   UNL     1       4.902   0.810  26.027  0.00  0.00    +0.089 C 
ATOM      5  C   UNL     1       5.511   1.433  24.824  0.00  0.00    +0.168 C 
ATOM      6  N   UNL     1       5.264   2.638  24.417  0.00  0.00    -0.175 NA
ATOM      7  C   UNL     1       6.435   0.413  24.263  0.00  0.00    +0.292 C 
ATOM      8  O   UNL     1       7.082   0.594  23.252  0.00  0.00    -0.266 OA
ATOM      9  N   UNL     1       6.315  -0.623  25.179  0.00  0.00    -0.155 N 
ATOM     10  N   UNL     1       5.397  -0.378  26.219  0.00  0.00    -0.175 NA
BRANCH   9  11
ATOM     11  C   UNL     1       7.043  -1.836  25.172  0.00  0.00    +0.061 A 
ATOM     12  C   UNL     1       6.929  -2.743  24.111  0.00  0.00    +0.029 A 
ATOM     13  C   UNL     1       7.634  -3.965  24.104  0.00  0.00    -0.046 A 
ATOM     14  C   UNL     1       7.439  -4.880  22.926  0.00  0.00    +0.044 C 
ATOM     15  C   UNL     1       8.469  -4.286  25.190  0.00  0.00    -0.047 A 
ATOM     16  C   UNL     1       9.251  -5.566  25.258  0.00  0.00    +0.044 C 
ATOM     17  C   UNL     1       8.586  -3.375  26.244  0.00  0.00    +0.005 A 
ATOM     18  C   UNL     1       7.887  -2.169  26.236  0.00  0.00    +0.026 A 
ENDBRANCH   9  11
ENDBRANCH   1   6
BRANCH   1  19
ATOM     19  C   UNL     1       6.485   4.357  23.252  0.00  0.00    +0.090 A 
ATOM     20  C   UNL     1       5.808   5.375  22.576  0.00  0.00    +0.028 A 
ATOM     21  C   UNL     1       6.346   6.664  22.515  0.00  0.00    +0.003 A 
ATOM     22  C   UNL     1       7.592   6.942  23.090  0.00  0.00    +0.012 A 
ATOM     23  C   UNL     1       8.324   5.942  23.746  0.00  0.00    +0.025 A 
ATOM     24  C   UNL     1       7.714   4.678  23.863  0.00  0.00    +0.147 A 
BRANCH  23  25
ATOM     25  C   UNL     1       9.721   6.165  24.176  0.00  0.00    -0.014 A 
ATOM     26  C   UNL     1      10.768   5.781  23.317  0.00  0.00    +0.023 A 
ATOM     27  C   UNL     1      12.108   5.950  23.662  0.00  0.00    +0.059 A 
ATOM     28  C   UNL     1      12.430   6.610  24.849  0.00  0.00    +0.015 A 
ATOM     29  C   UNL     1      11.410   7.032  25.705  0.00  0.00    +0.001 A 
ATOM     30  C   UNL     1      10.068   6.793  25.381  0.00  0.00    +0.008 A 
BRANCH  27  31
ATOM     31  C   UNL     1      13.183   5.474  22.770  0.00  0.00    +0.337 C 
ATOM     32  O   UNL     1      13.161   5.624  21.560  0.00  0.00    -0.245 OA
BRANCH  31  33
ATOM     33  O   UNL     1      14.220   4.897  23.425  0.00  0.00    -0.477 OA
ATOM     34  H   UNL     1      14.585   5.437  24.155  0.00  0.00    +0.295 HD
ENDBRANCH  31  33
ENDBRANCH  27  31
ENDBRANCH  23  25
BRANCH  24  35
ATOM     35  O   UNL     1       8.340   3.696  24.605  0.00  0.00    -0.504 OA
ATOM     36  H   UNL     1       8.284   4.062  25.516  0.00  0.00    +0.292 HD
ENDBRANCH  24  35
ENDBRANCH   1  19
TORSDOF 7
ENDMDL
MODEL 6
REMARK VINA RESULT:      -7.6      2.690      4.635
REMARK  Name = 
REMARK  10 active torsions:
REMARK  status: ('A' for Active; 'I' for Inactive)
REMARK    1  A    between atoms: C_1  and  C_2
REMARK    2  A    between atoms: N_4  and  C_26
REMARK    3  A    between atoms: N_8  and  N_9
REMARK    4  A    between atoms: N_9  and  C_10
REMARK    5  A    between atoms: C_11  and  O_12
REMARK    6  A    between atoms: C_13  and  C_17
REMARK    7  A    between atoms: C_21  and  C_23
REMARK    8  A    between atoms: C_23  and  O_24
REMARK    9  A    between atoms: C_29  and  C_30
REMARK   10  A    between atoms: C_31  and  C_32
REMARK                            x       y       z     vdW  Elec       q    Type
REMARK                         _______ _______ _______ _____ _____    ______ ____
ROOT
ATOM      1  N   UNL     1       6.477  -1.782  22.798  0.00  0.00    -0.233 N 
ATOM      2  H   UNL     1       5.628  -1.347  23.181  0.00  0.00    +0.175 HD
ENDROOT
BRANCH   1   6
ATOM      3  C   UNL     1       6.317  -5.884  21.296  0.00  0.00    +0.070 C 
ATOM      4  C   UNL     1       5.961  -5.419  22.660  0.00  0.00    +0.089 C 
ATOM      5  C   UNL     1       6.085  -3.994  23.059  0.00  0.00    +0.168 C 
ATOM      6  N   UNL     1       6.452  -3.038  22.265  0.00  0.00    -0.175 NA
ATOM      7  C   UNL     1       5.678  -3.937  24.488  0.00  0.00    +0.292 C 
ATOM      8  O   UNL     1       5.688  -2.910  25.136  0.00  0.00    -0.266 OA
ATOM      9  N   UNL     1       5.328  -5.255  24.743  0.00  0.00    -0.155 N 
ATOM     10  N   UNL     1       5.506  -6.127  23.651  0.00  0.00    -0.175 NA
BRANCH   9  11
ATOM     11  C   UNL     1       4.789  -5.760  25.950  0.00  0.00    +0.061 A 
ATOM     12  C   UNL     1       5.582  -5.892  27.097  0.00  0.00    +0.029 A 
ATOM     13  C   UNL     1       5.060  -6.415  28.300  0.00  0.00    -0.046 A 
ATOM     14  C   UNL     1       5.991  -6.529  29.476  0.00  0.00    +0.044 C 
ATOM     15  C   UNL     1       3.713  -6.818  28.350  0.00  0.00    -0.047 A 
ATOM     16  C   UNL     1       3.084  -7.384  29.590  0.00  0.00    +0.044 C 
ATOM     17  C   UNL     1       2.923  -6.678  27.205  0.00  0.00    +0.005 A 
ATOM     18  C   UNL     1       3.450  -6.156  26.024  0.00  0.00    +0.026 A 
ENDBRANCH   9  11
ENDBRANCH   1   6
BRANCH   1  19
ATOM     19  C   UNL     1       7.541  -0.902  22.502  0.00  0.00    +0.090 A 
ATOM     20  C   UNL     1       8.731  -1.392  21.958  0.00  0.00    +0.028 A 
ATOM     21  C   UNL     1       9.788  -0.524  21.669  0.00  0.00    +0.003 A 
ATOM     22  C   UNL     1       9.685   0.841  21.961  0.00  0.00    +0.012 A 
ATOM     23  C   UNL     1       8.524   1.371  22.541  0.00  0.00    +0.025 A 
ATOM     24  C   UNL     1       7.449   0.483  22.739  0.00  0.00    +0.147 A 
BRANCH  23  25
ATOM     25  C   UNL     1       8.476   2.762  23.041  0.00  0.00    -0.014 A 
ATOM     26  C   UNL     1       7.585   3.672  22.440  0.00  0.00    +0.023 A 
ATOM     27  C   UNL     1       7.495   5.000  22.852  0.00  0.00    +0.059 A 
ATOM     28  C   UNL     1       8.233   5.425  23.959  0.00  0.00    +0.015 A 
ATOM     29  C   UNL     1       9.099   4.533  24.595  0.00  0.00    +0.001 A 
ATOM     30  C   UNL     1       9.235   3.219  24.128  0.00  0.00    +0.008 A 
BRANCH  27  31
ATOM     31  C   UNL     1       6.602   5.947  22.156  0.00  0.00    +0.337 C 
ATOM     32  O   UNL     1       5.437   6.119  22.470  0.00  0.00    -0.245 OA
BRANCH  31  33
ATOM     33  O   UNL     1       7.211   6.642  21.164  0.00  0.00    -0.477 OA
ATOM     34  H   UNL     1       7.339   7.593  21.360  0.00  0.00    +0.295 HD
ENDBRANCH  31  33
ENDBRANCH  27  31
ENDBRANCH  23  25
BRANCH  24  35
ATOM     35  O   UNL     1       6.242   0.980  23.194  0.00  0.00    -0.504 OA
ATOM     36  H   UNL     1       6.175   1.830  22.705  0.00  0.00    +0.292 HD
ENDBRANCH  24  35
ENDBRANCH   1  19
TORSDOF 7
ENDMDL
MODEL 7
REMARK VINA RESULT:      -7.6      3.293      5.117
REMARK  Name = 
REMARK  10 active torsions:
REMARK  status: ('A' for Active; 'I' for Inactive)
REMARK    1  A    between atoms: C_1  and  C_2
REMARK    2  A    between atoms: N_4  and  C_26
REMARK    3  A    between atoms: N_8  and  N_9
REMARK    4  A    between atoms: N_9  and  C_10
REMARK    5  A    between atoms: C_11  and  O_12
REMARK    6  A    between atoms: C_13  and  C_17
REMARK    7  A    between atoms: C_21  and  C_23
REMARK    8  A    between atoms: C_23  and  O_24
REMARK    9  A    between atoms: C_29  and  C_30
REMARK   10  A    between atoms: C_31  and  C_32
REMARK                            x       y       z     vdW  Elec       q    Type
REMARK                         _______ _______ _______ _____ _____    ______ ____
ROOT
ATOM      1  N   UNL     1       9.493  -1.822  22.758  0.00  0.00    -0.233 N 
ATOM      2  H   UNL     1       9.554  -1.977  21.743  0.00  0.00    +0.175 HD
ENDROOT
BRANCH   1   6
ATOM      3  C   UNL     1       9.729  -5.159  25.570  0.00  0.00    +0.070 C 
ATOM      4  C   UNL     1       8.514  -4.657  24.883  0.00  0.00    +0.089 C 
ATOM      5  C   UNL     1       8.559  -3.490  23.965  0.00  0.00    +0.168 C 
ATOM      6  N   UNL     1       9.638  -2.851  23.643  0.00  0.00    -0.175 NA
ATOM      7  C   UNL     1       7.159  -3.275  23.514  0.00  0.00    +0.292 C 
ATOM      8  O   UNL     1       6.837  -2.375  22.766  0.00  0.00    -0.266 OA
ATOM      9  N   UNL     1       6.489  -4.317  24.141  0.00  0.00    -0.155 N 
ATOM     10  N   UNL     1       7.303  -5.127  24.956  0.00  0.00    -0.175 NA
BRANCH   9  11
ATOM     11  C   UNL     1       5.118  -4.639  23.997  0.00  0.00    +0.061 A 
ATOM     12  C   UNL     1       4.131  -3.925  24.687  0.00  0.00    +0.029 A 
ATOM     13  C   UNL     1       2.763  -4.251  24.568  0.00  0.00    -0.046 A 
ATOM     14  C   UNL     1       1.776  -3.436  25.358  0.00  0.00    +0.044 C 
ATOM     15  C   UNL     1       2.379  -5.321  23.739  0.00  0.00    -0.047 A 
ATOM     16  C   UNL     1       0.946  -5.731  23.559  0.00  0.00    +0.044 C 
ATOM     17  C   UNL     1       3.367  -6.027  23.045  0.00  0.00    +0.005 A 
ATOM     18  C   UNL     1       4.715  -5.691  23.169  0.00  0.00    +0.026 A 
ENDBRANCH   9  11
ENDBRANCH   1   6
BRANCH   1  19
ATOM     19  C   UNL     1       9.640  -0.485  23.188  0.00  0.00    +0.090 A 
ATOM     20  C   UNL     1      10.729  -0.115  23.981  0.00  0.00    +0.028 A 
ATOM     21  C   UNL     1      10.874   1.207  24.413  0.00  0.00    +0.003 A 
ATOM     22  C   UNL     1       9.908   2.168  24.094  0.00  0.00    +0.012 A 
ATOM     23  C   UNL     1       8.780   1.833  23.331  0.00  0.00    +0.025 A 
ATOM     24  C   UNL     1       8.710   0.515  22.842  0.00  0.00    +0.147 A 
BRANCH  23  25
ATOM     25  C   UNL     1       7.656   2.779  23.159  0.00  0.00    -0.014 A 
ATOM     26  C   UNL     1       6.377   2.407  23.617  0.00  0.00    +0.023 A 
ATOM     27  C   UNL     1       5.270   3.242  23.478  0.00  0.00    +0.059 A 
ATOM     28  C   UNL     1       5.444   4.528  22.962  0.00  0.00    +0.015 A 
ATOM     29  C   UNL     1       6.708   4.935  22.532  0.00  0.00    +0.001 A 
ATOM     30  C   UNL     1       7.801   4.061  22.611  0.00  0.00    +0.008 A 
BRANCH  27  31
ATOM     31  C   UNL     1       3.929   2.796  23.905  0.00  0.00    +0.337 C 
ATOM     32  O   UNL     1       3.665   2.481  25.052  0.00  0.00    -0.245 OA
BRANCH  31  33
ATOM     33  O   UNL     1       3.008   2.813  22.911  0.00  0.00    -0.477 OA
ATOM     34  H   UNL     1       2.696   1.926  22.637  0.00  0.00    +0.295 HD
ENDBRANCH  31  33
ENDBRANCH  27  31
ENDBRANCH  23  25
BRANCH  24  35
ATOM     35  O   UNL     1       7.682   0.169  21.986  0.00  0.00    -0.504 OA
ATOM     36  H   UNL     1       7.148   0.994  21.965  0.00  0.00    +0.292 HD
ENDBRANCH  24  35
ENDBRANCH   1  19
TORSDOF 7
ENDMDL
MODEL 8
REMARK VINA RESULT:      -7.5      2.201      4.235
REMARK  Name = 
REMARK  10 active torsions:
REMARK  status: ('A' for Active; 'I' for Inactive)
REMARK    1  A    between atoms: C_1  and  C_2
REMARK    2  A    between atoms: N_4  and  C_26
REMARK    3  A    between atoms: N_8  and  N_9
REMARK    4  A    between atoms: N_9  and  C_10
REMARK    5  A    between atoms: C_11  and  O_12
REMARK    6  A    between atoms: C_13  and  C_17
REMARK    7  A    between atoms: C_21  and  C_23
REMARK    8  A    between atoms: C_23  and  O_24
REMARK    9  A    between atoms: C_29  and  C_30
REMARK   10  A    between atoms: C_31  and  C_32
REMARK                            x       y       z     vdW  Elec       q    Type
REMARK                         _______ _______ _______ _____ _____    ______ ____
ROOT
ATOM      1  N   UNL     1       6.647  -1.543  22.955  0.00  0.00    -0.233 N 
ATOM      2  H   UNL     1       5.829  -1.170  23.456  0.00  0.00    +0.175 HD
ENDROOT
BRANCH   1   6
ATOM      3  C   UNL     1       6.500  -5.602  21.342  0.00  0.00    +0.070 C 
ATOM      4  C   UNL     1       6.136  -5.175  22.715  0.00  0.00    +0.089 C 
ATOM      5  C   UNL     1       6.256  -3.761  23.154  0.00  0.00    +0.168 C 
ATOM      6  N   UNL     1       6.626  -2.784  22.388  0.00  0.00    -0.175 NA
ATOM      7  C   UNL     1       5.841  -3.743  24.581  0.00  0.00    +0.292 C 
ATOM      8  O   UNL     1       5.847  -2.734  25.257  0.00  0.00    -0.266 OA
ATOM      9  N   UNL     1       5.491  -5.068  24.799  0.00  0.00    -0.155 N 
ATOM     10  N   UNL     1       5.676  -5.910  23.685  0.00  0.00    -0.175 NA
BRANCH   9  11
ATOM     11  C   UNL     1       4.946  -5.606  25.989  0.00  0.00    +0.061 A 
ATOM     12  C   UNL     1       5.742  -5.805  27.124  0.00  0.00    +0.029 A 
ATOM     13  C   UNL     1       5.214  -6.361  28.309  0.00  0.00    -0.046 A 
ATOM     14  C   UNL     1       6.148  -6.547  29.473  0.00  0.00    +0.044 C 
ATOM     15  C   UNL     1       3.857  -6.730  28.353  0.00  0.00    -0.047 A 
ATOM     16  C   UNL     1       3.220  -7.327  29.574  0.00  0.00    +0.044 C 
ATOM     17  C   UNL     1       3.064  -6.523  27.220  0.00  0.00    +0.005 A 
ATOM     18  C   UNL     1       3.597  -5.968  26.057  0.00  0.00    +0.026 A 
ENDBRANCH   9  11
ENDBRANCH   1   6
BRANCH   1  19
ATOM     19  C   UNL     1       7.613  -0.592  22.558  0.00  0.00    +0.090 A 
ATOM     20  C   UNL     1       8.864  -1.009  22.095  0.00  0.00    +0.028 A 
ATOM     21  C   UNL     1       9.823  -0.070  21.706  0.00  0.00    +0.003 A 
ATOM     22  C   UNL     1       9.562   1.300  21.817  0.00  0.00    +0.012 A 
ATOM     23  C   UNL     1       8.334   1.764  22.310  0.00  0.00    +0.025 A 
ATOM     24  C   UNL     1       7.361   0.793  22.612  0.00  0.00    +0.147 A 
BRANCH  23  25
ATOM     25  C   UNL     1       8.118   3.193  22.624  0.00  0.00    -0.014 A 
ATOM     26  C   UNL     1       8.975   3.825  23.546  0.00  0.00    +0.023 A 
ATOM     27  C   UNL     1       8.823   5.165  23.898  0.00  0.00    +0.059 A 
ATOM     28  C   UNL     1       7.860   5.938  23.247  0.00  0.00    +0.015 A 
ATOM     29  C   UNL     1       7.018   5.345  22.304  0.00  0.00    +0.001 A 
ATOM     30  C   UNL     1       7.133   3.980  22.010  0.00  0.00    +0.008 A 
BRANCH  27  31
ATOM     31  C   UNL     1       9.694   5.780  24.919  0.00  0.00    +0.337 C 
ATOM     32  O   UNL     1      10.809   6.207  24.675  0.00  0.00    -0.245 OA
BRANCH  31  33
ATOM     33  O   UNL     1       9.118   5.869  26.143  0.00  0.00    -0.477 OA
ATOM     34  H   UNL     1       9.105   5.028  26.643  0.00  0.00    +0.295 HD
ENDBRANCH  31  33
ENDBRANCH  27  31
ENDBRANCH  23  25
BRANCH  24  35
ATOM     35  O   UNL     1       6.095   1.202  22.985  0.00  0.00    -0.504 OA
ATOM     36  H   UNL     1       5.626   0.345  23.089  0.00  0.00    +0.292 HD
ENDBRANCH  24  35
ENDBRANCH   1  19
TORSDOF 7
ENDMDL
MODEL 9
REMARK VINA RESULT:      -7.5      2.777     10.669
REMARK  Name = 
REMARK  10 active torsions:
REMARK  status: ('A' for Active; 'I' for Inactive)
REMARK    1  A    between atoms: C_1  and  C_2
REMARK    2  A    between atoms: N_4  and  C_26
REMARK    3  A    between atoms: N_8  and  N_9
REMARK    4  A    between atoms: N_9  and  C_10
REMARK    5  A    between atoms: C_11  and  O_12
REMARK    6  A    between atoms: C_13  and  C_17
REMARK    7  A    between atoms: C_21  and  C_23
REMARK    8  A    between atoms: C_23  and  O_24
REMARK    9  A    between atoms: C_29  and  C_30
REMARK   10  A    between atoms: C_31  and  C_32
REMARK                            x       y       z     vdW  Elec       q    Type
REMARK                         _______ _______ _______ _____ _____    ______ ____
ROOT
ATOM      1  N   UNL     1       8.165  -2.762  23.042  0.00  0.00    -0.233 N 
ATOM      2  H   UNL     1       8.304  -2.213  22.184  0.00  0.00    +0.175 HD
ENDROOT
BRANCH   1   6
ATOM      3  C   UNL     1       8.912  -0.839  26.895  0.00  0.00    +0.070 C 
ATOM      4  C   UNL     1       8.618  -0.167  25.605  0.00  0.00    +0.089 C 
ATOM      5  C   UNL     1       8.409  -0.935  24.351  0.00  0.00    +0.168 C 
ATOM      6  N   UNL     1       8.408  -2.228  24.274  0.00  0.00    -0.175 NA
ATOM      7  C   UNL     1       8.183   0.079  23.288  0.00  0.00    +0.292 C 
ATOM      8  O   UNL     1       8.002  -0.215  22.124  0.00  0.00    -0.266 OA
ATOM      9  N   UNL     1       8.230   1.267  24.005  0.00  0.00    -0.155 N 
ATOM     10  N   UNL     1       8.495   1.108  25.379  0.00  0.00    -0.175 NA
BRANCH   9  11
ATOM     11  C   UNL     1       7.999   2.565  23.491  0.00  0.00    +0.061 A 
ATOM     12  C   UNL     1       8.846   3.632  23.815  0.00  0.00    +0.029 A 
ATOM     13  C   UNL     1       8.613   4.935  23.326  0.00  0.00    -0.046 A 
ATOM     14  C   UNL     1       9.571   6.020  23.738  0.00  0.00    +0.044 C 
ATOM     15  C   UNL     1       7.502   5.172  22.497  0.00  0.00    -0.047 A 
ATOM     16  C   UNL     1       7.186   6.529  21.936  0.00  0.00    +0.044 C 
ATOM     17  C   UNL     1       6.663   4.103  22.169  0.00  0.00    +0.005 A 
ATOM     18  C   UNL     1       6.907   2.819  22.656  0.00  0.00    +0.026 A 
ENDBRANCH   9  11
ENDBRANCH   1   6
BRANCH   1  19
ATOM     19  C   UNL     1       7.366  -3.920  22.911  0.00  0.00    +0.090 A 
ATOM     20  C   UNL     1       7.331  -4.619  21.702  0.00  0.00    +0.028 A 
ATOM     21  C   UNL     1       6.537  -5.762  21.568  0.00  0.00    +0.003 A 
ATOM     22  C   UNL     1       5.731  -6.195  22.627  0.00  0.00    +0.012 A 
ATOM     23  C   UNL     1       5.706  -5.502  23.846  0.00  0.00    +0.025 A 
ATOM     24  C   UNL     1       6.582  -4.407  23.975  0.00  0.00    +0.147 A 
BRANCH  23  25
ATOM     25  C   UNL     1       4.716  -5.823  24.896  0.00  0.00    -0.014 A 
ATOM     26  C   UNL     1       5.170  -6.312  26.135  0.00  0.00    +0.023 A 
ATOM     27  C   UNL     1       4.294  -6.646  27.166  0.00  0.00    +0.059 A 
ATOM     28  C   UNL     1       2.929  -6.397  27.010  0.00  0.00    +0.015 A 
ATOM     29  C   UNL     1       2.454  -5.880  25.803  0.00  0.00    +0.001 A 
ATOM     30  C   UNL     1       3.337  -5.615  24.748  0.00  0.00    +0.008 A 
BRANCH  27  31
ATOM     31  C   UNL     1       4.797  -7.222  28.429  0.00  0.00    +0.337 C 
ATOM     32  O   UNL     1       5.983  -7.311  28.695  0.00  0.00    -0.245 OA
BRANCH  31  33
ATOM     33  O   UNL     1       3.816  -7.600  29.284  0.00  0.00    -0.477 OA
ATOM     34  H   UNL     1       3.612  -8.557  29.264  0.00  0.00    +0.295 HD
ENDBRANCH  31  33
ENDBRANCH  27  31
ENDBRANCH  23  25
BRANCH  24  35
ATOM     35  O   UNL     1       6.684  -3.768  25.195  0.00  0.00    -0.504 OA
ATOM     36  H   UNL     1       5.758  -3.807  25.523  0.00  0.00    +0.292 HD
ENDBRANCH  24  35
ENDBRANCH   1  19
TORSDOF 7
ENDMDL
