MODEL 1
REMARK VINA RESULT:      -5.8      0.000      0.000
REMARK  Name = 
REMARK  4 active torsions:
REMARK  status: ('A' for Active; 'I' for Inactive)
REMARK    1  A    between atoms: O_1  and  C_2
REMARK    2  A    between atoms: C_2  and  C_4
REMARK    3  A    between atoms: C_5  and  O_6
REMARK    4  A    between atoms: C_11  and  O_12
REMARK                            x       y       z     vdW  Elec       q    Type
REMARK                         _______ _______ _______ _____ _____    ______ ____
ROOT
ATOM      1  C   UNL     1       7.947  -3.186  22.934  0.00  0.00    +0.101 A 
ATOM      2  C   UNL     1       8.178  -2.043  22.157  0.00  0.00    +0.027 A 
ATOM      3  C   UNL     1       8.935  -0.979  22.669  0.00  0.00    -0.013 A 
ATOM      4  C   UNL     1       9.441  -1.054  23.990  0.00  0.00    -0.014 A 
ATOM      5  C   UNL     1      10.229  -0.000  24.484  0.00  0.00    +0.012 A 
ATOM      6  C   UNL     1      10.520   1.109  23.686  0.00  0.00    +0.046 A 
ATOM      7  C   UNL     1      10.008   1.175  22.397  0.00  0.00    +0.117 A 
ATOM      8  C   UNL     1       9.148  -2.177  24.778  0.00  0.00    +0.054 A 
ATOM      9  C   UNL     1       9.215   0.153  21.889  0.00  0.00    +0.054 A 
ATOM     10  C   UNL     1       8.399  -3.230  24.255  0.00  0.00    +0.131 A 
ENDROOT
BRANCH   1  11
ATOM     11  C   UNL     1       7.230  -4.352  22.375  0.00  0.00    +0.340 C 
ATOM     12  O   UNL     1       7.587  -5.496  22.608  0.00  0.00    -0.245 OA
BRANCH  11  13
ATOM     13  O   UNL     1       6.232  -4.036  21.525  0.00  0.00    -0.477 OA
ATOM     14  H   UNL     1       6.511  -3.585  20.707  0.00  0.00    +0.295 HD
ENDBRANCH  11  13
ENDBRANCH   1  11
BRANCH   7  15
ATOM     15  O   UNL     1      10.272   2.234  21.580  0.00  0.00    -0.507 OA
ATOM     16  H   UNL     1      11.234   2.358  21.529  0.00  0.00    +0.292 HD
ENDBRANCH   7  15
BRANCH  10  17
ATOM     17  O   UNL     1       8.154  -4.283  25.096  0.00  0.00    -0.506 OA
ATOM     18  H   UNL     1       8.107  -5.109  24.563  0.00  0.00    +0.292 HD
ENDBRANCH  10  17
TORSDOF 4
ENDMDL
MODEL 2
REMARK VINA RESULT:      -5.7      2.074      5.419
REMARK  Name = 
REMARK  4 active torsions:
REMARK  status: ('A' for Active; 'I' for Inactive)
REMARK    1  A    between atoms: O_1  and  C_2
REMARK    2  A    between atoms: C_2  and  C_4
REMARK    3  A    between atoms: C_5  and  O_6
REMARK    4  A    between atoms: C_11  and  O_12
REMARK                            x       y       z     vdW  Elec       q    Type
REMARK                         _______ _______ _______ _____ _____    ______ ____
ROOT
ATOM      1  C   UNL     1       9.821   1.044  23.659  0.00  0.00    +0.101 A 
ATOM      2  C   UNL     1      10.121  -0.300  23.401  0.00  0.00    +0.027 A 
ATOM      3  C   UNL     1       9.616  -1.311  24.232  0.00  0.00    -0.013 A 
ATOM      4  C   UNL     1       8.824  -0.963  25.354  0.00  0.00    -0.014 A 
ATOM      5  C   UNL     1       8.292  -1.982  26.162  0.00  0.00    +0.012 A 
ATOM      6  C   UNL     1       8.530  -3.327  25.865  0.00  0.00    +0.046 A 
ATOM      7  C   UNL     1       9.317  -3.654  24.769  0.00  0.00    +0.117 A 
ATOM      8  C   UNL     1       8.586   0.391  25.636  0.00  0.00    +0.054 A 
ATOM      9  C   UNL     1       9.866  -2.664  23.962  0.00  0.00    +0.054 A 
ATOM     10  C   UNL     1       9.089   1.386  24.799  0.00  0.00    +0.131 A 
ENDROOT
BRANCH   1  11
ATOM     11  C   UNL     1      10.269   2.113  22.740  0.00  0.00    +0.340 C 
ATOM     12  O   UNL     1      10.901   3.078  23.139  0.00  0.00    -0.245 OA
BRANCH  11  13
ATOM     13  O   UNL     1       9.836   1.972  21.471  0.00  0.00    -0.477 OA
ATOM     14  H   UNL     1       8.997   1.486  21.370  0.00  0.00    +0.295 HD
ENDBRANCH  11  13
ENDBRANCH   1  11
BRANCH   7  15
ATOM     15  O   UNL     1       9.570  -4.951  24.436  0.00  0.00    -0.507 OA
ATOM     16  H   UNL     1       9.803  -4.993  23.494  0.00  0.00    +0.292 HD
ENDBRANCH   7  15
BRANCH  10  17
ATOM     17  O   UNL     1       8.815   2.680  25.153  0.00  0.00    -0.506 OA
ATOM     18  H   UNL     1       9.505   3.266  24.767  0.00  0.00    +0.292 HD
ENDBRANCH  10  17
TORSDOF 4
ENDMDL
MODEL 3
REMARK VINA RESULT:      -5.7      1.583      2.079
REMARK  Name = 
REMARK  4 active torsions:
REMARK  status: ('A' for Active; 'I' for Inactive)
REMARK    1  A    between atoms: O_1  and  C_2
REMARK    2  A    between atoms: C_2  and  C_4
REMARK    3  A    between atoms: C_5  and  O_6
REMARK    4  A    between atoms: C_11  and  O_12
REMARK                            x       y       z     vdW  Elec       q    Type
REMARK                         _______ _______ _______ _____ _____    ______ ____
ROOT
ATOM      1  C   UNL     1       9.182  -3.004  24.477  0.00  0.00    +0.101 A 
ATOM      2  C   UNL     1       9.512  -2.190  23.385  0.00  0.00    +0.027 A 
ATOM      3  C   UNL     1       9.514  -0.794  23.515  0.00  0.00    -0.013 A 
ATOM      4  C   UNL     1       9.151  -0.208  24.753  0.00  0.00    -0.014 A 
ATOM      5  C   UNL     1       9.189   1.190  24.888  0.00  0.00    +0.012 A 
ATOM      6  C   UNL     1       9.588   2.001  23.821  0.00  0.00    +0.046 A 
ATOM      7  C   UNL     1       9.931   1.414  22.610  0.00  0.00    +0.117 A 
ATOM      8  C   UNL     1       8.761  -1.033  25.818  0.00  0.00    +0.054 A 
ATOM      9  C   UNL     1       9.888   0.034  22.447  0.00  0.00    +0.054 A 
ATOM     10  C   UNL     1       8.768  -2.420  25.677  0.00  0.00    +0.131 A 
ENDROOT
BRANCH   1  11
ATOM     11  C   UNL     1       9.264  -4.477  24.380  0.00  0.00    +0.340 C 
ATOM     12  O   UNL     1       8.430  -5.127  23.770  0.00  0.00    -0.245 OA
BRANCH  11  13
ATOM     13  O   UNL     1      10.266  -5.026  25.098  0.00  0.00    -0.477 OA
ATOM     14  H   UNL     1      10.241  -5.998  25.168  0.00  0.00    +0.295 HD
ENDBRANCH  11  13
ENDBRANCH   1  11
BRANCH   7  15
ATOM     15  O   UNL     1      10.333   2.163  21.545  0.00  0.00    -0.507 OA
ATOM     16  H   UNL     1      10.873   2.903  21.869  0.00  0.00    +0.292 HD
ENDBRANCH   7  15
BRANCH  10  17
ATOM     17  O   UNL     1       8.366  -3.148  26.765  0.00  0.00    -0.506 OA
ATOM     18  H   UNL     1       7.416  -2.959  26.937  0.00  0.00    +0.292 HD
ENDBRANCH  10  17
TORSDOF 4
ENDMDL
MODEL 4
REMARK VINA RESULT:      -5.7      1.248      2.741
REMARK  Name = 
REMARK  4 active torsions:
REMARK  status: ('A' for Active; 'I' for Inactive)
REMARK    1  A    between atoms: O_1  and  C_2
REMARK    2  A    between atoms: C_2  and  C_4
REMARK    3  A    between atoms: C_5  and  O_6
REMARK    4  A    between atoms: C_11  and  O_12
REMARK                            x       y       z     vdW  Elec       q    Type
REMARK                         _______ _______ _______ _____ _____    ______ ____
ROOT
ATOM      1  C   UNL     1       9.129  -2.632  24.187  0.00  0.00    +0.101 A 
ATOM      2  C   UNL     1       9.829  -1.464  24.516  0.00  0.00    +0.027 A 
ATOM      3  C   UNL     1       9.834  -0.369  23.640  0.00  0.00    -0.013 A 
ATOM      4  C   UNL     1       9.150  -0.461  22.402  0.00  0.00    -0.014 A 
ATOM      5  C   UNL     1       9.128   0.651  21.545  0.00  0.00    +0.012 A 
ATOM      6  C   UNL     1       9.765   1.843  21.904  0.00  0.00    +0.046 A 
ATOM      7  C   UNL     1      10.442   1.916  23.115  0.00  0.00    +0.117 A 
ATOM      8  C   UNL     1       8.507  -1.660  22.058  0.00  0.00    +0.054 A 
ATOM      9  C   UNL     1      10.489   0.825  23.975  0.00  0.00    +0.054 A 
ATOM     10  C   UNL     1       8.505  -2.739  22.941  0.00  0.00    +0.131 A 
ENDROOT
BRANCH   1  11
ATOM     11  C   UNL     1       9.039  -3.759  25.139  0.00  0.00    +0.340 C 
ATOM     12  O   UNL     1       8.527  -3.630  26.240  0.00  0.00    -0.245 OA
BRANCH  11  13
ATOM     13  O   UNL     1       9.652  -4.887  24.726  0.00  0.00    -0.477 OA
ATOM     14  H   UNL     1      10.346  -5.225  25.322  0.00  0.00    +0.295 HD
ENDBRANCH  11  13
ENDBRANCH   1  11
BRANCH   7  15
ATOM     15  O   UNL     1      11.071   3.058  23.510  0.00  0.00    -0.507 OA
ATOM     16  H   UNL     1      12.006   2.857  23.681  0.00  0.00    +0.292 HD
ENDBRANCH   7  15
BRANCH  10  17
ATOM     17  O   UNL     1       7.860  -3.872  22.520  0.00  0.00    -0.506 OA
ATOM     18  H   UNL     1       6.947  -3.869  22.885  0.00  0.00    +0.292 HD
ENDBRANCH  10  17
TORSDOF 4
ENDMDL
MODEL 5
REMARK VINA RESULT:      -5.5      2.298      5.947
REMARK  Name = 
REMARK  4 active torsions:
REMARK  status: ('A' for Active; 'I' for Inactive)
REMARK    1  A    between atoms: O_1  and  C_2
REMARK    2  A    between atoms: C_2  and  C_4
REMARK    3  A    between atoms: C_5  and  O_6
REMARK    4  A    between atoms: C_11  and  O_12
REMARK                            x       y       z     vdW  Elec       q    Type
REMARK                         _______ _______ _______ _____ _____    ______ ____
ROOT
ATOM      1  C   UNL     1       9.524   2.048  23.718  0.00  0.00    +0.101 A 
ATOM      2  C   UNL     1       9.087   1.177  24.726  0.00  0.00    +0.027 A 
ATOM      3  C   UNL     1       9.183  -0.212  24.554  0.00  0.00    -0.013 A 
ATOM      4  C   UNL     1       9.697  -0.732  23.340  0.00  0.00    -0.014 A 
ATOM      5  C   UNL     1       9.823  -2.122  23.188  0.00  0.00    +0.012 A 
ATOM      6  C   UNL     1       9.455  -2.991  24.220  0.00  0.00    +0.046 A 
ATOM      7  C   UNL     1       8.942  -2.468  25.400  0.00  0.00    +0.117 A 
ATOM      8  C   UNL     1      10.070   0.151  22.316  0.00  0.00    +0.054 A 
ATOM      9  C   UNL     1       8.795  -1.097  25.570  0.00  0.00    +0.054 A 
ATOM     10  C   UNL     1       9.975   1.529  22.502  0.00  0.00    +0.131 A 
ENDROOT
BRANCH   1  11
ATOM     11  C   UNL     1       9.515   3.512  23.922  0.00  0.00    +0.340 C 
ATOM     12  O   UNL     1       8.560   4.084  24.424  0.00  0.00    -0.245 OA
BRANCH  11  13
ATOM     13  O   UNL     1      10.592   4.150  23.420  0.00  0.00    -0.477 OA
ATOM     14  H   UNL     1      10.666   5.091  23.661  0.00  0.00    +0.295 HD
ENDBRANCH  11  13
ENDBRANCH   1  11
BRANCH   7  15
ATOM     15  O   UNL     1       8.578  -3.275  26.436  0.00  0.00    -0.507 OA
ATOM     16  H   UNL     1       9.374  -3.694  26.802  0.00  0.00    +0.292 HD
ENDBRANCH   7  15
BRANCH  10  17
ATOM     17  O   UNL     1      10.354   2.317  21.447  0.00  0.00    -0.506 OA
ATOM     18  H   UNL     1      11.038   1.839  20.925  0.00  0.00    +0.292 HD
ENDBRANCH  10  17
TORSDOF 4
ENDMDL
MODEL 6
REMARK VINA RESULT:      -5.5      1.210      5.112
REMARK  Name = 
REMARK  4 active torsions:
REMARK  status: ('A' for Active; 'I' for Inactive)
REMARK    1  A    between atoms: O_1  and  C_2
REMARK    2  A    between atoms: C_2  and  C_4
REMARK    3  A    between atoms: C_5  and  O_6
REMARK    4  A    between atoms: C_11  and  O_12
REMARK                            x       y       z     vdW  Elec       q    Type
REMARK                         _______ _______ _______ _____ _____    ______ ____
ROOT
ATOM      1  C   UNL     1       9.178   0.404  22.596  0.00  0.00    +0.101 A 
ATOM      2  C   UNL     1       8.458  -0.698  22.115  0.00  0.00    +0.027 A 
ATOM      3  C   UNL     1       8.479  -1.917  22.808  0.00  0.00    -0.013 A 
ATOM      4  C   UNL     1       9.259  -2.038  23.985  0.00  0.00    -0.014 A 
ATOM      5  C   UNL     1       9.248  -3.251  24.694  0.00  0.00    +0.012 A 
ATOM      6  C   UNL     1       8.473  -4.328  24.256  0.00  0.00    +0.046 A 
ATOM      7  C   UNL     1       7.722  -4.200  23.095  0.00  0.00    +0.117 A 
ATOM      8  C   UNL     1      10.026  -0.946  24.418  0.00  0.00    +0.054 A 
ATOM      9  C   UNL     1       7.726  -3.015  22.368  0.00  0.00    +0.054 A 
ATOM     10  C   UNL     1       9.992   0.262  23.723  0.00  0.00    +0.131 A 
ENDROOT
BRANCH   1  11
ATOM     11  C   UNL     1       9.092   1.719  21.927  0.00  0.00    +0.340 C 
ATOM     12  O   UNL     1       8.018   2.230  21.651  0.00  0.00    -0.245 OA
BRANCH  11  13
ATOM     13  O   UNL     1      10.283   2.240  21.568  0.00  0.00    -0.477 OA
ATOM     14  H   UNL     1      10.383   2.433  20.618  0.00  0.00    +0.295 HD
ENDBRANCH  11  13
ENDBRANCH   1  11
BRANCH   7  15
ATOM     15  O   UNL     1       6.945  -5.220  22.633  0.00  0.00    -0.507 OA
ATOM     16  H   UNL     1       6.515  -5.653  23.389  0.00  0.00    +0.292 HD
ENDBRANCH   7  15
BRANCH  10  17
ATOM     17  O   UNL     1      10.777   1.272  24.212  0.00  0.00    -0.506 OA
ATOM     18  H   UNL     1      11.609   0.883  24.564  0.00  0.00    +0.292 HD
ENDBRANCH  10  17
TORSDOF 4
ENDMDL
MODEL 7
REMARK VINA RESULT:      -5.5      2.181      3.004
REMARK  Name = 
REMARK  4 active torsions:
REMARK  status: ('A' for Active; 'I' for Inactive)
REMARK    1  A    between atoms: O_1  and  C_2
REMARK    2  A    between atoms: C_2  and  C_4
REMARK    3  A    between atoms: C_5  and  O_6
REMARK    4  A    between atoms: C_11  and  O_12
REMARK                            x       y       z     vdW  Elec       q    Type
REMARK                         _______ _______ _______ _____ _____    ______ ____
ROOT
ATOM      1  C   UNL     1       5.866  -4.829  23.507  0.00  0.00    +0.101 A 
ATOM      2  C   UNL     1       6.388  -3.877  22.621  0.00  0.00    +0.027 A 
ATOM      3  C   UNL     1       7.611  -3.247  22.896  0.00  0.00    -0.013 A 
ATOM      4  C   UNL     1       8.303  -3.557  24.093  0.00  0.00    -0.014 A 
ATOM      5  C   UNL     1       9.543  -2.949  24.345  0.00  0.00    +0.012 A 
ATOM      6  C   UNL     1      10.101  -2.054  23.428  0.00  0.00    +0.046 A 
ATOM      7  C   UNL     1       9.407  -1.750  22.264  0.00  0.00    +0.117 A 
ATOM      8  C   UNL     1       7.736  -4.464  25.001  0.00  0.00    +0.054 A 
ATOM      9  C   UNL     1       8.171  -2.328  21.997  0.00  0.00    +0.054 A 
ATOM     10  C   UNL     1       6.523  -5.088  24.713  0.00  0.00    +0.131 A 
ENDROOT
BRANCH   1  11
ATOM     11  C   UNL     1       4.626  -5.568  23.186  0.00  0.00    +0.340 C 
ATOM     12  O   UNL     1       3.604  -4.990  22.853  0.00  0.00    -0.245 OA
BRANCH  11  13
ATOM     13  O   UNL     1       4.703  -6.899  23.390  0.00  0.00    -0.477 OA
ATOM     14  H   UNL     1       3.899  -7.401  23.163  0.00  0.00    +0.295 HD
ENDBRANCH  11  13
ENDBRANCH   1  11
BRANCH   7  15
ATOM     15  O   UNL     1       9.914  -0.889  21.338  0.00  0.00    -0.507 OA
ATOM     16  H   UNL     1      10.860  -1.075  21.222  0.00  0.00    +0.292 HD
ENDBRANCH   7  15
BRANCH  10  17
ATOM     17  O   UNL     1       6.040  -5.953  25.659  0.00  0.00    -0.506 OA
ATOM     18  H   UNL     1       6.615  -6.751  25.679  0.00  0.00    +0.292 HD
ENDBRANCH  10  17
TORSDOF 4
ENDMDL
MODEL 8
REMARK VINA RESULT:      -5.4      2.104      5.177
REMARK  Name = 
REMARK  4 active torsions:
REMARK  status: ('A' for Active; 'I' for Inactive)
REMARK    1  A    between atoms: O_1  and  C_2
REMARK    2  A    between atoms: C_2  and  C_4
REMARK    3  A    between atoms: C_5  and  O_6
REMARK    4  A    between atoms: C_11  and  O_12
REMARK                            x       y       z     vdW  Elec       q    Type
REMARK                         _______ _______ _______ _____ _____    ______ ____
ROOT
ATOM      1  C   UNL     1       8.669  -0.125  22.840  0.00  0.00    +0.101 A 
ATOM      2  C   UNL     1       9.496  -1.141  23.338  0.00  0.00    +0.027 A 
ATOM      3  C   UNL     1       8.938  -2.300  23.898  0.00  0.00    -0.013 A 
ATOM      4  C   UNL     1       7.529  -2.425  23.986  0.00  0.00    -0.014 A 
ATOM      5  C   UNL     1       6.977  -3.603  24.515  0.00  0.00    +0.012 A 
ATOM      6  C   UNL     1       7.799  -4.648  24.945  0.00  0.00    +0.046 A 
ATOM      7  C   UNL     1       9.178  -4.508  24.864  0.00  0.00    +0.117 A 
ATOM      8  C   UNL     1       6.715  -1.372  23.542  0.00  0.00    +0.054 A 
ATOM      9  C   UNL     1       9.750  -3.347  24.357  0.00  0.00    +0.054 A 
ATOM     10  C   UNL     1       7.282  -0.228  22.982  0.00  0.00    +0.131 A 
ENDROOT
BRANCH   1  11
ATOM     11  C   UNL     1       9.241   1.059  22.165  0.00  0.00    +0.340 C 
ATOM     12  O   UNL     1       9.983   1.834  22.748  0.00  0.00    -0.245 OA
BRANCH  11  13
ATOM     13  O   UNL     1       8.795   1.251  20.907  0.00  0.00    -0.477 OA
ATOM     14  H   UNL     1       9.407   0.970  20.202  0.00  0.00    +0.295 HD
ENDBRANCH  11  13
ENDBRANCH   1  11
BRANCH   7  15
ATOM     15  O   UNL     1      10.019  -5.502  25.265  0.00  0.00    -0.507 OA
ATOM     16  H   UNL     1       9.612  -6.359  25.057  0.00  0.00    +0.292 HD
ENDBRANCH   7  15
BRANCH  10  17
ATOM     17  O   UNL     1       6.414   0.753  22.583  0.00  0.00    -0.506 OA
ATOM     18  H   UNL     1       6.240   1.350  23.346  0.00  0.00    +0.292 HD
ENDBRANCH  10  17
TORSDOF 4
ENDMDL
MODEL 9
REMARK VINA RESULT:      -5.4      3.875      5.689
REMARK  Name = 
REMARK  4 active torsions:
REMARK  status: ('A' for Active; 'I' for Inactive)
REMARK    1  A    between atoms: O_1  and  C_2
REMARK    2  A    between atoms: C_2  and  C_4
REMARK    3  A    between atoms: C_5  and  O_6
REMARK    4  A    between atoms: C_11  and  O_12
REMARK                            x       y       z     vdW  Elec       q    Type
REMARK                         _______ _______ _______ _____ _____    ______ ____
ROOT
ATOM      1  C   UNL     1       5.578  -5.927  26.607  0.00  0.00    +0.101 A 
ATOM      2  C   UNL     1       5.015  -5.506  25.395  0.00  0.00    +0.027 A 
ATOM      3  C   UNL     1       5.818  -4.926  24.402  0.00  0.00    -0.013 A 
ATOM      4  C   UNL     1       7.202  -4.739  24.644  0.00  0.00    -0.014 A 
ATOM      5  C   UNL     1       8.007  -4.190  23.633  0.00  0.00    +0.012 A 
ATOM      6  C   UNL     1       7.460  -3.837  22.396  0.00  0.00    +0.046 A 
ATOM      7  C   UNL     1       6.101  -4.014  22.176  0.00  0.00    +0.117 A 
ATOM      8  C   UNL     1       7.739  -5.107  25.887  0.00  0.00    +0.054 A 
ATOM      9  C   UNL     1       5.279  -4.543  23.165  0.00  0.00    +0.054 A 
ATOM     10  C   UNL     1       6.931  -5.687  26.863  0.00  0.00    +0.131 A 
ENDROOT
BRANCH   1  11
ATOM     11  C   UNL     1       4.762  -6.623  27.624  0.00  0.00    +0.340 C 
ATOM     12  O   UNL     1       3.643  -6.236  27.923  0.00  0.00    -0.245 OA
BRANCH  11  13
ATOM     13  O   UNL     1       5.396  -7.637  28.246  0.00  0.00    -0.477 OA
ATOM     14  H   UNL     1       6.300  -7.818  27.931  0.00  0.00    +0.295 HD
ENDBRANCH  11  13
ENDBRANCH   1  11
BRANCH   7  15
ATOM     15  O   UNL     1       5.524  -3.691  20.984  0.00  0.00    -0.507 OA
ATOM     16  H   UNL     1       5.817  -4.329  20.312  0.00  0.00    +0.292 HD
ENDBRANCH   7  15
BRANCH  10  17
ATOM     17  O   UNL     1       7.537  -6.007  28.048  0.00  0.00    -0.506 OA
ATOM     18  H   UNL     1       7.032  -6.736  28.474  0.00  0.00    +0.292 HD
ENDBRANCH  10  17
TORSDOF 4
ENDMDL
