MODEL 1
REMARK VINA RESULT:      -4.6      0.000      0.000
REMARK  Name = 
REMARK  3 active torsions:
REMARK  status: ('A' for Active; 'I' for Inactive)
REMARK    1  A    between atoms: N_1  and  C_2
REMARK    2  A    between atoms: C_6  and  C_8
REMARK    3  A    between atoms: C_8  and  O_9
REMARK                            x       y       z     vdW  Elec       q    Type
REMARK                         _______ _______ _______ _____ _____    ______ ____
ROOT
ATOM      1  C   UNL     1      10.047   1.272  22.511  0.00  0.00    +0.025 A 
ATOM      2  C   UNL     1       9.624  -0.050  22.359  0.00  0.00    +0.037 A 
ATOM      3  C   UNL     1       9.677  -0.949  23.434  0.00  0.00    +0.061 A 
ATOM      4  C   UNL     1      10.093  -0.504  24.694  0.00  0.00    +0.015 A 
ATOM      5  C   UNL     1      10.468   0.828  24.865  0.00  0.00    +0.003 A 
ATOM      6  C   UNL     1      10.427   1.710  23.783  0.00  0.00    +0.023 A 
ENDROOT
BRANCH   1   7
ATOM      7  N   UNL     1       9.866   2.194  21.475  0.00  0.00    -0.358 N 
ATOM      8  H   UNL     1      10.715   2.671  21.185  0.00  0.00    +0.142 HD
ATOM      9  H   UNL     1       9.089   2.832  21.610  0.00  0.00    +0.142 HD
ENDBRANCH   1   7
BRANCH   3  10
ATOM     10  C   UNL     1       9.226  -2.343  23.198  0.00  0.00    +0.337 C 
ATOM     11  O   UNL     1       8.370  -2.635  22.382  0.00  0.00    -0.245 OA
BRANCH  10  12
ATOM     12  O   UNL     1       9.885  -3.262  23.934  0.00  0.00    -0.477 OA
ATOM     13  H   UNL     1       9.781  -4.183  23.635  0.00  0.00    +0.295 HD
ENDBRANCH  10  12
ENDBRANCH   3  10
TORSDOF 3
ENDMDL
MODEL 2
REMARK VINA RESULT:      -4.4      3.278      4.238
REMARK  Name = 
REMARK  3 active torsions:
REMARK  status: ('A' for Active; 'I' for Inactive)
REMARK    1  A    between atoms: N_1  and  C_2
REMARK    2  A    between atoms: C_6  and  C_8
REMARK    3  A    between atoms: C_8  and  O_9
REMARK                            x       y       z     vdW  Elec       q    Type
REMARK                         _______ _______ _______ _____ _____    ______ ____
ROOT
ATOM      1  C   UNL     1       9.515  -0.389  25.373  0.00  0.00    +0.025 A 
ATOM      2  C   UNL     1       9.759   0.824  24.725  0.00  0.00    +0.037 A 
ATOM      3  C   UNL     1      10.076   0.857  23.360  0.00  0.00    +0.061 A 
ATOM      4  C   UNL     1      10.083  -0.329  22.617  0.00  0.00    +0.015 A 
ATOM      5  C   UNL     1       9.791  -1.538  23.247  0.00  0.00    +0.003 A 
ATOM      6  C   UNL     1       9.493  -1.561  24.612  0.00  0.00    +0.023 A 
ENDROOT
BRANCH   1   7
ATOM      7  N   UNL     1       9.070  -0.403  26.699  0.00  0.00    -0.358 N 
ATOM      8  H   UNL     1       9.810  -0.334  27.391  0.00  0.00    +0.142 HD
ATOM      9  H   UNL     1       8.406  -1.140  26.912  0.00  0.00    +0.142 HD
ENDBRANCH   1   7
BRANCH   3  10
ATOM     10  C   UNL     1      10.337   2.179  22.738  0.00  0.00    +0.337 C 
ATOM     11  O   UNL     1      10.890   3.093  23.326  0.00  0.00    -0.245 OA
BRANCH  10  12
ATOM     12  O   UNL     1       9.954   2.260  21.446  0.00  0.00    -0.477 OA
ATOM     13  H   UNL     1      10.436   1.675  20.835  0.00  0.00    +0.295 HD
ENDBRANCH  10  12
ENDBRANCH   3  10
TORSDOF 3
ENDMDL
MODEL 3
REMARK VINA RESULT:      -4.4      3.144      4.218
REMARK  Name = 
REMARK  3 active torsions:
REMARK  status: ('A' for Active; 'I' for Inactive)
REMARK    1  A    between atoms: N_1  and  C_2
REMARK    2  A    between atoms: C_6  and  C_8
REMARK    3  A    between atoms: C_8  and  O_9
REMARK                            x       y       z     vdW  Elec       q    Type
REMARK                         _______ _______ _______ _____ _____    ______ ____
ROOT
ATOM      1  C   UNL     1       9.318  -2.165  23.291  0.00  0.00    +0.025 A 
ATOM      2  C   UNL     1       9.564  -3.151  24.250  0.00  0.00    +0.037 A 
ATOM      3  C   UNL     1       8.728  -4.270  24.359  0.00  0.00    +0.061 A 
ATOM      4  C   UNL     1       7.673  -4.443  23.455  0.00  0.00    +0.015 A 
ATOM      5  C   UNL     1       7.453  -3.488  22.463  0.00  0.00    +0.003 A 
ATOM      6  C   UNL     1       8.283  -2.367  22.375  0.00  0.00    +0.023 A 
ENDROOT
BRANCH   1   7
ATOM      7  N   UNL     1      10.231  -1.122  23.102  0.00  0.00    -0.358 N 
ATOM      8  H   UNL     1      11.084  -1.208  23.646  0.00  0.00    +0.142 HD
ATOM      9  H   UNL     1       9.827  -0.193  23.157  0.00  0.00    +0.142 HD
ENDBRANCH   1   7
BRANCH   3  10
ATOM     10  C   UNL     1       9.038  -5.272  25.409  0.00  0.00    +0.337 C 
ATOM     11  O   UNL     1       8.195  -5.734  26.157  0.00  0.00    -0.245 OA
BRANCH  10  12
ATOM     12  O   UNL     1      10.330  -5.662  25.426  0.00  0.00    -0.477 OA
ATOM     13  H   UNL     1      10.920  -5.113  25.972  0.00  0.00    +0.295 HD
ENDBRANCH  10  12
ENDBRANCH   3  10
TORSDOF 3
ENDMDL
MODEL 4
REMARK VINA RESULT:      -4.4      3.405      4.119
REMARK  Name = 
REMARK  3 active torsions:
REMARK  status: ('A' for Active; 'I' for Inactive)
REMARK    1  A    between atoms: N_1  and  C_2
REMARK    2  A    between atoms: C_6  and  C_8
REMARK    3  A    between atoms: C_8  and  O_9
REMARK                            x       y       z     vdW  Elec       q    Type
REMARK                         _______ _______ _______ _____ _____    ______ ____
ROOT
ATOM      1  C   UNL     1       9.770  -0.159  22.217  0.00  0.00    +0.025 A 
ATOM      2  C   UNL     1       9.918   1.229  22.267  0.00  0.00    +0.037 A 
ATOM      3  C   UNL     1      10.197   1.877  23.478  0.00  0.00    +0.061 A 
ATOM      4  C   UNL     1      10.401   1.125  24.641  0.00  0.00    +0.015 A 
ATOM      5  C   UNL     1      10.305  -0.265  24.587  0.00  0.00    +0.003 A 
ATOM      6  C   UNL     1      10.009  -0.899  23.378  0.00  0.00    +0.023 A 
ENDROOT
BRANCH   1   7
ATOM      7  N   UNL     1       9.625  -0.809  20.987  0.00  0.00    -0.358 N 
ATOM      8  H   UNL     1       9.169  -0.252  20.271  0.00  0.00    +0.142 HD
ATOM      9  H   UNL     1       9.245  -1.748  21.049  0.00  0.00    +0.142 HD
ENDBRANCH   1   7
BRANCH   3  10
ATOM     10  C   UNL     1      10.327   3.356  23.462  0.00  0.00    +0.337 C 
ATOM     11  O   UNL     1       9.579   4.095  24.077  0.00  0.00    -0.245 OA
BRANCH  10  12
ATOM     12  O   UNL     1      11.380   3.804  22.745  0.00  0.00    -0.477 OA
ATOM     13  H   UNL     1      11.845   4.568  23.130  0.00  0.00    +0.295 HD
ENDBRANCH  10  12
ENDBRANCH   3  10
TORSDOF 3
ENDMDL
MODEL 5
REMARK VINA RESULT:      -4.4      4.472      5.451
REMARK  Name = 
REMARK  3 active torsions:
REMARK  status: ('A' for Active; 'I' for Inactive)
REMARK    1  A    between atoms: N_1  and  C_2
REMARK    2  A    between atoms: C_6  and  C_8
REMARK    3  A    between atoms: C_8  and  O_9
REMARK                            x       y       z     vdW  Elec       q    Type
REMARK                         _______ _______ _______ _____ _____    ______ ____
ROOT
ATOM      1  C   UNL     1       8.903  -4.868  24.623  0.00  0.00    +0.025 A 
ATOM      2  C   UNL     1       7.992  -5.410  23.714  0.00  0.00    +0.037 A 
ATOM      3  C   UNL     1       7.379  -4.604  22.745  0.00  0.00    +0.061 A 
ATOM      4  C   UNL     1       7.731  -3.254  22.638  0.00  0.00    +0.015 A 
ATOM      5  C   UNL     1       8.678  -2.717  23.509  0.00  0.00    +0.003 A 
ATOM      6  C   UNL     1       9.270  -3.527  24.482  0.00  0.00    +0.023 A 
ENDROOT
BRANCH   1   7
ATOM      7  N   UNL     1       9.609  -5.702  25.496  0.00  0.00    -0.358 N 
ATOM      8  H   UNL     1       9.034  -6.151  26.203  0.00  0.00    +0.142 HD
ATOM      9  H   UNL     1      10.450  -5.289  25.885  0.00  0.00    +0.142 HD
ENDBRANCH   1   7
BRANCH   3  10
ATOM     10  C   UNL     1       6.409  -5.242  21.820  0.00  0.00    +0.337 C 
ATOM     11  O   UNL     1       5.797  -4.623  20.968  0.00  0.00    -0.245 OA
BRANCH  10  12
ATOM     12  O   UNL     1       6.306  -6.579  21.975  0.00  0.00    -0.477 OA
ATOM     13  H   UNL     1       5.639  -7.010  21.411  0.00  0.00    +0.295 HD
ENDBRANCH  10  12
ENDBRANCH   3  10
TORSDOF 3
ENDMDL
MODEL 6
REMARK VINA RESULT:      -4.4      3.107      3.905
REMARK  Name = 
REMARK  3 active torsions:
REMARK  status: ('A' for Active; 'I' for Inactive)
REMARK    1  A    between atoms: N_1  and  C_2
REMARK    2  A    between atoms: C_6  and  C_8
REMARK    3  A    between atoms: C_8  and  O_9
REMARK                            x       y       z     vdW  Elec       q    Type
REMARK                         _______ _______ _______ _____ _____    ______ ____
ROOT
ATOM      1  C   UNL     1       9.552  -0.454  24.912  0.00  0.00    +0.025 A 
ATOM      2  C   UNL     1       9.320   0.615  24.042  0.00  0.00    +0.037 A 
ATOM      3  C   UNL     1       9.449   0.452  22.656  0.00  0.00    +0.061 A 
ATOM      4  C   UNL     1       9.745  -0.809  22.127  0.00  0.00    +0.015 A 
ATOM      5  C   UNL     1       9.927  -1.892  22.986  0.00  0.00    +0.003 A 
ATOM      6  C   UNL     1       9.813  -1.714  24.367  0.00  0.00    +0.023 A 
ENDROOT
BRANCH   1   7
ATOM      7  N   UNL     1       9.292  -0.319  26.279  0.00  0.00    -0.358 N 
ATOM      8  H   UNL     1       8.306  -0.337  26.523  0.00  0.00    +0.142 HD
ATOM      9  H   UNL     1       9.789   0.443  26.730  0.00  0.00    +0.142 HD
ENDBRANCH   1   7
BRANCH   3  10
ATOM     10  C   UNL     1       9.203   1.633  21.791  0.00  0.00    +0.337 C 
ATOM     11  O   UNL     1       8.100   1.925  21.363  0.00  0.00    -0.245 OA
BRANCH  10  12
ATOM     12  O   UNL     1      10.303   2.383  21.564  0.00  0.00    -0.477 OA
ATOM     13  H   UNL     1      10.767   2.192  20.730  0.00  0.00    +0.295 HD
ENDBRANCH  10  12
ENDBRANCH   3  10
TORSDOF 3
ENDMDL
MODEL 7
REMARK VINA RESULT:      -4.2      3.533      4.494
REMARK  Name = 
REMARK  3 active torsions:
REMARK  status: ('A' for Active; 'I' for Inactive)
REMARK    1  A    between atoms: N_1  and  C_2
REMARK    2  A    between atoms: C_6  and  C_8
REMARK    3  A    between atoms: C_8  and  O_9
REMARK                            x       y       z     vdW  Elec       q    Type
REMARK                         _______ _______ _______ _____ _____    ______ ____
ROOT
ATOM      1  C   UNL     1      10.099   0.826  23.933  0.00  0.00    +0.025 A 
ATOM      2  C   UNL     1       9.243   1.904  23.697  0.00  0.00    +0.037 A 
ATOM      3  C   UNL     1       8.653   2.088  22.438  0.00  0.00    +0.061 A 
ATOM      4  C   UNL     1       8.865   1.147  21.424  0.00  0.00    +0.015 A 
ATOM      5  C   UNL     1       9.678   0.041  21.670  0.00  0.00    +0.003 A 
ATOM      6  C   UNL     1      10.275  -0.123  22.922  0.00  0.00    +0.023 A 
ENDROOT
BRANCH   1   7
ATOM      7  N   UNL     1      10.577   0.575  25.223  0.00  0.00    -0.358 N 
ATOM      8  H   UNL     1      10.041   1.021  25.963  0.00  0.00    +0.142 HD
ATOM      9  H   UNL     1      11.577   0.705  25.336  0.00  0.00    +0.142 HD
ENDBRANCH   1   7
BRANCH   3  10
ATOM     10  C   UNL     1       7.764   3.263  22.252  0.00  0.00    +0.337 C 
ATOM     11  O   UNL     1       6.604   3.168  21.894  0.00  0.00    -0.245 OA
BRANCH  10  12
ATOM     12  O   UNL     1       8.344   4.441  22.565  0.00  0.00    -0.477 OA
ATOM     13  H   UNL     1       9.006   4.758  21.924  0.00  0.00    +0.295 HD
ENDBRANCH  10  12
ENDBRANCH   3  10
TORSDOF 3
ENDMDL
MODEL 8
REMARK VINA RESULT:      -4.2      3.559      5.120
REMARK  Name = 
REMARK  3 active torsions:
REMARK  status: ('A' for Active; 'I' for Inactive)
REMARK    1  A    between atoms: N_1  and  C_2
REMARK    2  A    between atoms: C_6  and  C_8
REMARK    3  A    between atoms: C_8  and  O_9
REMARK                            x       y       z     vdW  Elec       q    Type
REMARK                         _______ _______ _______ _____ _____    ______ ____
ROOT
ATOM      1  C   UNL     1       8.840  -4.563  24.925  0.00  0.00    +0.025 A 
ATOM      2  C   UNL     1       9.548  -3.448  24.470  0.00  0.00    +0.037 A 
ATOM      3  C   UNL     1       9.126  -2.746  23.332  0.00  0.00    +0.061 A 
ATOM      4  C   UNL     1       7.945  -3.120  22.680  0.00  0.00    +0.015 A 
ATOM      5  C   UNL     1       7.207  -4.202  23.160  0.00  0.00    +0.003 A 
ATOM      6  C   UNL     1       7.646  -4.904  24.285  0.00  0.00    +0.023 A 
ENDROOT
BRANCH   1   7
ATOM      7  N   UNL     1       9.190  -5.175  26.133  0.00  0.00    -0.358 N 
ATOM      8  H   UNL     1       8.919  -6.151  26.203  0.00  0.00    +0.142 HD
ATOM      9  H   UNL     1       8.943  -4.643  26.961  0.00  0.00    +0.142 HD
ENDBRANCH   1   7
BRANCH   3  10
ATOM     10  C   UNL     1       9.932  -1.579  22.895  0.00  0.00    +0.337 C 
ATOM     11  O   UNL     1      10.308  -0.708  23.659  0.00  0.00    -0.245 OA
BRANCH  10  12
ATOM     12  O   UNL     1      10.255  -1.598  21.584  0.00  0.00    -0.477 OA
ATOM     13  H   UNL     1      11.189  -1.795  21.392  0.00  0.00    +0.295 HD
ENDBRANCH  10  12
ENDBRANCH   3  10
TORSDOF 3
ENDMDL
MODEL 9
REMARK VINA RESULT:      -4.2      5.907      6.881
REMARK  Name = 
REMARK  3 active torsions:
REMARK  status: ('A' for Active; 'I' for Inactive)
REMARK    1  A    between atoms: N_1  and  C_2
REMARK    2  A    between atoms: C_6  and  C_8
REMARK    3  A    between atoms: C_8  and  O_9
REMARK                            x       y       z     vdW  Elec       q    Type
REMARK                         _______ _______ _______ _____ _____    ______ ____
ROOT
ATOM      1  C   UNL     1       7.426  -5.352  25.926  0.00  0.00    +0.025 A 
ATOM      2  C   UNL     1       6.243  -5.819  25.348  0.00  0.00    +0.037 A 
ATOM      3  C   UNL     1       5.939  -5.536  24.009  0.00  0.00    +0.061 A 
ATOM      4  C   UNL     1       6.859  -4.837  23.218  0.00  0.00    +0.015 A 
ATOM      5  C   UNL     1       8.065  -4.413  23.775  0.00  0.00    +0.003 A 
ATOM      6  C   UNL     1       8.349  -4.686  25.115  0.00  0.00    +0.023 A 
ENDROOT
BRANCH   1   7
ATOM      7  N   UNL     1       7.784  -5.750  27.218  0.00  0.00    -0.358 N 
ATOM      8  H   UNL     1       7.799  -6.756  27.358  0.00  0.00    +0.142 HD
ATOM      9  H   UNL     1       7.294  -5.262  27.960  0.00  0.00    +0.142 HD
ENDBRANCH   1   7
BRANCH   3  10
ATOM     10  C   UNL     1       4.658  -6.050  23.462  0.00  0.00    +0.337 C 
ATOM     11  O   UNL     1       3.940  -5.396  22.727  0.00  0.00    -0.245 OA
BRANCH  10  12
ATOM     12  O   UNL     1       4.388  -7.325  23.813  0.00  0.00    -0.477 OA
ATOM     13  H   UNL     1       3.453  -7.584  23.737  0.00  0.00    +0.295 HD
ENDBRANCH  10  12
ENDBRANCH   3  10
TORSDOF 3
ENDMDL
