MODEL 1
REMARK VINA RESULT:      -5.8      0.000      0.000
REMARK  Name = 
REMARK  11 active torsions:
REMARK  status: ('A' for Active; 'I' for Inactive)
REMARK    1  A    between atoms: C_1  and  O_2
REMARK    2  A    between atoms: O_2  and  C_3
REMARK    3  A    between atoms: C_9  and  C_10
REMARK    4  A    between atoms: C_10  and  C_11
REMARK    5  A    between atoms: C_11  and  N_12
REMARK    6  A    between atoms: N_12  and  C_13
REMARK    7  A    between atoms: N_12  and  C_16
REMARK    8  A    between atoms: C_13  and  C_14
REMARK    9  A    between atoms: C_13  and  C_15
REMARK   10  A    between atoms: C_16  and  C_17
REMARK   11  A    between atoms: C_16  and  C_18
REMARK                            x       y       z     vdW  Elec       q    Type
REMARK                         _______ _______ _______ _____ _____    ______ ____
ROOT
ATOM      1  C   UNL     1       5.755  -5.565  23.141  0.00  0.00    +0.121 A 
ATOM      2  C   UNL     1       5.043  -6.117  24.205  0.00  0.00    +0.047 A 
ATOM      3  C   UNL     1       5.514  -6.023  25.520  0.00  0.00    +0.030 A 
ATOM      4  C   UNL     1       6.723  -5.351  25.727  0.00  0.00    +0.047 A 
ATOM      5  N   UNL     1       7.409  -5.096  26.893  0.00  0.00    -0.360 N 
ATOM      6  H   UNL     1       7.100  -5.382  27.810  0.00  0.00    +0.165 HD
ATOM      7  C   UNL     1       8.574  -4.432  26.624  0.00  0.00    +0.087 A 
ATOM      8  C   UNL     1       8.663  -4.245  25.259  0.00  0.00    -0.021 A 
ATOM      9  C   UNL     1       7.478  -4.815  24.685  0.00  0.00    +0.006 A 
ATOM     10  C   UNL     1       6.986  -4.945  23.365  0.00  0.00    +0.056 A 
ENDROOT
BRANCH   1  12
ATOM     11  C   UNL     1       6.125  -5.774  20.825  0.00  0.00    +0.277 C 
ATOM     12  O   UNL     1       5.189  -5.716  21.902  0.00  0.00    -0.495 OA
ENDBRANCH   1  12
BRANCH   8  13
ATOM     13  C   UNL     1       9.821  -3.634  24.514  0.00  0.00    +0.052 C 
BRANCH  13  14
ATOM     14  C   UNL     1       9.487  -2.273  23.877  0.00  0.00    +0.089 C 
BRANCH  14  15
ATOM     15  N   UNL     1       9.861  -0.997  24.557  0.00  0.00    -0.297 NA
BRANCH  15  16
ATOM     16  C   UNL     1       8.675  -0.446  25.305  0.00  0.00    +0.051 C 
ATOM     17  C   UNL     1       8.687  -0.743  26.818  0.00  0.00    +0.024 C 
ATOM     18  C   UNL     1       7.304  -0.829  24.719  0.00  0.00    +0.024 C 
ENDBRANCH  15  16
BRANCH  15  19
ATOM     19  C   UNL     1      10.488   0.034  23.663  0.00  0.00    +0.051 C 
ATOM     20  C   UNL     1      10.378   1.486  24.161  0.00  0.00    +0.024 C 
ATOM     21  C   UNL     1       9.879   0.042  22.241  0.00  0.00    +0.024 C 
ENDBRANCH  15  19
ENDBRANCH  14  15
ENDBRANCH  13  14
ENDBRANCH   8  13
TORSDOF 6
ENDMDL
MODEL 2
REMARK VINA RESULT:      -5.8      1.934      3.205
REMARK  Name = 
REMARK  11 active torsions:
REMARK  status: ('A' for Active; 'I' for Inactive)
REMARK    1  A    between atoms: C_1  and  O_2
REMARK    2  A    between atoms: O_2  and  C_3
REMARK    3  A    between atoms: C_9  and  C_10
REMARK    4  A    between atoms: C_10  and  C_11
REMARK    5  A    between atoms: C_11  and  N_12
REMARK    6  A    between atoms: N_12  and  C_13
REMARK    7  A    between atoms: N_12  and  C_16
REMARK    8  A    between atoms: C_13  and  C_14
REMARK    9  A    between atoms: C_13  and  C_15
REMARK   10  A    between atoms: C_16  and  C_17
REMARK   11  A    between atoms: C_16  and  C_18
REMARK                            x       y       z     vdW  Elec       q    Type
REMARK                         _______ _______ _______ _____ _____    ______ ____
ROOT
ATOM      1  C   UNL     1       5.798  -4.415  22.894  0.00  0.00    +0.121 A 
ATOM      2  C   UNL     1       6.236  -5.261  23.912  0.00  0.00    +0.047 A 
ATOM      3  C   UNL     1       7.481  -5.077  24.524  0.00  0.00    +0.030 A 
ATOM      4  C   UNL     1       8.269  -4.011  24.079  0.00  0.00    +0.047 A 
ATOM      5  N   UNL     1       9.510  -3.587  24.498  0.00  0.00    -0.360 N 
ATOM      6  H   UNL     1      10.043  -4.026  25.235  0.00  0.00    +0.165 HD
ATOM      7  C   UNL     1       9.923  -2.516  23.756  0.00  0.00    +0.087 A 
ATOM      8  C   UNL     1       8.941  -2.224  22.828  0.00  0.00    -0.021 A 
ATOM      9  C   UNL     1       7.879  -3.165  23.042  0.00  0.00    +0.006 A 
ATOM     10  C   UNL     1       6.624  -3.389  22.429  0.00  0.00    +0.056 A 
ENDROOT
BRANCH   1  12
ATOM     11  C   UNL     1       3.550  -4.940  23.359  0.00  0.00    +0.277 C 
ATOM     12  O   UNL     1       4.559  -4.692  22.379  0.00  0.00    -0.495 OA
ENDBRANCH   1  12
BRANCH   8  13
ATOM     13  C   UNL     1       9.014  -1.175  21.751  0.00  0.00    +0.052 C 
BRANCH  13  14
ATOM     14  C   UNL     1       9.967  -0.015  22.091  0.00  0.00    +0.089 C 
BRANCH  14  15
ATOM     15  N   UNL     1       9.441   1.362  22.332  0.00  0.00    -0.297 NA
BRANCH  15  16
ATOM     16  C   UNL     1      10.038   1.927  23.594  0.00  0.00    +0.051 C 
ATOM     17  C   UNL     1      10.822   3.239  23.393  0.00  0.00    +0.024 C 
ATOM     18  C   UNL     1      10.895   0.937  24.405  0.00  0.00    +0.024 C 
ENDBRANCH  15  16
BRANCH  15  19
ATOM     19  C   UNL     1       7.943   1.476  22.320  0.00  0.00    +0.051 C 
ATOM     20  C   UNL     1       7.396   2.853  21.904  0.00  0.00    +0.024 C 
ATOM     21  C   UNL     1       7.311   1.184  23.701  0.00  0.00    +0.024 C 
ENDBRANCH  15  19
ENDBRANCH  14  15
ENDBRANCH  13  14
ENDBRANCH   8  13
TORSDOF 6
ENDMDL
MODEL 3
REMARK VINA RESULT:      -5.7      1.866      3.193
REMARK  Name = 
REMARK  11 active torsions:
REMARK  status: ('A' for Active; 'I' for Inactive)
REMARK    1  A    between atoms: C_1  and  O_2
REMARK    2  A    between atoms: O_2  and  C_3
REMARK    3  A    between atoms: C_9  and  C_10
REMARK    4  A    between atoms: C_10  and  C_11
REMARK    5  A    between atoms: C_11  and  N_12
REMARK    6  A    between atoms: N_12  and  C_13
REMARK    7  A    between atoms: N_12  and  C_16
REMARK    8  A    between atoms: C_13  and  C_14
REMARK    9  A    between atoms: C_13  and  C_15
REMARK   10  A    between atoms: C_16  and  C_17
REMARK   11  A    between atoms: C_16  and  C_18
REMARK                            x       y       z     vdW  Elec       q    Type
REMARK                         _______ _______ _______ _____ _____    ______ ____
ROOT
ATOM      1  C   UNL     1       5.809  -4.033  22.930  0.00  0.00    +0.121 A 
ATOM      2  C   UNL     1       6.220  -4.892  23.948  0.00  0.00    +0.047 A 
ATOM      3  C   UNL     1       7.495  -4.788  24.515  0.00  0.00    +0.030 A 
ATOM      4  C   UNL     1       8.341  -3.789  24.024  0.00  0.00    +0.047 A 
ATOM      5  N   UNL     1       9.623  -3.449  24.395  0.00  0.00    -0.360 N 
ATOM      6  H   UNL     1      10.148  -3.913  25.121  0.00  0.00    +0.165 HD
ATOM      7  C   UNL     1      10.086  -2.421  23.619  0.00  0.00    +0.087 A 
ATOM      8  C   UNL     1       9.096  -2.075  22.720  0.00  0.00    -0.021 A 
ATOM      9  C   UNL     1       7.977  -2.934  22.985  0.00  0.00    +0.006 A 
ATOM     10  C   UNL     1       6.689  -3.077  22.419  0.00  0.00    +0.056 A 
ENDROOT
BRANCH   1  12
ATOM     11  C   UNL     1       3.670  -4.918  23.363  0.00  0.00    +0.277 C 
ATOM     12  O   UNL     1       4.536  -4.228  22.461  0.00  0.00    -0.495 OA
ENDBRANCH   1  12
BRANCH   8  13
ATOM     13  C   UNL     1       9.206  -1.051  21.621  0.00  0.00    +0.052 C 
BRANCH  13  14
ATOM     14  C   UNL     1       9.692   0.324  22.115  0.00  0.00    +0.089 C 
BRANCH  14  15
ATOM     15  N   UNL     1       8.878   1.122  23.079  0.00  0.00    -0.297 NA
BRANCH  15  16
ATOM     16  C   UNL     1       8.560   2.472  22.490  0.00  0.00    +0.051 C 
ATOM     17  C   UNL     1       8.890   3.661  23.413  0.00  0.00    +0.024 C 
ATOM     18  C   UNL     1       7.125   2.623  21.953  0.00  0.00    +0.024 C 
ENDBRANCH  15  16
BRANCH  15  19
ATOM     19  C   UNL     1       9.464   1.237  24.457  0.00  0.00    +0.051 C 
ATOM     20  C   UNL     1      10.936   0.803  24.579  0.00  0.00    +0.024 C 
ATOM     21  C   UNL     1       8.701   0.393  25.504  0.00  0.00    +0.024 C 
ENDBRANCH  15  19
ENDBRANCH  14  15
ENDBRANCH  13  14
ENDBRANCH   8  13
TORSDOF 6
ENDMDL
MODEL 4
REMARK VINA RESULT:      -5.7      0.750      1.930
REMARK  Name = 
REMARK  11 active torsions:
REMARK  status: ('A' for Active; 'I' for Inactive)
REMARK    1  A    between atoms: C_1  and  O_2
REMARK    2  A    between atoms: O_2  and  C_3
REMARK    3  A    between atoms: C_9  and  C_10
REMARK    4  A    between atoms: C_10  and  C_11
REMARK    5  A    between atoms: C_11  and  N_12
REMARK    6  A    between atoms: N_12  and  C_13
REMARK    7  A    between atoms: N_12  and  C_16
REMARK    8  A    between atoms: C_13  and  C_14
REMARK    9  A    between atoms: C_13  and  C_15
REMARK   10  A    between atoms: C_16  and  C_17
REMARK   11  A    between atoms: C_16  and  C_18
REMARK                            x       y       z     vdW  Elec       q    Type
REMARK                         _______ _______ _______ _____ _____    ______ ____
ROOT
ATOM      1  C   UNL     1       5.798  -5.490  23.141  0.00  0.00    +0.121 A 
ATOM      2  C   UNL     1       5.143  -6.044  24.239  0.00  0.00    +0.047 A 
ATOM      3  C   UNL     1       5.633  -5.874  25.539  0.00  0.00    +0.030 A 
ATOM      4  C   UNL     1       6.802  -5.124  25.696  0.00  0.00    +0.047 A 
ATOM      5  N   UNL     1       7.494  -4.786  26.837  0.00  0.00    -0.360 N 
ATOM      6  H   UNL     1       7.221  -5.056  27.770  0.00  0.00    +0.165 HD
ATOM      7  C   UNL     1       8.612  -4.063  26.520  0.00  0.00    +0.087 A 
ATOM      8  C   UNL     1       8.662  -3.921  25.146  0.00  0.00    -0.021 A 
ATOM      9  C   UNL     1       7.503  -4.582  24.619  0.00  0.00    +0.006 A 
ATOM     10  C   UNL     1       6.994  -4.789  23.316  0.00  0.00    +0.056 A 
ENDROOT
BRANCH   1  12
ATOM     11  C   UNL     1       6.134  -5.750  20.825  0.00  0.00    +0.277 C 
ATOM     12  O   UNL     1       5.219  -5.719  21.921  0.00  0.00    -0.495 OA
ENDBRANCH   1  12
BRANCH   8  13
ATOM     13  C   UNL     1       9.766  -3.270  24.356  0.00  0.00    +0.052 C 
BRANCH  13  14
ATOM     14  C   UNL     1       9.781  -1.735  24.478  0.00  0.00    +0.089 C 
BRANCH  14  15
ATOM     15  N   UNL     1       9.205  -0.876  23.401  0.00  0.00    -0.297 NA
BRANCH  15  16
ATOM     16  C   UNL     1      10.197   0.187  23.006  0.00  0.00    +0.051 C 
ATOM     17  C   UNL     1      10.786   0.976  24.192  0.00  0.00    +0.024 C 
ATOM     18  C   UNL     1       9.699   1.172  21.933  0.00  0.00    +0.024 C 
ENDBRANCH  15  16
BRANCH  15  19
ATOM     19  C   UNL     1       7.855  -0.295  23.711  0.00  0.00    +0.051 C 
ATOM     20  C   UNL     1       7.479  -0.275  25.203  0.00  0.00    +0.024 C 
ATOM     21  C   UNL     1       6.703  -1.052  23.009  0.00  0.00    +0.024 C 
ENDBRANCH  15  19
ENDBRANCH  14  15
ENDBRANCH  13  14
ENDBRANCH   8  13
TORSDOF 6
ENDMDL
MODEL 5
REMARK VINA RESULT:      -5.7      2.127      3.698
REMARK  Name = 
REMARK  11 active torsions:
REMARK  status: ('A' for Active; 'I' for Inactive)
REMARK    1  A    between atoms: C_1  and  O_2
REMARK    2  A    between atoms: O_2  and  C_3
REMARK    3  A    between atoms: C_9  and  C_10
REMARK    4  A    between atoms: C_10  and  C_11
REMARK    5  A    between atoms: C_11  and  N_12
REMARK    6  A    between atoms: N_12  and  C_13
REMARK    7  A    between atoms: N_12  and  C_16
REMARK    8  A    between atoms: C_13  and  C_14
REMARK    9  A    between atoms: C_13  and  C_15
REMARK   10  A    between atoms: C_16  and  C_17
REMARK   11  A    between atoms: C_16  and  C_18
REMARK                            x       y       z     vdW  Elec       q    Type
REMARK                         _______ _______ _______ _____ _____    ______ ____
ROOT
ATOM      1  C   UNL     1       7.183  -5.370  26.637  0.00  0.00    +0.121 A 
ATOM      2  C   UNL     1       5.978  -5.744  26.043  0.00  0.00    +0.047 A 
ATOM      3  C   UNL     1       5.665  -5.358  24.735  0.00  0.00    +0.030 A 
ATOM      4  C   UNL     1       6.605  -4.588  24.044  0.00  0.00    +0.047 A 
ATOM      5  N   UNL     1       6.573  -4.086  22.763  0.00  0.00    -0.360 N 
ATOM      6  H   UNL     1       5.811  -4.223  22.115  0.00  0.00    +0.165 HD
ATOM      7  C   UNL     1       7.701  -3.354  22.511  0.00  0.00    +0.087 A 
ATOM      8  C   UNL     1       8.492  -3.370  23.643  0.00  0.00    -0.021 A 
ATOM      9  C   UNL     1       7.805  -4.169  24.617  0.00  0.00    +0.006 A 
ATOM     10  C   UNL     1       8.084  -4.556  25.948  0.00  0.00    +0.056 A 
ENDROOT
BRANCH   1  12
ATOM     11  C   UNL     1       6.182  -6.150  28.621  0.00  0.00    +0.277 C 
ATOM     12  O   UNL     1       7.379  -5.814  27.919  0.00  0.00    -0.495 OA
ENDBRANCH   1  12
BRANCH   8  13
ATOM     13  C   UNL     1       9.786  -2.624  23.840  0.00  0.00    +0.052 C 
BRANCH  13  14
ATOM     14  C   UNL     1       9.604  -1.256  24.523  0.00  0.00    +0.089 C 
BRANCH  14  15
ATOM     15  N   UNL     1       8.672  -0.236  23.957  0.00  0.00    -0.297 NA
BRANCH  15  16
ATOM     16  C   UNL     1       9.448   0.973  23.503  0.00  0.00    +0.051 C 
ATOM     17  C   UNL     1       9.701   1.028  21.983  0.00  0.00    +0.024 C 
ATOM     18  C   UNL     1      10.772   1.213  24.251  0.00  0.00    +0.024 C 
ENDBRANCH  15  16
BRANCH  15  19
ATOM     19  C   UNL     1       7.526   0.138  24.854  0.00  0.00    +0.051 C 
ATOM     20  C   UNL     1       7.718  -0.209  26.340  0.00  0.00    +0.024 C 
ATOM     21  C   UNL     1       6.199  -0.542  24.443  0.00  0.00    +0.024 C 
ENDBRANCH  15  19
ENDBRANCH  14  15
ENDBRANCH  13  14
ENDBRANCH   8  13
TORSDOF 6
ENDMDL
MODEL 6
REMARK VINA RESULT:      -5.7      2.843      6.834
REMARK  Name = 
REMARK  11 active torsions:
REMARK  status: ('A' for Active; 'I' for Inactive)
REMARK    1  A    between atoms: C_1  and  O_2
REMARK    2  A    between atoms: O_2  and  C_3
REMARK    3  A    between atoms: C_9  and  C_10
REMARK    4  A    between atoms: C_10  and  C_11
REMARK    5  A    between atoms: C_11  and  N_12
REMARK    6  A    between atoms: N_12  and  C_13
REMARK    7  A    between atoms: N_12  and  C_16
REMARK    8  A    between atoms: C_13  and  C_14
REMARK    9  A    between atoms: C_13  and  C_15
REMARK   10  A    between atoms: C_16  and  C_17
REMARK   11  A    between atoms: C_16  and  C_18
REMARK                            x       y       z     vdW  Elec       q    Type
REMARK                         _______ _______ _______ _____ _____    ______ ____
ROOT
ATOM      1  C   UNL     1       9.074   2.278  24.157  0.00  0.00    +0.121 A 
ATOM      2  C   UNL     1       9.468   2.660  22.876  0.00  0.00    +0.047 A 
ATOM      3  C   UNL     1       9.758   1.709  21.891  0.00  0.00    +0.030 A 
ATOM      4  C   UNL     1       9.636   0.360  22.239  0.00  0.00    +0.047 A 
ATOM      5  N   UNL     1       9.840  -0.774  21.485  0.00  0.00    -0.360 N 
ATOM      6  H   UNL     1      10.121  -0.771  20.516  0.00  0.00    +0.165 HD
ATOM      7  C   UNL     1       9.636  -1.893  22.245  0.00  0.00    +0.087 A 
ATOM      8  C   UNL     1       9.294  -1.495  23.523  0.00  0.00    -0.021 A 
ATOM      9  C   UNL     1       9.278  -0.060  23.519  0.00  0.00    +0.006 A 
ATOM     10  C   UNL     1       9.011   0.925  24.498  0.00  0.00    +0.056 A 
ENDROOT
BRANCH   1  12
ATOM     11  C   UNL     1       8.911   4.606  24.464  0.00  0.00    +0.277 C 
ATOM     12  O   UNL     1       8.811   3.299  25.031  0.00  0.00    -0.495 OA
ENDBRANCH   1  12
BRANCH   8  13
ATOM     13  C   UNL     1       9.066  -2.396  24.708  0.00  0.00    +0.052 C 
BRANCH  13  14
ATOM     14  C   UNL     1       8.528  -3.786  24.323  0.00  0.00    +0.089 C 
BRANCH  14  15
ATOM     15  N   UNL     1       7.075  -4.106  24.446  0.00  0.00    -0.297 NA
BRANCH  15  16
ATOM     16  C   UNL     1       6.884  -5.287  25.361  0.00  0.00    +0.051 C 
ATOM     17  C   UNL     1       5.412  -5.597  25.698  0.00  0.00    +0.024 C 
ATOM     18  C   UNL     1       7.708  -5.239  26.662  0.00  0.00    +0.024 C 
ENDBRANCH  15  16
BRANCH  15  19
ATOM     19  C   UNL     1       6.356  -4.288  23.140  0.00  0.00    +0.051 C 
ATOM     20  C   UNL     1       7.153  -5.030  22.052  0.00  0.00    +0.024 C 
ATOM     21  C   UNL     1       5.937  -2.945  22.496  0.00  0.00    +0.024 C 
ENDBRANCH  15  19
ENDBRANCH  14  15
ENDBRANCH  13  14
ENDBRANCH   8  13
TORSDOF 6
ENDMDL
MODEL 7
REMARK VINA RESULT:      -5.7      0.958      1.850
REMARK  Name = 
REMARK  11 active torsions:
REMARK  status: ('A' for Active; 'I' for Inactive)
REMARK    1  A    between atoms: C_1  and  O_2
REMARK    2  A    between atoms: O_2  and  C_3
REMARK    3  A    between atoms: C_9  and  C_10
REMARK    4  A    between atoms: C_10  and  C_11
REMARK    5  A    between atoms: C_11  and  N_12
REMARK    6  A    between atoms: N_12  and  C_13
REMARK    7  A    between atoms: N_12  and  C_16
REMARK    8  A    between atoms: C_13  and  C_14
REMARK    9  A    between atoms: C_13  and  C_15
REMARK   10  A    between atoms: C_16  and  C_17
REMARK   11  A    between atoms: C_16  and  C_18
REMARK                            x       y       z     vdW  Elec       q    Type
REMARK                         _______ _______ _______ _____ _____    ______ ____
ROOT
ATOM      1  C   UNL     1       5.661  -5.524  23.113  0.00  0.00    +0.121 A 
ATOM      2  C   UNL     1       4.799  -5.935  24.129  0.00  0.00    +0.047 A 
ATOM      3  C   UNL     1       5.183  -5.874  25.474  0.00  0.00    +0.030 A 
ATOM      4  C   UNL     1       6.460  -5.384  25.761  0.00  0.00    +0.047 A 
ATOM      5  N   UNL     1       7.090  -5.200  26.972  0.00  0.00    -0.360 N 
ATOM      6  H   UNL     1       6.676  -5.412  27.867  0.00  0.00    +0.165 HD
ATOM      7  C   UNL     1       8.358  -4.724  26.780  0.00  0.00    +0.087 A 
ATOM      8  C   UNL     1       8.573  -4.590  25.422  0.00  0.00    -0.021 A 
ATOM      9  C   UNL     1       7.360  -4.995  24.770  0.00  0.00    +0.006 A 
ATOM     10  C   UNL     1       6.952  -5.087  23.420  0.00  0.00    +0.056 A 
ENDROOT
BRANCH   1  12
ATOM     11  C   UNL     1       6.168  -5.788  20.829  0.00  0.00    +0.277 C 
ATOM     12  O   UNL     1       5.170  -5.624  21.838  0.00  0.00    -0.495 OA
ENDBRANCH   1  12
BRANCH   8  13
ATOM     13  C   UNL     1       9.860  -4.179  24.757  0.00  0.00    +0.052 C 
BRANCH  13  14
ATOM     14  C   UNL     1       9.782  -2.800  24.076  0.00  0.00    +0.089 C 
BRANCH  14  15
ATOM     15  N   UNL     1       8.746  -1.804  24.481  0.00  0.00    -0.297 NA
BRANCH  15  16
ATOM     16  C   UNL     1       8.125  -1.182  23.258  0.00  0.00    +0.051 C 
ATOM     17  C   UNL     1       6.630  -1.507  23.070  0.00  0.00    +0.024 C 
ATOM     18  C   UNL     1       8.877  -1.451  21.941  0.00  0.00    +0.024 C 
ENDBRANCH  15  16
BRANCH  15  19
ATOM     19  C   UNL     1       9.216  -0.767  25.460  0.00  0.00    +0.051 C 
ATOM     20  C   UNL     1       8.610  -0.876  26.871  0.00  0.00    +0.024 C 
ATOM     21  C   UNL     1       8.912   0.676  24.994  0.00  0.00    +0.024 C 
ENDBRANCH  15  19
ENDBRANCH  14  15
ENDBRANCH  13  14
ENDBRANCH   8  13
TORSDOF 6
ENDMDL
MODEL 8
REMARK VINA RESULT:      -5.6      1.279      2.368
REMARK  Name = 
REMARK  11 active torsions:
REMARK  status: ('A' for Active; 'I' for Inactive)
REMARK    1  A    between atoms: C_1  and  O_2
REMARK    2  A    between atoms: O_2  and  C_3
REMARK    3  A    between atoms: C_9  and  C_10
REMARK    4  A    between atoms: C_10  and  C_11
REMARK    5  A    between atoms: C_11  and  N_12
REMARK    6  A    between atoms: N_12  and  C_13
REMARK    7  A    between atoms: N_12  and  C_16
REMARK    8  A    between atoms: C_13  and  C_14
REMARK    9  A    between atoms: C_13  and  C_15
REMARK   10  A    between atoms: C_16  and  C_17
REMARK   11  A    between atoms: C_16  and  C_18
REMARK                            x       y       z     vdW  Elec       q    Type
REMARK                         _______ _______ _______ _____ _____    ______ ____
ROOT
ATOM      1  C   UNL     1       5.396  -5.620  23.269  0.00  0.00    +0.121 A 
ATOM      2  C   UNL     1       4.454  -6.458  23.864  0.00  0.00    +0.047 A 
ATOM      3  C   UNL     1       4.515  -6.765  25.228  0.00  0.00    +0.030 A 
ATOM      4  C   UNL     1       5.554  -6.199  25.973  0.00  0.00    +0.047 A 
ATOM      5  N   UNL     1       5.850  -6.310  27.313  0.00  0.00    -0.360 N 
ATOM      6  H   UNL     1       5.313  -6.854  27.971  0.00  0.00    +0.165 HD
ATOM      7  C   UNL     1       6.986  -5.608  27.609  0.00  0.00    +0.087 A 
ATOM      8  C   UNL     1       7.451  -5.022  26.447  0.00  0.00    -0.021 A 
ATOM      9  C   UNL     1       6.532  -5.383  25.406  0.00  0.00    +0.006 A 
ATOM     10  C   UNL     1       6.455  -5.107  24.021  0.00  0.00    +0.056 A 
ENDROOT
BRANCH   1  12
ATOM     11  C   UNL     1       6.362  -5.706  21.123  0.00  0.00    +0.277 C 
ATOM     12  O   UNL     1       5.227  -5.388  21.929  0.00  0.00    -0.495 OA
ENDBRANCH   1  12
BRANCH   8  13
ATOM     13  C   UNL     1       8.721  -4.228  26.294  0.00  0.00    +0.052 C 
BRANCH  13  14
ATOM     14  C   UNL     1       8.478  -2.723  26.073  0.00  0.00    +0.089 C 
BRANCH  14  15
ATOM     15  N   UNL     1       8.407  -2.154  24.694  0.00  0.00    -0.297 NA
BRANCH  15  16
ATOM     16  C   UNL     1       9.687  -1.430  24.371  0.00  0.00    +0.051 C 
ATOM     17  C   UNL     1       9.639   0.089  24.629  0.00  0.00    +0.024 C 
ATOM     18  C   UNL     1      10.241  -1.691  22.958  0.00  0.00    +0.024 C 
ENDBRANCH  15  16
BRANCH  15  19
ATOM     19  C   UNL     1       7.198  -1.304  24.425  0.00  0.00    +0.051 C 
ATOM     20  C   UNL     1       6.041  -1.475  25.425  0.00  0.00    +0.024 C 
ATOM     21  C   UNL     1       6.579  -1.570  23.033  0.00  0.00    +0.024 C 
ENDBRANCH  15  19
ENDBRANCH  14  15
ENDBRANCH  13  14
ENDBRANCH   8  13
TORSDOF 6
ENDMDL
MODEL 9
REMARK VINA RESULT:      -5.6      2.845      7.019
REMARK  Name = 
REMARK  11 active torsions:
REMARK  status: ('A' for Active; 'I' for Inactive)
REMARK    1  A    between atoms: C_1  and  O_2
REMARK    2  A    between atoms: O_2  and  C_3
REMARK    3  A    between atoms: C_9  and  C_10
REMARK    4  A    between atoms: C_10  and  C_11
REMARK    5  A    between atoms: C_11  and  N_12
REMARK    6  A    between atoms: N_12  and  C_13
REMARK    7  A    between atoms: N_12  and  C_16
REMARK    8  A    between atoms: C_13  and  C_14
REMARK    9  A    between atoms: C_13  and  C_15
REMARK   10  A    between atoms: C_16  and  C_17
REMARK   11  A    between atoms: C_16  and  C_18
REMARK                            x       y       z     vdW  Elec       q    Type
REMARK                         _______ _______ _______ _____ _____    ______ ____
ROOT
ATOM      1  C   UNL     1       9.029   2.281  24.125  0.00  0.00    +0.121 A 
ATOM      2  C   UNL     1       9.417   2.662  22.841  0.00  0.00    +0.047 A 
ATOM      3  C   UNL     1       9.715   1.708  21.861  0.00  0.00    +0.030 A 
ATOM      4  C   UNL     1       9.606   0.360  22.215  0.00  0.00    +0.047 A 
ATOM      5  N   UNL     1       9.819  -0.775  21.467  0.00  0.00    -0.360 N 
ATOM      6  H   UNL     1      10.100  -0.774  20.497  0.00  0.00    +0.165 HD
ATOM      7  C   UNL     1       9.627  -1.893  22.232  0.00  0.00    +0.087 A 
ATOM      8  C   UNL     1       9.283  -1.492  23.509  0.00  0.00    -0.021 A 
ATOM      9  C   UNL     1       9.253  -0.057  23.498  0.00  0.00    +0.006 A 
ATOM     10  C   UNL     1       8.978   0.930  24.472  0.00  0.00    +0.056 A 
ENDROOT
BRANCH   1  12
ATOM     11  C   UNL     1       9.066   4.607  24.495  0.00  0.00    +0.277 C 
ATOM     12  O   UNL     1       8.757   3.305  24.994  0.00  0.00    -0.495 OA
ENDBRANCH   1  12
BRANCH   8  13
ATOM     13  C   UNL     1       9.064  -2.389  24.698  0.00  0.00    +0.052 C 
BRANCH  13  14
ATOM     14  C   UNL     1       7.672  -3.047  24.719  0.00  0.00    +0.089 C 
BRANCH  14  15
ATOM     15  N   UNL     1       7.491  -4.469  24.302  0.00  0.00    -0.297 NA
BRANCH  15  16
ATOM     16  C   UNL     1       6.596  -4.541  23.092  0.00  0.00    +0.051 C 
ATOM     17  C   UNL     1       7.195  -5.323  21.907  0.00  0.00    +0.024 C 
ATOM     18  C   UNL     1       6.069  -3.182  22.595  0.00  0.00    +0.024 C 
ENDBRANCH  15  16
BRANCH  15  19
ATOM     19  C   UNL     1       7.032  -5.393  25.394  0.00  0.00    +0.051 C 
ATOM     20  C   UNL     1       5.525  -5.341  25.704  0.00  0.00    +0.024 C 
ATOM     21  C   UNL     1       7.737  -5.120  26.743  0.00  0.00    +0.024 C 
ENDBRANCH  15  19
ENDBRANCH  14  15
ENDBRANCH  13  14
ENDBRANCH   8  13
TORSDOF 6
ENDMDL
