MODEL 1
REMARK VINA RESULT:      -7.3      0.000      0.000
REMARK  Name = 
REMARK  9 active torsions:
REMARK  status: ('A' for Active; 'I' for Inactive)
REMARK    1  A    between atoms: C_1  and  C_2
REMARK    2  A    between atoms: C_2  and  C_4
REMARK    3  A    between atoms: C_2  and  N_32
REMARK    4  A    between atoms: C_4  and  O_5
REMARK    5  A    between atoms: O_5  and  C_6
REMARK    6  A    between atoms: C_9  and  C_12
REMARK    7  A    between atoms: C_18  and  O_19
REMARK    8  A    between atoms: C_23  and  C_25
REMARK    9  A    between atoms: C_28  and  O_29
REMARK                            x       y       z     vdW  Elec       q    Type
REMARK                         _______ _______ _______ _____ _____    ______ ____
ROOT
ATOM      1  C   UNL     1       5.450  -1.979  24.778  0.00  0.00    +0.221 C 
ATOM      2  C   UNL     1       5.381  -2.731  23.406  0.00  0.00    +0.126 C 
ATOM      3  S   UNL     1       7.118  -3.035  22.864  0.00  0.00    -0.109 S 
ATOM      4  C   UNL     1       7.754  -3.649  24.409  0.00  0.00    +0.054 A 
ATOM      5  C   UNL     1       7.074  -3.524  25.629  0.00  0.00    +0.135 A 
ATOM      6  C   UNL     1       7.604  -4.103  26.786  0.00  0.00    +0.050 A 
ATOM      7  C   UNL     1       8.823  -4.775  26.745  0.00  0.00    +0.049 A 
ATOM      8  C   UNL     1       9.507  -4.864  25.536  0.00  0.00    +0.118 A 
ATOM      9  C   UNL     1       8.982  -4.313  24.375  0.00  0.00    +0.063 A 
ATOM     10  O   UNL     1       5.882  -2.872  25.830  0.00  0.00    -0.482 OA
ENDROOT
BRANCH   1  14
ATOM     11  C   UNL     1       7.630   1.785  25.007  0.00  0.00    +0.121 A 
ATOM     12  C   UNL     1       7.677   0.887  26.071  0.00  0.00    +0.046 A 
ATOM     13  C   UNL     1       6.960  -0.314  26.006  0.00  0.00    +0.011 A 
ATOM     14  C   UNL     1       6.197  -0.648  24.868  0.00  0.00    -0.006 A 
ATOM     15  C   UNL     1       6.113   0.289  23.839  0.00  0.00    +0.011 A 
ATOM     16  C   UNL     1       6.836   1.474  23.899  0.00  0.00    +0.046 A 
BRANCH  11  17
ATOM     17  O   UNL     1       8.384   2.929  25.127  0.00  0.00    -0.490 OA
BRANCH  17  18
ATOM     18  C   UNL     1       9.077   3.262  23.918  0.00  0.00    +0.247 C 
BRANCH  18  20
ATOM     19  C   UNL     1      11.438   3.891  23.395  0.00  0.00    +0.027 C 
ATOM     20  C   UNL     1      10.528   2.748  23.869  0.00  0.00    +0.091 C 
BRANCH  20  21
ATOM     21  N   UNL     1      10.627   1.575  22.963  0.00  0.00    -0.296 NA
ATOM     22  C   UNL     1       9.692   1.608  21.827  0.00  0.00    +0.085 C 
ATOM     23  C   UNL     1       9.304   0.167  21.538  0.00  0.00    +0.017 C 
ATOM     24  C   UNL     1      10.146  -0.660  22.487  0.00  0.00    +0.017 C 
ATOM     25  C   UNL     1      10.425   0.292  23.637  0.00  0.00    +0.085 C 
ENDBRANCH  20  21
ENDBRANCH  18  20
ENDBRANCH  17  18
ENDBRANCH  11  17
ENDBRANCH   1  14
BRANCH   2  26
ATOM     26  C   UNL     1       4.534  -4.019  23.413  0.00  0.00    -0.030 A 
ATOM     27  C   UNL     1       3.269  -4.069  24.031  0.00  0.00    +0.008 A 
ATOM     28  C   UNL     1       2.473  -5.214  23.959  0.00  0.00    +0.046 A 
ATOM     29  C   UNL     1       2.945  -6.339  23.302  0.00  0.00    +0.117 A 
ATOM     30  C   UNL     1       4.218  -6.352  22.751  0.00  0.00    +0.046 A 
ATOM     31  C   UNL     1       5.009  -5.204  22.819  0.00  0.00    +0.008 A 
BRANCH  29  32
ATOM     32  O   UNL     1       2.124  -7.421  23.209  0.00  0.00    -0.507 OA
ATOM     33  H   UNL     1       1.298  -7.142  22.781  0.00  0.00    +0.292 HD
ENDBRANCH  29  32
ENDBRANCH   2  26
BRANCH   8  34
ATOM     34  O   UNL     1      10.706  -5.505  25.445  0.00  0.00    -0.507 OA
ATOM     35  H   UNL     1      10.763  -6.163  26.154  0.00  0.00    +0.292 HD
ENDBRANCH   8  34
TORSDOF 8
ENDMDL
MODEL 2
REMARK VINA RESULT:      -7.2      2.484      4.000
REMARK  Name = 
REMARK  9 active torsions:
REMARK  status: ('A' for Active; 'I' for Inactive)
REMARK    1  A    between atoms: C_1  and  C_2
REMARK    2  A    between atoms: C_2  and  C_4
REMARK    3  A    between atoms: C_2  and  N_32
REMARK    4  A    between atoms: C_4  and  O_5
REMARK    5  A    between atoms: O_5  and  C_6
REMARK    6  A    between atoms: C_9  and  C_12
REMARK    7  A    between atoms: C_18  and  O_19
REMARK    8  A    between atoms: C_23  and  C_25
REMARK    9  A    between atoms: C_28  and  O_29
REMARK                            x       y       z     vdW  Elec       q    Type
REMARK                         _______ _______ _______ _____ _____    ______ ____
ROOT
ATOM      1  C   UNL     1       7.915  -3.531  25.949  0.00  0.00    +0.221 C 
ATOM      2  C   UNL     1       6.391  -3.348  26.258  0.00  0.00    +0.126 C 
ATOM      3  S   UNL     1       5.563  -2.899  24.672  0.00  0.00    -0.109 S 
ATOM      4  C   UNL     1       6.323  -4.135  23.640  0.00  0.00    +0.054 A 
ATOM      5  C   UNL     1       7.441  -4.887  24.029  0.00  0.00    +0.135 A 
ATOM      6  C   UNL     1       7.930  -5.894  23.193  0.00  0.00    +0.050 A 
ATOM      7  C   UNL     1       7.337  -6.136  21.956  0.00  0.00    +0.049 A 
ATOM      8  C   UNL     1       6.250  -5.362  21.564  0.00  0.00    +0.118 A 
ATOM      9  C   UNL     1       5.739  -4.372  22.394  0.00  0.00    +0.063 A 
ATOM     10  O   UNL     1       8.143  -4.747  25.201  0.00  0.00    -0.482 OA
ENDROOT
BRANCH   1  14
ATOM     11  C   UNL     1      10.102  -0.212  24.166  0.00  0.00    +0.121 A 
ATOM     12  C   UNL     1      10.155  -1.475  23.581  0.00  0.00    +0.046 A 
ATOM     13  C   UNL     1       9.468  -2.547  24.166  0.00  0.00    +0.011 A 
ATOM     14  C   UNL     1       8.701  -2.372  25.336  0.00  0.00    -0.006 A 
ATOM     15  C   UNL     1       8.709  -1.115  25.940  0.00  0.00    +0.011 A 
ATOM     16  C   UNL     1       9.379  -0.050  25.351  0.00  0.00    +0.046 A 
BRANCH  11  17
ATOM     17  O   UNL     1      10.774   0.799  23.520  0.00  0.00    -0.490 OA
BRANCH  17  18
ATOM     18  C   UNL     1      10.058   1.300  22.385  0.00  0.00    +0.247 C 
BRANCH  18  20
ATOM     19  C   UNL     1      10.513   3.449  23.577  0.00  0.00    +0.027 C 
ATOM     20  C   UNL     1       9.629   2.773  22.519  0.00  0.00    +0.091 C 
BRANCH  20  21
ATOM     21  N   UNL     1       8.193   2.859  22.889  0.00  0.00    -0.296 NA
ATOM     22  C   UNL     1       7.952   3.137  24.314  0.00  0.00    +0.085 C 
ATOM     23  C   UNL     1       6.674   2.407  24.694  0.00  0.00    +0.017 C 
ATOM     24  C   UNL     1       6.169   1.811  23.397  0.00  0.00    +0.017 C 
ATOM     25  C   UNL     1       7.427   1.655  22.562  0.00  0.00    +0.085 C 
ENDBRANCH  20  21
ENDBRANCH  18  20
ENDBRANCH  17  18
ENDBRANCH  11  17
ENDBRANCH   1  14
BRANCH   2  26
ATOM     26  C   UNL     1       5.719  -4.551  26.950  0.00  0.00    -0.030 A 
ATOM     27  C   UNL     1       6.399  -5.326  27.910  0.00  0.00    +0.008 A 
ATOM     28  C   UNL     1       5.756  -6.361  28.593  0.00  0.00    +0.046 A 
ATOM     29  C   UNL     1       4.436  -6.661  28.299  0.00  0.00    +0.117 A 
ATOM     30  C   UNL     1       3.761  -5.972  27.303  0.00  0.00    +0.046 A 
ATOM     31  C   UNL     1       4.404  -4.934  26.627  0.00  0.00    +0.008 A 
BRANCH  29  32
ATOM     32  O   UNL     1       3.826  -7.644  29.018  0.00  0.00    -0.507 OA
ATOM     33  H   UNL     1       4.409  -8.419  29.032  0.00  0.00    +0.292 HD
ENDBRANCH  29  32
ENDBRANCH   2  26
BRANCH   8  34
ATOM     34  O   UNL     1       5.639  -5.555  20.361  0.00  0.00    -0.507 OA
ATOM     35  H   UNL     1       4.880  -6.143  20.486  0.00  0.00    +0.292 HD
ENDBRANCH   8  34
TORSDOF 8
ENDMDL
MODEL 3
REMARK VINA RESULT:      -7.1      2.500      3.434
REMARK  Name = 
REMARK  9 active torsions:
REMARK  status: ('A' for Active; 'I' for Inactive)
REMARK    1  A    between atoms: C_1  and  C_2
REMARK    2  A    between atoms: C_2  and  C_4
REMARK    3  A    between atoms: C_2  and  N_32
REMARK    4  A    between atoms: C_4  and  O_5
REMARK    5  A    between atoms: O_5  and  C_6
REMARK    6  A    between atoms: C_9  and  C_12
REMARK    7  A    between atoms: C_18  and  O_19
REMARK    8  A    between atoms: C_23  and  C_25
REMARK    9  A    between atoms: C_28  and  O_29
REMARK                            x       y       z     vdW  Elec       q    Type
REMARK                         _______ _______ _______ _____ _____    ______ ____
ROOT
ATOM      1  C   UNL     1       6.878  -2.811  26.759  0.00  0.00    +0.221 C 
ATOM      2  C   UNL     1       5.325  -2.985  26.861  0.00  0.00    +0.126 C 
ATOM      3  S   UNL     1       4.628  -2.651  25.187  0.00  0.00    -0.109 S 
ATOM      4  C   UNL     1       5.772  -3.635  24.243  0.00  0.00    +0.054 A 
ATOM      5  C   UNL     1       6.972  -4.140  24.765  0.00  0.00    +0.135 A 
ATOM      6  C   UNL     1       7.778  -4.972  23.984  0.00  0.00    +0.050 A 
ATOM      7  C   UNL     1       7.418  -5.277  22.673  0.00  0.00    +0.049 A 
ATOM      8  C   UNL     1       6.243  -4.743  22.152  0.00  0.00    +0.118 A 
ATOM      9  C   UNL     1       5.421  -3.933  22.925  0.00  0.00    +0.063 A 
ATOM     10  O   UNL     1       7.469  -3.907  26.024  0.00  0.00    -0.482 OA
ENDROOT
BRANCH   1  14
ATOM     11  C   UNL     1       8.514   0.968  25.337  0.00  0.00    +0.121 A 
ATOM     12  C   UNL     1       9.367  -0.095  25.625  0.00  0.00    +0.046 A 
ATOM     13  C   UNL     1       8.842  -1.304  26.101  0.00  0.00    +0.011 A 
ATOM     14  C   UNL     1       7.454  -1.477  26.281  0.00  0.00    -0.006 A 
ATOM     15  C   UNL     1       6.623  -0.383  26.044  0.00  0.00    +0.011 A 
ATOM     16  C   UNL     1       7.143   0.810  25.559  0.00  0.00    +0.046 A 
BRANCH  11  17
ATOM     17  O   UNL     1       9.094   2.113  24.842  0.00  0.00    -0.490 OA
BRANCH  17  18
ATOM     18  C   UNL     1      10.147   1.839  23.910  0.00  0.00    +0.247 C 
BRANCH  18  20
ATOM     19  C   UNL     1       8.425   2.738  22.337  0.00  0.00    +0.027 C 
ATOM     20  C   UNL     1       9.704   1.892  22.436  0.00  0.00    +0.091 C 
BRANCH  20  21
ATOM     21  N   UNL     1       9.477   0.519  21.918  0.00  0.00    -0.296 NA
ATOM     22  C   UNL     1       8.101   0.026  22.095  0.00  0.00    +0.085 C 
ATOM     23  C   UNL     1       8.199  -1.473  22.331  0.00  0.00    +0.017 C 
ATOM     24  C   UNL     1       9.670  -1.795  22.168  0.00  0.00    +0.017 C 
ATOM     25  C   UNL     1      10.362  -0.487  22.508  0.00  0.00    +0.085 C 
ENDBRANCH  20  21
ENDBRANCH  18  20
ENDBRANCH  17  18
ENDBRANCH  11  17
ENDBRANCH   1  14
BRANCH   2  26
ATOM     26  C   UNL     1       4.860  -4.339  27.432  0.00  0.00    -0.030 A 
ATOM     27  C   UNL     1       5.474  -4.917  28.561  0.00  0.00    +0.008 A 
ATOM     28  C   UNL     1       4.991  -6.101  29.121  0.00  0.00    +0.046 A 
ATOM     29  C   UNL     1       3.912  -6.746  28.539  0.00  0.00    +0.117 A 
ATOM     30  C   UNL     1       3.334  -6.249  27.380  0.00  0.00    +0.046 A 
ATOM     31  C   UNL     1       3.815  -5.062  26.826  0.00  0.00    +0.008 A 
BRANCH  29  32
ATOM     32  O   UNL     1       3.437  -7.873  29.139  0.00  0.00    -0.507 OA
ATOM     33  H   UNL     1       2.864  -8.336  28.507  0.00  0.00    +0.292 HD
ENDBRANCH  29  32
ENDBRANCH   2  26
BRANCH   8  34
ATOM     34  O   UNL     1       5.850  -5.006  20.874  0.00  0.00    -0.507 OA
ATOM     35  H   UNL     1       5.267  -5.779  20.879  0.00  0.00    +0.292 HD
ENDBRANCH   8  34
TORSDOF 8
ENDMDL
MODEL 4
REMARK VINA RESULT:      -7.1      2.496      4.089
REMARK  Name = 
REMARK  9 active torsions:
REMARK  status: ('A' for Active; 'I' for Inactive)
REMARK    1  A    between atoms: C_1  and  C_2
REMARK    2  A    between atoms: C_2  and  C_4
REMARK    3  A    between atoms: C_2  and  N_32
REMARK    4  A    between atoms: C_4  and  O_5
REMARK    5  A    between atoms: O_5  and  C_6
REMARK    6  A    between atoms: C_9  and  C_12
REMARK    7  A    between atoms: C_18  and  O_19
REMARK    8  A    between atoms: C_23  and  C_25
REMARK    9  A    between atoms: C_28  and  O_29
REMARK                            x       y       z     vdW  Elec       q    Type
REMARK                         _______ _______ _______ _____ _____    ______ ____
ROOT
ATOM      1  C   UNL     1       7.526  -3.568  26.072  0.00  0.00    +0.221 C 
ATOM      2  C   UNL     1       5.992  -3.301  26.238  0.00  0.00    +0.126 C 
ATOM      3  S   UNL     1       5.377  -2.642  24.629  0.00  0.00    -0.109 S 
ATOM      4  C   UNL     1       6.165  -3.827  23.560  0.00  0.00    +0.054 A 
ATOM      5  C   UNL     1       7.182  -4.695  23.984  0.00  0.00    +0.135 A 
ATOM      6  C   UNL     1       7.694  -5.652  23.104  0.00  0.00    +0.050 A 
ATOM      7  C   UNL     1       7.228  -5.729  21.794  0.00  0.00    +0.049 A 
ATOM      8  C   UNL     1       6.243  -4.841  21.372  0.00  0.00    +0.118 A 
ATOM      9  C   UNL     1       5.709  -3.900  22.242  0.00  0.00    +0.063 A 
ATOM     10  O   UNL     1       7.757  -4.721  25.231  0.00  0.00    -0.482 OA
ENDROOT
BRANCH   1  14
ATOM     11  C   UNL     1      10.106  -0.266  24.882  0.00  0.00    +0.121 A 
ATOM     12  C   UNL     1      10.053  -1.422  24.107  0.00  0.00    +0.046 A 
ATOM     13  C   UNL     1       9.238  -2.492  24.500  0.00  0.00    +0.011 A 
ATOM     14  C   UNL     1       8.449  -2.418  25.667  0.00  0.00    -0.006 A 
ATOM     15  C   UNL     1       8.561  -1.278  26.461  0.00  0.00    +0.011 A 
ATOM     16  C   UNL     1       9.358  -0.212  26.062  0.00  0.00    +0.046 A 
BRANCH  11  17
ATOM     17  O   UNL     1      10.901   0.756  24.419  0.00  0.00    -0.490 OA
BRANCH  17  18
ATOM     18  C   UNL     1      10.247   1.559  23.429  0.00  0.00    +0.247 C 
BRANCH  18  20
ATOM     19  C   UNL     1       7.931   2.480  23.607  0.00  0.00    +0.027 C 
ATOM     20  C   UNL     1       9.396   2.701  24.014  0.00  0.00    +0.091 C 
BRANCH  20  21
ATOM     21  N   UNL     1       9.893   4.013  23.527  0.00  0.00    -0.296 NA
ATOM     22  C   UNL     1      11.355   4.085  23.369  0.00  0.00    +0.085 C 
ATOM     23  C   UNL     1      11.762   5.513  23.701  0.00  0.00    +0.017 C 
ATOM     24  C   UNL     1      10.456   6.242  23.938  0.00  0.00    +0.017 C 
ATOM     25  C   UNL     1       9.506   5.141  24.376  0.00  0.00    +0.085 C 
ENDBRANCH  20  21
ENDBRANCH  18  20
ENDBRANCH  17  18
ENDBRANCH  11  17
ENDBRANCH   1  14
BRANCH   2  26
ATOM     26  C   UNL     1       5.172  -4.510  26.729  0.00  0.00    -0.030 A 
ATOM     27  C   UNL     1       5.659  -5.379  27.725  0.00  0.00    +0.008 A 
ATOM     28  C   UNL     1       4.874  -6.422  28.224  0.00  0.00    +0.046 A 
ATOM     29  C   UNL     1       3.607  -6.635  27.707  0.00  0.00    +0.117 A 
ATOM     30  C   UNL     1       3.126  -5.849  26.670  0.00  0.00    +0.046 A 
ATOM     31  C   UNL     1       3.910  -4.804  26.178  0.00  0.00    +0.008 A 
BRANCH  29  32
ATOM     32  O   UNL     1       2.851  -7.629  28.249  0.00  0.00    -0.507 OA
ATOM     33  H   UNL     1       3.317  -8.471  28.121  0.00  0.00    +0.292 HD
ENDBRANCH  29  32
ENDBRANCH   2  26
BRANCH   8  34
ATOM     34  O   UNL     1       5.758  -4.872  20.099  0.00  0.00    -0.507 OA
ATOM     35  H   UNL     1       4.942  -5.394  20.087  0.00  0.00    +0.292 HD
ENDBRANCH   8  34
TORSDOF 8
ENDMDL
MODEL 5
REMARK VINA RESULT:      -6.8      3.410      7.547
REMARK  Name = 
REMARK  9 active torsions:
REMARK  status: ('A' for Active; 'I' for Inactive)
REMARK    1  A    between atoms: C_1  and  C_2
REMARK    2  A    between atoms: C_2  and  C_4
REMARK    3  A    between atoms: C_2  and  N_32
REMARK    4  A    between atoms: C_4  and  O_5
REMARK    5  A    between atoms: O_5  and  C_6
REMARK    6  A    between atoms: C_9  and  C_12
REMARK    7  A    between atoms: C_18  and  O_19
REMARK    8  A    between atoms: C_23  and  C_25
REMARK    9  A    between atoms: C_28  and  O_29
REMARK                            x       y       z     vdW  Elec       q    Type
REMARK                         _______ _______ _______ _____ _____    ______ ____
ROOT
ATOM      1  C   UNL     1       5.770  -1.186  24.939  0.00  0.00    +0.221 C 
ATOM      2  C   UNL     1       7.014  -0.382  25.448  0.00  0.00    +0.126 C 
ATOM      3  S   UNL     1       7.996  -1.517  26.519  0.00  0.00    -0.109 S 
ATOM      4  C   UNL     1       7.984  -2.938  25.447  0.00  0.00    +0.054 A 
ATOM      5  C   UNL     1       7.134  -3.064  24.338  0.00  0.00    +0.135 A 
ATOM      6  C   UNL     1       7.241  -4.176  23.499  0.00  0.00    +0.050 A 
ATOM      7  C   UNL     1       8.164  -5.183  23.775  0.00  0.00    +0.049 A 
ATOM      8  C   UNL     1       8.979  -5.066  24.896  0.00  0.00    +0.118 A 
ATOM      9  C   UNL     1       8.899  -3.955  25.726  0.00  0.00    +0.063 A 
ATOM     10  O   UNL     1       6.163  -2.170  23.957  0.00  0.00    -0.482 OA
ENDROOT
BRANCH   1  14
ATOM     11  C   UNL     1       3.070  -2.990  27.845  0.00  0.00    +0.121 A 
ATOM     12  C   UNL     1       2.952  -3.307  26.493  0.00  0.00    +0.046 A 
ATOM     13  C   UNL     1       3.807  -2.711  25.557  0.00  0.00    +0.011 A 
ATOM     14  C   UNL     1       4.808  -1.802  25.956  0.00  0.00    -0.006 A 
ATOM     15  C   UNL     1       4.872  -1.451  27.304  0.00  0.00    +0.011 A 
ATOM     16  C   UNL     1       4.032  -2.053  28.234  0.00  0.00    +0.046 A 
BRANCH  11  17
ATOM     17  O   UNL     1       2.220  -3.636  28.711  0.00  0.00    -0.490 OA
BRANCH  17  18
ATOM     18  C   UNL     1       2.039  -5.017  28.378  0.00  0.00    +0.247 C 
BRANCH  18  20
ATOM     19  C   UNL     1       3.483  -5.231  30.406  0.00  0.00    +0.027 C 
ATOM     20  C   UNL     1       2.944  -5.975  29.174  0.00  0.00    +0.091 C 
BRANCH  20  21
ATOM     21  N   UNL     1       4.055  -6.463  28.318  0.00  0.00    -0.296 NA
ATOM     22  C   UNL     1       5.270  -5.634  28.374  0.00  0.00    +0.085 C 
ATOM     23  C   UNL     1       5.903  -5.691  26.992  0.00  0.00    +0.017 C 
ATOM     24  C   UNL     1       5.047  -6.669  26.214  0.00  0.00    +0.017 C 
ATOM     25  C   UNL     1       3.697  -6.590  26.904  0.00  0.00    +0.085 C 
ENDBRANCH  20  21
ENDBRANCH  18  20
ENDBRANCH  17  18
ENDBRANCH  11  17
ENDBRANCH   1  14
BRANCH   2  26
ATOM     26  C   UNL     1       7.867   0.264  24.338  0.00  0.00    -0.030 A 
ATOM     27  C   UNL     1       7.283   0.810  23.178  0.00  0.00    +0.008 A 
ATOM     28  C   UNL     1       8.056   1.468  22.219  0.00  0.00    +0.046 A 
ATOM     29  C   UNL     1       9.428   1.555  22.384  0.00  0.00    +0.117 A 
ATOM     30  C   UNL     1      10.046   0.959  23.474  0.00  0.00    +0.046 A 
ATOM     31  C   UNL     1       9.271   0.308  24.434  0.00  0.00    +0.008 A 
BRANCH  29  32
ATOM     32  O   UNL     1      10.145   2.244  21.454  0.00  0.00    -0.507 OA
ATOM     33  H   UNL     1      10.948   1.739  21.252  0.00  0.00    +0.292 HD
ENDBRANCH  29  32
ENDBRANCH   2  26
BRANCH   8  34
ATOM     34  O   UNL     1       9.892  -6.026  25.212  0.00  0.00    -0.507 OA
ATOM     35  H   UNL     1      10.010  -6.042  26.173  0.00  0.00    +0.292 HD
ENDBRANCH   8  34
TORSDOF 8
ENDMDL
MODEL 6
REMARK VINA RESULT:      -6.6      2.642      8.150
REMARK  Name = 
REMARK  9 active torsions:
REMARK  status: ('A' for Active; 'I' for Inactive)
REMARK    1  A    between atoms: C_1  and  C_2
REMARK    2  A    between atoms: C_2  and  C_4
REMARK    3  A    between atoms: C_2  and  N_32
REMARK    4  A    between atoms: C_4  and  O_5
REMARK    5  A    between atoms: O_5  and  C_6
REMARK    6  A    between atoms: C_9  and  C_12
REMARK    7  A    between atoms: C_18  and  O_19
REMARK    8  A    between atoms: C_23  and  C_25
REMARK    9  A    between atoms: C_28  and  O_29
REMARK                            x       y       z     vdW  Elec       q    Type
REMARK                         _______ _______ _______ _____ _____    ______ ____
ROOT
ATOM      1  C   UNL     1       9.150  -0.324  23.888  0.00  0.00    +0.221 C 
ATOM      2  C   UNL     1       8.583   0.870  23.047  0.00  0.00    +0.126 C 
ATOM      3  S   UNL     1       6.756   0.892  23.297  0.00  0.00    -0.109 S 
ATOM      4  C   UNL     1       6.747   0.709  25.067  0.00  0.00    +0.054 A 
ATOM      5  C   UNL     1       7.873   0.325  25.811  0.00  0.00    +0.135 A 
ATOM      6  C   UNL     1       7.806   0.281  27.206  0.00  0.00    +0.050 A 
ATOM      7  C   UNL     1       6.617   0.582  27.867  0.00  0.00    +0.049 A 
ATOM      8  C   UNL     1       5.496   0.929  27.119  0.00  0.00    +0.118 A 
ATOM      9  C   UNL     1       5.554   0.998  25.733  0.00  0.00    +0.063 A 
ATOM     10  O   UNL     1       9.100  -0.023  25.302  0.00  0.00    -0.482 OA
ENDROOT
BRANCH   1  14
ATOM     11  C   UNL     1       7.631  -4.343  23.173  0.00  0.00    +0.121 A 
ATOM     12  C   UNL     1       8.466  -4.098  24.261  0.00  0.00    +0.046 A 
ATOM     13  C   UNL     1       8.970  -2.809  24.480  0.00  0.00    +0.011 A 
ATOM     14  C   UNL     1       8.635  -1.739  23.625  0.00  0.00    -0.006 A 
ATOM     15  C   UNL     1       7.848  -2.017  22.508  0.00  0.00    +0.011 A 
ATOM     16  C   UNL     1       7.336  -3.292  22.301  0.00  0.00    +0.046 A 
BRANCH  11  17
ATOM     17  O   UNL     1       7.146  -5.623  23.039  0.00  0.00    -0.490 OA
BRANCH  17  18
ATOM     18  C   UNL     1       5.726  -5.697  23.211  0.00  0.00    +0.247 C 
BRANCH  18  20
ATOM     19  C   UNL     1       4.201  -7.135  24.571  0.00  0.00    +0.027 C 
ATOM     20  C   UNL     1       5.289  -6.053  24.644  0.00  0.00    +0.091 C 
BRANCH  20  21
ATOM     21  N   UNL     1       4.791  -4.842  25.345  0.00  0.00    -0.296 NA
ATOM     22  C   UNL     1       4.430  -3.731  24.449  0.00  0.00    +0.085 C 
ATOM     23  C   UNL     1       4.758  -2.445  25.192  0.00  0.00    +0.017 C 
ATOM     24  C   UNL     1       5.208  -2.896  26.567  0.00  0.00    +0.017 C 
ATOM     25  C   UNL     1       5.731  -4.301  26.328  0.00  0.00    +0.085 C 
ENDBRANCH  20  21
ENDBRANCH  18  20
ENDBRANCH  17  18
ENDBRANCH  11  17
ENDBRANCH   1  14
BRANCH   2  26
ATOM     26  C   UNL     1       9.233   2.237  23.340  0.00  0.00    -0.030 A 
ATOM     27  C   UNL     1      10.630   2.418  23.293  0.00  0.00    +0.008 A 
ATOM     28  C   UNL     1      11.203   3.678  23.477  0.00  0.00    +0.046 A 
ATOM     29  C   UNL     1      10.393   4.768  23.748  0.00  0.00    +0.117 A 
ATOM     30  C   UNL     1       9.021   4.612  23.880  0.00  0.00    +0.046 A 
ATOM     31  C   UNL     1       8.450   3.353  23.690  0.00  0.00    +0.008 A 
BRANCH  29  32
ATOM     32  O   UNL     1      10.981   5.990  23.873  0.00  0.00    -0.507 OA
ATOM     33  H   UNL     1      11.472   6.178  23.057  0.00  0.00    +0.292 HD
ENDBRANCH  29  32
ENDBRANCH   2  26
BRANCH   8  34
ATOM     34  O   UNL     1       4.309   1.226  27.717  0.00  0.00    -0.507 OA
ATOM     35  H   UNL     1       3.846   1.887  27.182  0.00  0.00    +0.292 HD
ENDBRANCH   8  34
TORSDOF 8
ENDMDL
MODEL 7
REMARK VINA RESULT:      -6.5      2.705      8.557
REMARK  Name = 
REMARK  9 active torsions:
REMARK  status: ('A' for Active; 'I' for Inactive)
REMARK    1  A    between atoms: C_1  and  C_2
REMARK    2  A    between atoms: C_2  and  C_4
REMARK    3  A    between atoms: C_2  and  N_32
REMARK    4  A    between atoms: C_4  and  O_5
REMARK    5  A    between atoms: O_5  and  C_6
REMARK    6  A    between atoms: C_9  and  C_12
REMARK    7  A    between atoms: C_18  and  O_19
REMARK    8  A    between atoms: C_23  and  C_25
REMARK    9  A    between atoms: C_28  and  O_29
REMARK                            x       y       z     vdW  Elec       q    Type
REMARK                         _______ _______ _______ _____ _____    ______ ____
ROOT
ATOM      1  C   UNL     1       9.262   0.413  23.997  0.00  0.00    +0.221 C 
ATOM      2  C   UNL     1       8.965   1.476  22.886  0.00  0.00    +0.126 C 
ATOM      3  S   UNL     1       7.154   1.417  22.544  0.00  0.00    -0.109 S 
ATOM      4  C   UNL     1       6.585   1.419  24.231  0.00  0.00    +0.054 A 
ATOM      5  C   UNL     1       7.424   1.183  25.330  0.00  0.00    +0.135 A 
ATOM      6  C   UNL     1       6.916   1.281  26.628  0.00  0.00    +0.050 A 
ATOM      7  C   UNL     1       5.572   1.579  26.841  0.00  0.00    +0.049 A 
ATOM      8  C   UNL     1       4.741   1.779  25.744  0.00  0.00    +0.118 A 
ATOM      9  C   UNL     1       5.236   1.706  24.448  0.00  0.00    +0.063 A 
ATOM     10  O   UNL     1       8.756   0.856  25.277  0.00  0.00    -0.482 OA
ENDROOT
BRANCH   1  14
ATOM     11  C   UNL     1       8.141  -3.741  23.317  0.00  0.00    +0.121 A 
ATOM     12  C   UNL     1       8.505  -3.319  24.593  0.00  0.00    +0.046 A 
ATOM     13  C   UNL     1       8.885  -1.987  24.807  0.00  0.00    +0.011 A 
ATOM     14  C   UNL     1       8.890  -1.050  23.754  0.00  0.00    -0.006 A 
ATOM     15  C   UNL     1       8.580  -1.506  22.473  0.00  0.00    +0.011 A 
ATOM     16  C   UNL     1       8.190  -2.823  22.264  0.00  0.00    +0.046 A 
BRANCH  11  17
ATOM     17  O   UNL     1       7.748  -5.053  23.186  0.00  0.00    -0.490 OA
BRANCH  17  18
ATOM     18  C   UNL     1       6.459  -5.303  23.758  0.00  0.00    +0.247 C 
BRANCH  18  20
ATOM     19  C   UNL     1       6.030  -5.855  21.359  0.00  0.00    +0.027 C 
ATOM     20  C   UNL     1       5.457  -5.945  22.782  0.00  0.00    +0.091 C 
BRANCH  20  21
ATOM     21  N   UNL     1       4.142  -5.259  22.871  0.00  0.00    -0.296 NA
ATOM     22  C   UNL     1       4.043  -4.283  23.968  0.00  0.00    +0.085 C 
ATOM     23  C   UNL     1       2.603  -4.316  24.455  0.00  0.00    +0.017 C 
ATOM     24  C   UNL     1       1.896  -5.267  23.512  0.00  0.00    +0.017 C 
ATOM     25  C   UNL     1       3.009  -6.175  23.020  0.00  0.00    +0.085 C 
ENDBRANCH  20  21
ENDBRANCH  18  20
ENDBRANCH  17  18
ENDBRANCH  11  17
ENDBRANCH   1  14
BRANCH   2  26
ATOM     26  C   UNL     1       9.456   2.902  23.204  0.00  0.00    -0.030 A 
ATOM     27  C   UNL     1       8.559   3.979  23.346  0.00  0.00    +0.008 A 
ATOM     28  C   UNL     1       9.005   5.249  23.717  0.00  0.00    +0.046 A 
ATOM     29  C   UNL     1      10.357   5.472  23.915  0.00  0.00    +0.117 A 
ATOM     30  C   UNL     1      11.277   4.455  23.706  0.00  0.00    +0.046 A 
ATOM     31  C   UNL     1      10.828   3.185  23.341  0.00  0.00    +0.008 A 
BRANCH  29  32
ATOM     32  O   UNL     1      10.752   6.709  24.323  0.00  0.00    -0.507 OA
ATOM     33  H   UNL     1      11.714   6.774  24.214  0.00  0.00    +0.292 HD
ENDBRANCH  29  32
ENDBRANCH   2  26
BRANCH   8  34
ATOM     34  O   UNL     1       3.418   2.066  25.899  0.00  0.00    -0.507 OA
ATOM     35  H   UNL     1       3.167   1.894  26.819  0.00  0.00    +0.292 HD
ENDBRANCH   8  34
TORSDOF 8
ENDMDL
MODEL 8
REMARK VINA RESULT:      -6.2      3.040      5.301
REMARK  Name = 
REMARK  9 active torsions:
REMARK  status: ('A' for Active; 'I' for Inactive)
REMARK    1  A    between atoms: C_1  and  C_2
REMARK    2  A    between atoms: C_2  and  C_4
REMARK    3  A    between atoms: C_2  and  N_32
REMARK    4  A    between atoms: C_4  and  O_5
REMARK    5  A    between atoms: O_5  and  C_6
REMARK    6  A    between atoms: C_9  and  C_12
REMARK    7  A    between atoms: C_18  and  O_19
REMARK    8  A    between atoms: C_23  and  C_25
REMARK    9  A    between atoms: C_28  and  O_29
REMARK                            x       y       z     vdW  Elec       q    Type
REMARK                         _______ _______ _______ _____ _____    ______ ____
ROOT
ATOM      1  C   UNL     1       7.258  -0.531  26.640  0.00  0.00    +0.221 C 
ATOM      2  C   UNL     1       6.669  -1.531  25.588  0.00  0.00    +0.126 C 
ATOM      3  S   UNL     1       6.496  -0.611  23.999  0.00  0.00    -0.109 S 
ATOM      4  C   UNL     1       8.100   0.161  23.987  0.00  0.00    +0.054 A 
ATOM      5  C   UNL     1       8.945   0.208  25.105  0.00  0.00    +0.135 A 
ATOM      6  C   UNL     1      10.223   0.762  24.992  0.00  0.00    +0.050 A 
ATOM      7  C   UNL     1      10.655   1.302  23.783  0.00  0.00    +0.049 A 
ATOM      8  C   UNL     1       9.797   1.281  22.688  0.00  0.00    +0.118 A 
ATOM      9  C   UNL     1       8.533   0.714  22.779  0.00  0.00    +0.063 A 
ATOM     10  O   UNL     1       8.650  -0.258  26.363  0.00  0.00    -0.482 OA
ENDROOT
BRANCH   1  14
ATOM     11  C   UNL     1       5.150   3.195  27.448  0.00  0.00    +0.121 A 
ATOM     12  C   UNL     1       6.423   2.987  27.974  0.00  0.00    +0.046 A 
ATOM     13  C   UNL     1       7.093   1.780  27.731  0.00  0.00    +0.011 A 
ATOM     14  C   UNL     1       6.509   0.767  26.942  0.00  0.00    -0.006 A 
ATOM     15  C   UNL     1       5.211   0.970  26.475  0.00  0.00    +0.011 A 
ATOM     16  C   UNL     1       4.554   2.172  26.705  0.00  0.00    +0.046 A 
BRANCH  11  17
ATOM     17  O   UNL     1       4.566   4.415  27.699  0.00  0.00    -0.490 OA
BRANCH  17  18
ATOM     18  C   UNL     1       5.488   5.504  27.574  0.00  0.00    +0.247 C 
BRANCH  18  20
ATOM     19  C   UNL     1       4.110   5.845  25.517  0.00  0.00    +0.027 C 
ATOM     20  C   UNL     1       5.430   6.216  26.211  0.00  0.00    +0.091 C 
BRANCH  20  21
ATOM     21  N   UNL     1       6.598   5.829  25.378  0.00  0.00    -0.296 NA
ATOM     22  C   UNL     1       6.379   4.631  24.551  0.00  0.00    +0.085 C 
ATOM     23  C   UNL     1       7.715   3.911  24.461  0.00  0.00    +0.017 C 
ATOM     24  C   UNL     1       8.693   4.818  25.178  0.00  0.00    +0.017 C 
ATOM     25  C   UNL     1       7.818   5.589  26.150  0.00  0.00    +0.085 C 
ENDBRANCH  20  21
ENDBRANCH  18  20
ENDBRANCH  17  18
ENDBRANCH  11  17
ENDBRANCH   1  14
BRANCH   2  26
ATOM     26  C   UNL     1       7.462  -2.843  25.424  0.00  0.00    -0.030 A 
ATOM     27  C   UNL     1       7.529  -3.518  24.189  0.00  0.00    +0.008 A 
ATOM     28  C   UNL     1       8.318  -4.658  24.029  0.00  0.00    +0.046 A 
ATOM     29  C   UNL     1       9.021  -5.164  25.109  0.00  0.00    +0.117 A 
ATOM     30  C   UNL     1       8.915  -4.572  26.360  0.00  0.00    +0.046 A 
ATOM     31  C   UNL     1       8.131  -3.428  26.515  0.00  0.00    +0.008 A 
BRANCH  29  32
ATOM     32  O   UNL     1       9.818  -6.249  24.906  0.00  0.00    -0.507 OA
ATOM     33  H   UNL     1       9.332  -6.887  24.360  0.00  0.00    +0.292 HD
ENDBRANCH  29  32
ENDBRANCH   2  26
BRANCH   8  34
ATOM     34  O   UNL     1      10.170   1.802  21.485  0.00  0.00    -0.507 OA
ATOM     35  H   UNL     1      10.663   2.622  21.638  0.00  0.00    +0.292 HD
ENDBRANCH   8  34
TORSDOF 8
ENDMDL
MODEL 9
REMARK VINA RESULT:      -6.1      2.321      3.891
REMARK  Name = 
REMARK  9 active torsions:
REMARK  status: ('A' for Active; 'I' for Inactive)
REMARK    1  A    between atoms: C_1  and  C_2
REMARK    2  A    between atoms: C_2  and  C_4
REMARK    3  A    between atoms: C_2  and  N_32
REMARK    4  A    between atoms: C_4  and  O_5
REMARK    5  A    between atoms: O_5  and  C_6
REMARK    6  A    between atoms: C_9  and  C_12
REMARK    7  A    between atoms: C_18  and  O_19
REMARK    8  A    between atoms: C_23  and  C_25
REMARK    9  A    between atoms: C_28  and  O_29
REMARK                            x       y       z     vdW  Elec       q    Type
REMARK                         _______ _______ _______ _____ _____    ______ ____
ROOT
ATOM      1  C   UNL     1       5.117  -4.266  23.634  0.00  0.00    +0.221 C 
ATOM      2  C   UNL     1       5.218  -5.750  24.122  0.00  0.00    +0.126 C 
ATOM      3  S   UNL     1       5.949  -5.720  25.815  0.00  0.00    -0.109 S 
ATOM      4  C   UNL     1       4.943  -4.418  26.494  0.00  0.00    +0.054 A 
ATOM      5  C   UNL     1       4.146  -3.569  25.712  0.00  0.00    +0.135 A 
ATOM      6  C   UNL     1       3.322  -2.622  26.328  0.00  0.00    +0.050 A 
ATOM      7  C   UNL     1       3.312  -2.489  27.715  0.00  0.00    +0.049 A 
ATOM      8  C   UNL     1       4.132  -3.312  28.480  0.00  0.00    +0.118 A 
ATOM      9  C   UNL     1       4.939  -4.273  27.883  0.00  0.00    +0.063 A 
ATOM     10  O   UNL     1       4.069  -3.564  24.341  0.00  0.00    -0.482 OA
ENDROOT
BRANCH   1  14
ATOM     11  C   UNL     1       8.729  -1.842  23.388  0.00  0.00    +0.121 A 
ATOM     12  C   UNL     1       8.818  -3.193  23.718  0.00  0.00    +0.046 A 
ATOM     13  C   UNL     1       7.655  -3.967  23.817  0.00  0.00    +0.011 A 
ATOM     14  C   UNL     1       6.383  -3.410  23.570  0.00  0.00    -0.006 A 
ATOM     15  C   UNL     1       6.310  -2.044  23.300  0.00  0.00    +0.011 A 
ATOM     16  C   UNL     1       7.465  -1.280  23.188  0.00  0.00    +0.046 A 
BRANCH  11  17
ATOM     17  O   UNL     1       9.913  -1.151  23.277  0.00  0.00    -0.490 OA
BRANCH  17  18
ATOM     18  C   UNL     1       9.835  -0.070  22.341  0.00  0.00    +0.247 C 
BRANCH  18  20
ATOM     19  C   UNL     1      10.668   1.094  24.389  0.00  0.00    +0.027 C 
ATOM     20  C   UNL     1      10.216   1.298  22.935  0.00  0.00    +0.091 C 
BRANCH  20  21
ATOM     21  N   UNL     1       9.062   2.230  22.862  0.00  0.00    -0.296 NA
ATOM     22  C   UNL     1       8.201   2.221  24.056  0.00  0.00    +0.085 C 
ATOM     23  C   UNL     1       6.781   2.480  23.574  0.00  0.00    +0.017 C 
ATOM     24  C   UNL     1       6.918   2.738  22.088  0.00  0.00    +0.017 C 
ATOM     25  C   UNL     1       8.187   1.996  21.712  0.00  0.00    +0.085 C 
ENDBRANCH  20  21
ENDBRANCH  18  20
ENDBRANCH  17  18
ENDBRANCH  11  17
ENDBRANCH   1  14
BRANCH   2  26
ATOM     26  C   UNL     1       3.896  -6.542  24.068  0.00  0.00    -0.030 A 
ATOM     27  C   UNL     1       2.973  -6.371  23.017  0.00  0.00    +0.008 A 
ATOM     28  C   UNL     1       1.819  -7.153  22.932  0.00  0.00    +0.046 A 
ATOM     29  C   UNL     1       1.551  -8.091  23.915  0.00  0.00    +0.117 A 
ATOM     30  C   UNL     1       2.397  -8.231  25.006  0.00  0.00    +0.046 A 
ATOM     31  C   UNL     1       3.553  -7.453  25.085  0.00  0.00    +0.008 A 
BRANCH  29  32
ATOM     32  O   UNL     1       0.443  -8.869  23.776  0.00  0.00    -0.507 OA
ATOM     33  H   UNL     1       0.476  -9.571  24.445  0.00  0.00    +0.292 HD
ENDBRANCH  29  32
ENDBRANCH   2  26
BRANCH   8  34
ATOM     34  O   UNL     1       4.164  -3.217  29.838  0.00  0.00    -0.507 OA
ATOM     35  H   UNL     1       4.673  -3.961  30.193  0.00  0.00    +0.292 HD
ENDBRANCH   8  34
TORSDOF 8
ENDMDL
