MODEL 1
REMARK VINA RESULT:      -7.5      0.000      0.000
REMARK  Name = 
REMARK  10 active torsions:
REMARK  status: ('A' for Active; 'I' for Inactive)
REMARK    1  A    between atoms: C_1  and  C_2
REMARK    2  A    between atoms: C_2  and  O_4
REMARK    3  A    between atoms: C_2  and  C_5
REMARK    4  A    between atoms: C_5  and  N_7
REMARK    5  A    between atoms: C_5  and  C_8
REMARK    6  A    between atoms: C_11  and  C_12
REMARK    7  A    between atoms: C_17  and  N_18
REMARK    8  A    between atoms: N_24  and  C_25
REMARK    9  A    between atoms: C_25  and  C_26
REMARK   10  A    between atoms: C_26  and  O_27
REMARK                            x       y       z     vdW  Elec       q    Type
REMARK                         _______ _______ _______ _____ _____    ______ ____
ROOT
ATOM      1  C   UNL     1       7.608  -4.526  23.931  0.00  0.00    +0.317 C 
ATOM      2  N   UNL     1       6.819  -5.025  22.941  0.00  0.00    -0.141 N 
ATOM      3  C   UNL     1       6.410  -3.953  22.195  0.00  0.00    +0.379 C 
ATOM      4  O   UNL     1       5.664  -3.965  21.234  0.00  0.00    -0.237 OA
ATOM      5  C   UNL     1       7.030  -2.785  22.863  0.00  0.00    +0.263 C 
ATOM      6  C   UNL     1       6.726  -1.521  22.543  0.00  0.00    +0.073 C 
ATOM      7  N   UNL     1       7.791  -3.236  23.912  0.00  0.00    -0.037 NA
ENDROOT
BRANCH   6   8
ATOM      8  C   UNL     1       7.088  -0.347  23.275  0.00  0.00    +0.006 A 
ATOM      9  C   UNL     1       8.193   0.556  23.069  0.00  0.00    +0.028 A 
ATOM     10  C   UNL     1       9.310   0.625  22.188  0.00  0.00    +0.034 A 
ATOM     11  C   UNL     1      10.179   1.731  22.299  0.00  0.00    +0.023 A 
ATOM     12  C   UNL     1       9.997   2.717  23.264  0.00  0.00    +0.004 A 
ATOM     13  C   UNL     1       8.921   2.655  24.142  0.00  0.00    +0.026 A 
ATOM     14  C   UNL     1       8.041   1.577  24.019  0.00  0.00    +0.049 A 
ATOM     15  N   UNL     1       6.904   1.315  24.744  0.00  0.00    -0.360 N 
ATOM     16  H   UNL     1       6.543   1.905  25.481  0.00  0.00    +0.165 HD
ATOM     17  C   UNL     1       6.324   0.164  24.307  0.00  0.00    +0.091 A 
BRANCH  10  18
ATOM     18  N   UNL     1       9.573  -0.300  21.156  0.00  0.00    -0.357 N 
ATOM     19  H   UNL     1      10.437  -0.811  21.303  0.00  0.00    +0.142 HD
ATOM     20  H   UNL     1       8.797  -0.919  20.962  0.00  0.00    +0.142 HD
ENDBRANCH  10  18
ENDBRANCH   6   8
BRANCH   1  21
ATOM     21  C   UNL     1       8.307  -5.343  25.017  0.00  0.00    +0.197 C 
BRANCH  21  22
ATOM     22  N   UNL     1       9.715  -5.589  24.638  0.00  0.00    -0.316 NA
ATOM     23  H   UNL     1       9.882  -6.588  24.805  0.00  0.00    +0.119 HD
ATOM     24  H   UNL     1       9.808  -5.465  23.630  0.00  0.00    +0.119 HD
ENDBRANCH  21  22
BRANCH  21  26
ATOM     25  C   UNL     1       7.121  -5.418  27.282  0.00  0.00    +0.040 C 
ATOM     26  C   UNL     1       8.176  -4.721  26.425  0.00  0.00    +0.140 C 
BRANCH  26  27
ATOM     27  O   UNL     1       9.447  -4.857  27.085  0.00  0.00    -0.390 OA
ATOM     28  H   UNL     1       9.737  -3.970  27.361  0.00  0.00    +0.210 HD
ENDBRANCH  26  27
ENDBRANCH  21  26
ENDBRANCH   1  21
BRANCH   2  29
ATOM     29  C   UNL     1       5.993  -6.232  23.034  0.00  0.00    +0.355 C 
BRANCH  29  30
ATOM     30  C   UNL     1       4.854  -6.364  24.044  0.00  0.00    +0.346 C 
ATOM     31  O   UNL     1       4.487  -5.408  24.722  0.00  0.00    -0.247 OA
BRANCH  30  32
ATOM     32  O   UNL     1       4.180  -7.527  24.086  0.00  0.00    -0.478 OA
ATOM     33  H   UNL     1       3.741  -7.735  24.944  0.00  0.00    +0.295 HD
ENDBRANCH  30  32
ENDBRANCH  29  30
ENDBRANCH   2  29
TORSDOF 9
ENDMDL
MODEL 2
REMARK VINA RESULT:      -7.2      2.882      7.183
REMARK  Name = 
REMARK  10 active torsions:
REMARK  status: ('A' for Active; 'I' for Inactive)
REMARK    1  A    between atoms: C_1  and  C_2
REMARK    2  A    between atoms: C_2  and  O_4
REMARK    3  A    between atoms: C_2  and  C_5
REMARK    4  A    between atoms: C_5  and  N_7
REMARK    5  A    between atoms: C_5  and  C_8
REMARK    6  A    between atoms: C_11  and  C_12
REMARK    7  A    between atoms: C_17  and  N_18
REMARK    8  A    between atoms: N_24  and  C_25
REMARK    9  A    between atoms: C_25  and  C_26
REMARK   10  A    between atoms: C_26  and  O_27
REMARK                            x       y       z     vdW  Elec       q    Type
REMARK                         _______ _______ _______ _____ _____    ______ ____
ROOT
ATOM      1  C   UNL     1       7.856  -0.689  23.809  0.00  0.00    +0.317 C 
ATOM      2  N   UNL     1       9.015  -0.661  23.097  0.00  0.00    -0.141 N 
ATOM      3  C   UNL     1       9.530  -1.927  23.148  0.00  0.00    +0.379 C 
ATOM      4  O   UNL     1      10.577  -2.318  22.664  0.00  0.00    -0.237 OA
ATOM      5  C   UNL     1       8.560  -2.684  23.972  0.00  0.00    +0.263 C 
ATOM      6  C   UNL     1       8.795  -3.928  24.410  0.00  0.00    +0.073 C 
ATOM      7  N   UNL     1       7.527  -1.846  24.310  0.00  0.00    -0.037 NA
ENDROOT
BRANCH   6   8
ATOM      8  C   UNL     1       8.037  -4.643  25.390  0.00  0.00    +0.006 A 
ATOM      9  C   UNL     1       6.729  -5.239  25.279  0.00  0.00    +0.028 A 
ATOM     10  C   UNL     1       5.716  -5.308  24.280  0.00  0.00    +0.034 A 
ATOM     11  C   UNL     1       4.545  -6.041  24.568  0.00  0.00    +0.023 A 
ATOM     12  C   UNL     1       4.343  -6.650  25.803  0.00  0.00    +0.004 A 
ATOM     13  C   UNL     1       5.314  -6.577  26.794  0.00  0.00    +0.026 A 
ATOM     14  C   UNL     1       6.489  -5.876  26.505  0.00  0.00    +0.049 A 
ATOM     15  N   UNL     1       7.591  -5.689  27.302  0.00  0.00    -0.360 N 
ATOM     16  H   UNL     1       7.697  -6.066  28.235  0.00  0.00    +0.165 HD
ATOM     17  C   UNL     1       8.527  -4.952  26.644  0.00  0.00    +0.091 A 
BRANCH  10  18
ATOM     18  N   UNL     1       5.829  -4.758  22.986  0.00  0.00    -0.357 N 
ATOM     19  H   UNL     1       4.925  -4.559  22.569  0.00  0.00    +0.142 HD
ATOM     20  H   UNL     1       6.447  -3.960  22.940  0.00  0.00    +0.142 HD
ENDBRANCH  10  18
ENDBRANCH   6   8
BRANCH   1  21
ATOM     21  C   UNL     1       6.914   0.493  24.034  0.00  0.00    +0.197 C 
BRANCH  21  22
ATOM     22  N   UNL     1       6.216   0.832  22.774  0.00  0.00    -0.316 NA
ATOM     23  H   UNL     1       5.847   1.782  22.902  0.00  0.00    +0.119 HD
ATOM     24  H   UNL     1       6.909   0.911  22.029  0.00  0.00    +0.119 HD
ENDBRANCH  21  22
BRANCH  21  26
ATOM     25  C   UNL     1       5.143   1.536  25.558  0.00  0.00    +0.040 C 
ATOM     26  C   UNL     1       5.935   0.277  25.209  0.00  0.00    +0.140 C 
BRANCH  26  27
ATOM     27  O   UNL     1       4.999  -0.744  24.819  0.00  0.00    -0.390 OA
ATOM     28  H   UNL     1       4.953  -1.399  25.537  0.00  0.00    +0.210 HD
ENDBRANCH  26  27
ENDBRANCH  21  26
ENDBRANCH   1  21
BRANCH   2  29
ATOM     29  C   UNL     1       9.895   0.501  22.944  0.00  0.00    +0.355 C 
BRANCH  29  30
ATOM     30  C   UNL     1       9.682   1.546  21.850  0.00  0.00    +0.346 C 
ATOM     31  O   UNL     1       8.675   1.542  21.149  0.00  0.00    -0.247 OA
BRANCH  30  32
ATOM     32  O   UNL     1      10.574   2.549  21.754  0.00  0.00    -0.478 OA
ATOM     33  H   UNL     1      11.446   2.308  21.361  0.00  0.00    +0.295 HD
ENDBRANCH  30  32
ENDBRANCH  29  30
ENDBRANCH   2  29
TORSDOF 9
ENDMDL
MODEL 3
REMARK VINA RESULT:      -7.2      2.408      2.989
REMARK  Name = 
REMARK  10 active torsions:
REMARK  status: ('A' for Active; 'I' for Inactive)
REMARK    1  A    between atoms: C_1  and  C_2
REMARK    2  A    between atoms: C_2  and  O_4
REMARK    3  A    between atoms: C_2  and  C_5
REMARK    4  A    between atoms: C_5  and  N_7
REMARK    5  A    between atoms: C_5  and  C_8
REMARK    6  A    between atoms: C_11  and  C_12
REMARK    7  A    between atoms: C_17  and  N_18
REMARK    8  A    between atoms: N_24  and  C_25
REMARK    9  A    between atoms: C_25  and  C_26
REMARK   10  A    between atoms: C_26  and  O_27
REMARK                            x       y       z     vdW  Elec       q    Type
REMARK                         _______ _______ _______ _____ _____    ______ ____
ROOT
ATOM      1  C   UNL     1       6.157  -4.179  25.543  0.00  0.00    +0.317 C 
ATOM      2  N   UNL     1       6.470  -5.201  24.701  0.00  0.00    -0.141 N 
ATOM      3  C   UNL     1       7.664  -4.871  24.120  0.00  0.00    +0.379 C 
ATOM      4  O   UNL     1       8.276  -5.504  23.279  0.00  0.00    -0.237 OA
ATOM      5  C   UNL     1       8.001  -3.550  24.701  0.00  0.00    +0.263 C 
ATOM      6  C   UNL     1       9.014  -2.798  24.253  0.00  0.00    +0.073 C 
ATOM      7  N   UNL     1       7.028  -3.212  25.608  0.00  0.00    -0.037 NA
ENDROOT
BRANCH   6   8
ATOM      8  C   UNL     1       9.270  -1.430  24.584  0.00  0.00    +0.006 A 
ATOM      9  C   UNL     1       9.553  -0.315  23.716  0.00  0.00    +0.028 A 
ATOM     10  C   UNL     1       9.743  -0.128  22.317  0.00  0.00    +0.034 A 
ATOM     11  C   UNL     1       9.984   1.180  21.846  0.00  0.00    +0.023 A 
ATOM     12  C   UNL     1      10.084   2.266  22.708  0.00  0.00    +0.004 A 
ATOM     13  C   UNL     1       9.919   2.098  24.079  0.00  0.00    +0.026 A 
ATOM     14  C   UNL     1       9.651   0.809  24.549  0.00  0.00    +0.049 A 
ATOM     15  N   UNL     1       9.425   0.401  25.840  0.00  0.00    -0.360 N 
ATOM     16  H   UNL     1       9.411   1.014  26.644  0.00  0.00    +0.165 HD
ATOM     17  C   UNL     1       9.195  -0.940  25.874  0.00  0.00    +0.091 A 
BRANCH  10  18
ATOM     18  N   UNL     1       9.632  -1.150  21.351  0.00  0.00    -0.357 N 
ATOM     19  H   UNL     1      10.492  -1.680  21.245  0.00  0.00    +0.142 HD
ATOM     20  H   UNL     1       8.834  -1.754  21.492  0.00  0.00    +0.142 HD
ENDBRANCH  10  18
ENDBRANCH   6   8
BRANCH   1  21
ATOM     21  C   UNL     1       4.912  -4.094  26.424  0.00  0.00    +0.197 C 
BRANCH  21  22
ATOM     22  N   UNL     1       5.303  -3.887  27.836  0.00  0.00    -0.316 NA
ATOM     23  H   UNL     1       5.015  -2.930  28.072  0.00  0.00    +0.119 HD
ATOM     24  H   UNL     1       4.732  -4.493  28.425  0.00  0.00    +0.119 HD
ENDBRANCH  21  22
BRANCH  21  26
ATOM     25  C   UNL     1       3.783  -1.843  26.876  0.00  0.00    +0.040 C 
ATOM     26  C   UNL     1       3.891  -3.043  25.936  0.00  0.00    +0.140 C 
BRANCH  26  27
ATOM     27  O   UNL     1       4.331  -2.565  24.652  0.00  0.00    -0.390 OA
ATOM     28  H   UNL     1       4.809  -1.729  24.792  0.00  0.00    +0.210 HD
ENDBRANCH  26  27
ENDBRANCH  21  26
ENDBRANCH   1  21
BRANCH   2  29
ATOM     29  C   UNL     1       5.508  -6.055  24.001  0.00  0.00    +0.355 C 
BRANCH  29  30
ATOM     30  C   UNL     1       4.786  -5.600  22.733  0.00  0.00    +0.346 C 
ATOM     31  O   UNL     1       3.912  -4.739  22.769  0.00  0.00    -0.247 OA
BRANCH  30  32
ATOM     32  O   UNL     1       5.217  -6.084  21.554  0.00  0.00    -0.478 OA
ATOM     33  H   UNL     1       4.554  -6.595  21.034  0.00  0.00    +0.295 HD
ENDBRANCH  30  32
ENDBRANCH  29  30
ENDBRANCH   2  29
TORSDOF 9
ENDMDL
MODEL 4
REMARK VINA RESULT:      -7.1      1.103      2.064
REMARK  Name = 
REMARK  10 active torsions:
REMARK  status: ('A' for Active; 'I' for Inactive)
REMARK    1  A    between atoms: C_1  and  C_2
REMARK    2  A    between atoms: C_2  and  O_4
REMARK    3  A    between atoms: C_2  and  C_5
REMARK    4  A    between atoms: C_5  and  N_7
REMARK    5  A    between atoms: C_5  and  C_8
REMARK    6  A    between atoms: C_11  and  C_12
REMARK    7  A    between atoms: C_17  and  N_18
REMARK    8  A    between atoms: N_24  and  C_25
REMARK    9  A    between atoms: C_25  and  C_26
REMARK   10  A    between atoms: C_26  and  O_27
REMARK                            x       y       z     vdW  Elec       q    Type
REMARK                         _______ _______ _______ _____ _____    ______ ____
ROOT
ATOM      1  C   UNL     1       7.649  -4.605  24.281  0.00  0.00    +0.317 C 
ATOM      2  N   UNL     1       6.404  -4.875  23.801  0.00  0.00    -0.141 N 
ATOM      3  C   UNL     1       6.114  -3.884  22.904  0.00  0.00    +0.379 C 
ATOM      4  O   UNL     1       5.082  -3.737  22.275  0.00  0.00    -0.237 OA
ATOM      5  C   UNL     1       7.309  -3.010  22.924  0.00  0.00    +0.263 C 
ATOM      6  C   UNL     1       7.348  -1.820  22.310  0.00  0.00    +0.073 C 
ATOM      7  N   UNL     1       8.233  -3.554  23.780  0.00  0.00    -0.037 NA
ENDROOT
BRANCH   6   8
ATOM      8  C   UNL     1       8.354  -0.815  22.465  0.00  0.00    +0.006 A 
ATOM      9  C   UNL     1       8.280   0.459  23.135  0.00  0.00    +0.028 A 
ATOM     10  C   UNL     1       7.268   1.209  23.801  0.00  0.00    +0.034 A 
ATOM     11  C   UNL     1       7.624   2.452  24.367  0.00  0.00    +0.023 A 
ATOM     12  C   UNL     1       8.909   2.972  24.252  0.00  0.00    +0.004 A 
ATOM     13  C   UNL     1       9.904   2.260  23.591  0.00  0.00    +0.026 A 
ATOM     14  C   UNL     1       9.564   1.016  23.053  0.00  0.00    +0.049 A 
ATOM     15  N   UNL     1      10.369   0.125  22.386  0.00  0.00    -0.360 N 
ATOM     16  H   UNL     1      11.355   0.262  22.208  0.00  0.00    +0.165 HD
ATOM     17  C   UNL     1       9.655  -0.977  22.029  0.00  0.00    +0.091 A 
BRANCH  10  18
ATOM     18  N   UNL     1       5.945   0.765  24.002  0.00  0.00    -0.357 N 
ATOM     19  H   UNL     1       5.292   1.178  23.343  0.00  0.00    +0.142 HD
ATOM     20  H   UNL     1       5.858  -0.241  24.038  0.00  0.00    +0.142 HD
ENDBRANCH  10  18
ENDBRANCH   6   8
BRANCH   1  21
ATOM     21  C   UNL     1       8.411  -5.438  25.310  0.00  0.00    +0.197 C 
BRANCH  21  22
ATOM     22  N   UNL     1       9.818  -5.604  24.886  0.00  0.00    -0.316 NA
ATOM     23  H   UNL     1      10.388  -5.452  25.726  0.00  0.00    +0.119 HD
ATOM     24  H   UNL     1       9.969  -6.581  24.632  0.00  0.00    +0.119 HD
ENDBRANCH  21  22
BRANCH  21  26
ATOM     25  C   UNL     1       7.326  -3.707  26.850  0.00  0.00    +0.040 C 
ATOM     26  C   UNL     1       8.292  -4.887  26.748  0.00  0.00    +0.140 C 
BRANCH  26  27
ATOM     27  O   UNL     1       7.793  -5.945  27.585  0.00  0.00    -0.390 OA
ATOM     28  H   UNL     1       6.839  -6.036  27.416  0.00  0.00    +0.210 HD
ENDBRANCH  26  27
ENDBRANCH  21  26
ENDBRANCH   1  21
BRANCH   2  29
ATOM     29  C   UNL     1       5.336  -5.557  24.535  0.00  0.00    +0.355 C 
BRANCH  29  30
ATOM     30  C   UNL     1       4.505  -6.678  23.911  0.00  0.00    +0.346 C 
ATOM     31  O   UNL     1       4.245  -7.703  24.534  0.00  0.00    -0.247 OA
BRANCH  30  32
ATOM     32  O   UNL     1       3.961  -6.460  22.700  0.00  0.00    -0.478 OA
ATOM     33  H   UNL     1       3.561  -5.569  22.567  0.00  0.00    +0.295 HD
ENDBRANCH  30  32
ENDBRANCH  29  30
ENDBRANCH   2  29
TORSDOF 9
ENDMDL
MODEL 5
REMARK VINA RESULT:      -7.1      3.118      4.469
REMARK  Name = 
REMARK  10 active torsions:
REMARK  status: ('A' for Active; 'I' for Inactive)
REMARK    1  A    between atoms: C_1  and  C_2
REMARK    2  A    between atoms: C_2  and  O_4
REMARK    3  A    between atoms: C_2  and  C_5
REMARK    4  A    between atoms: C_5  and  N_7
REMARK    5  A    between atoms: C_5  and  C_8
REMARK    6  A    between atoms: C_11  and  C_12
REMARK    7  A    between atoms: C_17  and  N_18
REMARK    8  A    between atoms: N_24  and  C_25
REMARK    9  A    between atoms: C_25  and  C_26
REMARK   10  A    between atoms: C_26  and  O_27
REMARK                            x       y       z     vdW  Elec       q    Type
REMARK                         _______ _______ _______ _____ _____    ______ ____
ROOT
ATOM      1  C   UNL     1       9.093  -1.079  25.347  0.00  0.00    +0.317 C 
ATOM      2  N   UNL     1       9.536  -2.047  24.500  0.00  0.00    -0.141 N 
ATOM      3  C   UNL     1      10.049  -1.400  23.410  0.00  0.00    +0.379 C 
ATOM      4  O   UNL     1      10.518  -1.905  22.406  0.00  0.00    -0.237 OA
ATOM      5  C   UNL     1       9.846   0.036  23.707  0.00  0.00    +0.263 C 
ATOM      6  C   UNL     1      10.054   1.001  22.801  0.00  0.00    +0.073 C 
ATOM      7  N   UNL     1       9.279   0.148  24.952  0.00  0.00    -0.037 NA
ENDROOT
BRANCH   6   8
ATOM      8  C   UNL     1       9.667   2.373  22.915  0.00  0.00    +0.006 A 
ATOM      9  C   UNL     1       8.358   2.967  22.812  0.00  0.00    +0.028 A 
ATOM     10  C   UNL     1       7.043   2.505  22.518  0.00  0.00    +0.034 A 
ATOM     11  C   UNL     1       5.987   3.440  22.544  0.00  0.00    +0.023 A 
ATOM     12  C   UNL     1       6.204   4.790  22.801  0.00  0.00    +0.004 A 
ATOM     13  C   UNL     1       7.484   5.260  23.072  0.00  0.00    +0.026 A 
ATOM     14  C   UNL     1       8.531   4.334  23.076  0.00  0.00    +0.049 A 
ATOM     15  N   UNL     1       9.861   4.549  23.339  0.00  0.00    -0.360 N 
ATOM     16  H   UNL     1      10.261   5.444  23.587  0.00  0.00    +0.165 HD
ATOM     17  C   UNL     1      10.553   3.381  23.247  0.00  0.00    +0.091 A 
BRANCH  10  18
ATOM     18  N   UNL     1       6.705   1.157  22.276  0.00  0.00    -0.357 N 
ATOM     19  H   UNL     1       7.306   0.510  22.775  0.00  0.00    +0.142 HD
ATOM     20  H   UNL     1       5.726   0.955  22.426  0.00  0.00    +0.142 HD
ENDBRANCH  10  18
ENDBRANCH   6   8
BRANCH   1  21
ATOM     21  C   UNL     1       8.441  -1.311  26.710  0.00  0.00    +0.197 C 
BRANCH  21  22
ATOM     22  N   UNL     1       9.048  -0.417  27.720  0.00  0.00    -0.316 NA
ATOM     23  H   UNL     1       8.340  -0.299  28.455  0.00  0.00    +0.119 HD
ATOM     24  H   UNL     1       9.821  -0.909  28.168  0.00  0.00    +0.119 HD
ENDBRANCH  21  22
BRANCH  21  26
ATOM     25  C   UNL     1       6.374  -0.029  27.505  0.00  0.00    +0.040 C 
ATOM     26  C   UNL     1       6.901  -1.199  26.675  0.00  0.00    +0.140 C 
BRANCH  26  27
ATOM     27  O   UNL     1       6.506  -0.989  25.307  0.00  0.00    -0.390 OA
ATOM     28  H   UNL     1       6.609  -1.832  24.833  0.00  0.00    +0.210 HD
ENDBRANCH  26  27
ENDBRANCH  21  26
ENDBRANCH   1  21
BRANCH   2  29
ATOM     29  C   UNL     1       8.974  -3.395  24.376  0.00  0.00    +0.355 C 
BRANCH  29  30
ATOM     30  C   UNL     1       9.377  -4.535  25.312  0.00  0.00    +0.346 C 
ATOM     31  O   UNL     1       8.689  -4.838  26.282  0.00  0.00    -0.247 OA
BRANCH  30  32
ATOM     32  O   UNL     1      10.446  -5.279  24.975  0.00  0.00    -0.478 OA
ATOM     33  H   UNL     1      10.265  -6.234  24.809  0.00  0.00    +0.295 HD
ENDBRANCH  30  32
ENDBRANCH  29  30
ENDBRANCH   2  29
TORSDOF 9
ENDMDL
MODEL 6
REMARK VINA RESULT:      -7.0      2.259      3.562
REMARK  Name = 
REMARK  10 active torsions:
REMARK  status: ('A' for Active; 'I' for Inactive)
REMARK    1  A    between atoms: C_1  and  C_2
REMARK    2  A    between atoms: C_2  and  O_4
REMARK    3  A    between atoms: C_2  and  C_5
REMARK    4  A    between atoms: C_5  and  N_7
REMARK    5  A    between atoms: C_5  and  C_8
REMARK    6  A    between atoms: C_11  and  C_12
REMARK    7  A    between atoms: C_17  and  N_18
REMARK    8  A    between atoms: N_24  and  C_25
REMARK    9  A    between atoms: C_25  and  C_26
REMARK   10  A    between atoms: C_26  and  O_27
REMARK                            x       y       z     vdW  Elec       q    Type
REMARK                         _______ _______ _______ _____ _____    ______ ____
ROOT
ATOM      1  C   UNL     1       5.495  -4.104  24.509  0.00  0.00    +0.317 C 
ATOM      2  N   UNL     1       5.307  -4.279  25.845  0.00  0.00    -0.141 N 
ATOM      3  C   UNL     1       5.434  -3.043  26.418  0.00  0.00    +0.379 C 
ATOM      4  O   UNL     1       5.369  -2.769  27.602  0.00  0.00    -0.237 OA
ATOM      5  C   UNL     1       5.726  -2.140  25.281  0.00  0.00    +0.263 C 
ATOM      6  C   UNL     1       6.097  -0.863  25.445  0.00  0.00    +0.073 C 
ATOM      7  N   UNL     1       5.707  -2.877  24.123  0.00  0.00    -0.037 NA
ENDROOT
BRANCH   6   8
ATOM      8  C   UNL     1       6.619   0.007  24.437  0.00  0.00    +0.006 A 
ATOM      9  C   UNL     1       7.791  -0.148  23.612  0.00  0.00    +0.028 A 
ATOM     10  C   UNL     1       8.849  -1.095  23.502  0.00  0.00    +0.034 A 
ATOM     11  C   UNL     1       9.828  -0.888  22.507  0.00  0.00    +0.023 A 
ATOM     12  C   UNL     1       9.807   0.226  21.673  0.00  0.00    +0.004 A 
ATOM     13  C   UNL     1       8.790   1.168  21.779  0.00  0.00    +0.026 A 
ATOM     14  C   UNL     1       7.802   0.954  22.744  0.00  0.00    +0.049 A 
ATOM     15  N   UNL     1       6.696   1.720  23.019  0.00  0.00    -0.360 N 
ATOM     16  H   UNL     1       6.443   2.564  22.523  0.00  0.00    +0.165 HD
ATOM     17  C   UNL     1       5.978   1.161  24.031  0.00  0.00    +0.091 A 
BRANCH  10  18
ATOM     18  N   UNL     1       8.952  -2.273  24.271  0.00  0.00    -0.357 N 
ATOM     19  H   UNL     1       8.387  -3.030  23.899  0.00  0.00    +0.142 HD
ATOM     20  H   UNL     1       9.905  -2.563  24.438  0.00  0.00    +0.142 HD
ENDBRANCH  10  18
ENDBRANCH   6   8
BRANCH   1  21
ATOM     21  C   UNL     1       5.442  -5.200  23.446  0.00  0.00    +0.197 C 
BRANCH  21  22
ATOM     22  N   UNL     1       4.638  -4.747  22.290  0.00  0.00    -0.316 NA
ATOM     23  H   UNL     1       5.312  -4.466  21.569  0.00  0.00    +0.119 HD
ATOM     24  H   UNL     1       4.146  -5.551  21.900  0.00  0.00    +0.119 HD
ENDBRANCH  21  22
BRANCH  21  26
ATOM     25  C   UNL     1       7.022  -5.753  21.511  0.00  0.00    +0.040 C 
ATOM     26  C   UNL     1       6.839  -5.709  23.027  0.00  0.00    +0.140 C 
BRANCH  26  27
ATOM     27  O   UNL     1       7.818  -4.803  23.568  0.00  0.00    -0.390 OA
ATOM     28  H   UNL     1       7.965  -5.042  24.499  0.00  0.00    +0.210 HD
ENDBRANCH  26  27
ENDBRANCH  21  26
ENDBRANCH   1  21
BRANCH   2  29
ATOM     29  C   UNL     1       5.632  -5.491  26.601  0.00  0.00    +0.355 C 
BRANCH  29  30
ATOM     30  C   UNL     1       7.014  -5.727  27.211  0.00  0.00    +0.346 C 
ATOM     31  O   UNL     1       7.148  -6.015  28.396  0.00  0.00    -0.247 OA
BRANCH  30  32
ATOM     32  O   UNL     1       8.075  -5.728  26.384  0.00  0.00    -0.478 OA
ATOM     33  H   UNL     1       8.016  -6.342  25.616  0.00  0.00    +0.295 HD
ENDBRANCH  30  32
ENDBRANCH  29  30
ENDBRANCH   2  29
TORSDOF 9
ENDMDL
MODEL 7
REMARK VINA RESULT:      -7.0      2.905      6.911
REMARK  Name = 
REMARK  10 active torsions:
REMARK  status: ('A' for Active; 'I' for Inactive)
REMARK    1  A    between atoms: C_1  and  C_2
REMARK    2  A    between atoms: C_2  and  O_4
REMARK    3  A    between atoms: C_2  and  C_5
REMARK    4  A    between atoms: C_5  and  N_7
REMARK    5  A    between atoms: C_5  and  C_8
REMARK    6  A    between atoms: C_11  and  C_12
REMARK    7  A    between atoms: C_17  and  N_18
REMARK    8  A    between atoms: N_24  and  C_25
REMARK    9  A    between atoms: C_25  and  C_26
REMARK   10  A    between atoms: C_26  and  O_27
REMARK                            x       y       z     vdW  Elec       q    Type
REMARK                         _______ _______ _______ _____ _____    ______ ____
ROOT
ATOM      1  C   UNL     1       7.467  -0.531  23.762  0.00  0.00    +0.317 C 
ATOM      2  N   UNL     1       8.628  -0.350  23.077  0.00  0.00    -0.141 N 
ATOM      3  C   UNL     1       8.831  -1.492  22.352  0.00  0.00    +0.379 C 
ATOM      4  O   UNL     1       9.777  -1.750  21.630  0.00  0.00    -0.237 OA
ATOM      5  C   UNL     1       7.679  -2.356  22.699  0.00  0.00    +0.263 C 
ATOM      6  C   UNL     1       7.599  -3.642  22.333  0.00  0.00    +0.073 C 
ATOM      7  N   UNL     1       6.857  -1.664  23.553  0.00  0.00    -0.037 NA
ENDROOT
BRANCH   6   8
ATOM      8  C   UNL     1       6.656  -4.606  22.809  0.00  0.00    +0.006 A 
ATOM      9  C   UNL     1       6.415  -5.063  24.155  0.00  0.00    +0.028 A 
ATOM     10  C   UNL     1       6.992  -4.827  25.436  0.00  0.00    +0.034 A 
ATOM     11  C   UNL     1       6.424  -5.477  26.552  0.00  0.00    +0.023 A 
ATOM     12  C   UNL     1       5.359  -6.364  26.425  0.00  0.00    +0.004 A 
ATOM     13  C   UNL     1       4.796  -6.618  25.180  0.00  0.00    +0.026 A 
ATOM     14  C   UNL     1       5.336  -5.955  24.074  0.00  0.00    +0.049 A 
ATOM     15  N   UNL     1       4.939  -6.020  22.761  0.00  0.00    -0.360 N 
ATOM     16  H   UNL     1       4.162  -6.572  22.421  0.00  0.00    +0.165 HD
ATOM     17  C   UNL     1       5.722  -5.215  21.993  0.00  0.00    +0.091 A 
BRANCH  10  18
ATOM     18  N   UNL     1       8.050  -3.927  25.684  0.00  0.00    -0.357 N 
ATOM     19  H   UNL     1       8.728  -3.908  24.930  0.00  0.00    +0.142 HD
ATOM     20  H   UNL     1       7.738  -2.999  25.934  0.00  0.00    +0.142 HD
ENDBRANCH  10  18
ENDBRANCH   6   8
BRANCH   1  21
ATOM     21  C   UNL     1       6.818   0.478  24.708  0.00  0.00    +0.197 C 
BRANCH  21  22
ATOM     22  N   UNL     1       5.355   0.507  24.493  0.00  0.00    -0.316 NA
ATOM     23  H   UNL     1       5.205   1.059  23.640  0.00  0.00    +0.119 HD
ATOM     24  H   UNL     1       5.041  -0.436  24.262  0.00  0.00    +0.119 HD
ENDBRANCH  21  22
BRANCH  21  26
ATOM     25  C   UNL     1       5.976   0.295  27.117  0.00  0.00    +0.040 C 
ATOM     26  C   UNL     1       7.190   0.250  26.190  0.00  0.00    +0.140 C 
BRANCH  26  27
ATOM     27  O   UNL     1       7.785  -1.055  26.298  0.00  0.00    -0.390 OA
ATOM     28  H   UNL     1       7.877  -1.265  27.244  0.00  0.00    +0.210 HD
ENDBRANCH  26  27
ENDBRANCH  21  26
ENDBRANCH   1  21
BRANCH   2  29
ATOM     29  C   UNL     1       9.760   0.469  23.518  0.00  0.00    +0.355 C 
BRANCH  29  30
ATOM     30  C   UNL     1      10.121   1.792  22.843  0.00  0.00    +0.346 C 
ATOM     31  O   UNL     1      10.756   2.659  23.435  0.00  0.00    -0.247 OA
BRANCH  30  32
ATOM     32  O   UNL     1       9.829   1.934  21.537  0.00  0.00    -0.478 OA
ATOM     33  H   UNL     1       8.891   1.758  21.289  0.00  0.00    +0.295 HD
ENDBRANCH  30  32
ENDBRANCH  29  30
ENDBRANCH   2  29
TORSDOF 9
ENDMDL
MODEL 8
REMARK VINA RESULT:      -6.7      2.895      4.050
REMARK  Name = 
REMARK  10 active torsions:
REMARK  status: ('A' for Active; 'I' for Inactive)
REMARK    1  A    between atoms: C_1  and  C_2
REMARK    2  A    between atoms: C_2  and  O_4
REMARK    3  A    between atoms: C_2  and  C_5
REMARK    4  A    between atoms: C_5  and  N_7
REMARK    5  A    between atoms: C_5  and  C_8
REMARK    6  A    between atoms: C_11  and  C_12
REMARK    7  A    between atoms: C_17  and  N_18
REMARK    8  A    between atoms: N_24  and  C_25
REMARK    9  A    between atoms: C_25  and  C_26
REMARK   10  A    between atoms: C_26  and  O_27
REMARK                            x       y       z     vdW  Elec       q    Type
REMARK                         _______ _______ _______ _____ _____    ______ ____
ROOT
ATOM      1  C   UNL     1       8.907  -1.098  25.111  0.00  0.00    +0.317 C 
ATOM      2  N   UNL     1       9.522  -2.001  24.300  0.00  0.00    -0.141 N 
ATOM      3  C   UNL     1       9.738  -1.366  23.108  0.00  0.00    +0.379 C 
ATOM      4  O   UNL     1      10.235  -1.836  22.101  0.00  0.00    -0.237 OA
ATOM      5  C   UNL     1       9.173  -0.011  23.308  0.00  0.00    +0.263 C 
ATOM      6  C   UNL     1       9.025   0.868  22.307  0.00  0.00    +0.073 C 
ATOM      7  N   UNL     1       8.712   0.083  24.596  0.00  0.00    -0.037 NA
ENDROOT
BRANCH   6   8
ATOM      8  C   UNL     1       8.288   2.092  22.353  0.00  0.00    +0.006 A 
ATOM      9  C   UNL     1       8.690   3.385  22.848  0.00  0.00    +0.028 A 
ATOM     10  C   UNL     1       9.840   3.923  23.492  0.00  0.00    +0.034 A 
ATOM     11  C   UNL     1       9.848   5.300  23.802  0.00  0.00    +0.023 A 
ATOM     12  C   UNL     1       8.756   6.120  23.537  0.00  0.00    +0.004 A 
ATOM     13  C   UNL     1       7.619   5.607  22.925  0.00  0.00    +0.026 A 
ATOM     14  C   UNL     1       7.616   4.250  22.590  0.00  0.00    +0.049 A 
ATOM     15  N   UNL     1       6.632   3.527  21.962  0.00  0.00    -0.360 N 
ATOM     16  H   UNL     1       5.754   3.910  21.639  0.00  0.00    +0.165 HD
ATOM     17  C   UNL     1       7.023   2.232  21.813  0.00  0.00    +0.091 A 
BRANCH  10  18
ATOM     18  N   UNL     1      11.013   3.192  23.779  0.00  0.00    -0.357 N 
ATOM     19  H   UNL     1      10.816   2.304  24.230  0.00  0.00    +0.142 HD
ATOM     20  H   UNL     1      11.623   3.082  22.981  0.00  0.00    +0.142 HD
ENDBRANCH  10  18
ENDBRANCH   6   8
BRANCH   1  21
ATOM     21  C   UNL     1       8.470  -1.342  26.554  0.00  0.00    +0.197 C 
BRANCH  21  22
ATOM     22  N   UNL     1       9.146  -0.386  27.457  0.00  0.00    -0.316 NA
ATOM     23  H   UNL     1       8.559  -0.327  28.298  0.00  0.00    +0.119 HD
ATOM     24  H   UNL     1      10.025  -0.800  27.771  0.00  0.00    +0.119 HD
ENDBRANCH  21  22
BRANCH  21  26
ATOM     25  C   UNL     1       6.423  -0.063  27.402  0.00  0.00    +0.040 C 
ATOM     26  C   UNL     1       6.936  -1.338  26.734  0.00  0.00    +0.140 C 
BRANCH  26  27
ATOM     27  O   UNL     1       6.339  -1.427  25.428  0.00  0.00    -0.390 OA
ATOM     28  H   UNL     1       6.545  -2.306  25.064  0.00  0.00    +0.210 HD
ENDBRANCH  26  27
ENDBRANCH  21  26
ENDBRANCH   1  21
BRANCH   2  29
ATOM     29  C   UNL     1       9.345  -3.455  24.353  0.00  0.00    +0.355 C 
BRANCH  29  30
ATOM     30  C   UNL     1       8.017  -4.128  24.008  0.00  0.00    +0.346 C 
ATOM     31  O   UNL     1       7.181  -4.372  24.873  0.00  0.00    -0.247 OA
BRANCH  30  32
ATOM     32  O   UNL     1       7.735  -4.337  22.709  0.00  0.00    -0.478 OA
ATOM     33  H   UNL     1       8.377  -4.902  22.219  0.00  0.00    +0.295 HD
ENDBRANCH  30  32
ENDBRANCH  29  30
ENDBRANCH   2  29
TORSDOF 9
ENDMDL
MODEL 9
REMARK VINA RESULT:      -6.7      3.259      6.840
REMARK  Name = 
REMARK  10 active torsions:
REMARK  status: ('A' for Active; 'I' for Inactive)
REMARK    1  A    between atoms: C_1  and  C_2
REMARK    2  A    between atoms: C_2  and  O_4
REMARK    3  A    between atoms: C_2  and  C_5
REMARK    4  A    between atoms: C_5  and  N_7
REMARK    5  A    between atoms: C_5  and  C_8
REMARK    6  A    between atoms: C_11  and  C_12
REMARK    7  A    between atoms: C_17  and  N_18
REMARK    8  A    between atoms: N_24  and  C_25
REMARK    9  A    between atoms: C_25  and  C_26
REMARK   10  A    between atoms: C_26  and  O_27
REMARK                            x       y       z     vdW  Elec       q    Type
REMARK                         _______ _______ _______ _____ _____    ______ ____
ROOT
ATOM      1  C   UNL     1       7.234   0.874  23.617  0.00  0.00    +0.317 C 
ATOM      2  N   UNL     1       8.155   1.365  22.744  0.00  0.00    -0.141 N 
ATOM      3  C   UNL     1       8.621   0.294  22.032  0.00  0.00    +0.379 C 
ATOM      4  O   UNL     1       9.482   0.298  21.171  0.00  0.00    -0.237 OA
ATOM      5  C   UNL     1       7.887  -0.865  22.592  0.00  0.00    +0.263 C 
ATOM      6  C   UNL     1       8.190  -2.133  22.284  0.00  0.00    +0.073 C 
ATOM      7  N   UNL     1       7.015  -0.408  23.548  0.00  0.00    -0.037 NA
ENDROOT
BRANCH   6   8
ATOM      8  C   UNL     1       7.704  -3.307  22.940  0.00  0.00    +0.006 A 
ATOM      9  C   UNL     1       7.756  -3.664  24.336  0.00  0.00    +0.028 A 
ATOM     10  C   UNL     1       8.309  -3.095  25.519  0.00  0.00    +0.034 A 
ATOM     11  C   UNL     1       8.109  -3.772  26.740  0.00  0.00    +0.023 A 
ATOM     12  C   UNL     1       7.433  -4.986  26.807  0.00  0.00    +0.004 A 
ATOM     13  C   UNL     1       6.902  -5.563  25.659  0.00  0.00    +0.026 A 
ATOM     14  C   UNL     1       7.073  -4.883  24.450  0.00  0.00    +0.049 A 
ATOM     15  N   UNL     1       6.621  -5.233  23.202  0.00  0.00    -0.360 N 
ATOM     16  H   UNL     1       6.074  -6.059  22.998  0.00  0.00    +0.165 HD
ATOM     17  C   UNL     1       6.993  -4.296  22.288  0.00  0.00    +0.091 A 
BRANCH  10  18
ATOM     18  N   UNL     1       8.983  -1.857  25.572  0.00  0.00    -0.357 N 
ATOM     19  H   UNL     1       9.154  -1.548  26.524  0.00  0.00    +0.142 HD
ATOM     20  H   UNL     1       9.824  -1.832  25.012  0.00  0.00    +0.142 HD
ENDBRANCH  10  18
ENDBRANCH   6   8
BRANCH   1  21
ATOM     21  C   UNL     1       6.430   1.694  24.626  0.00  0.00    +0.197 C 
BRANCH  21  22
ATOM     22  N   UNL     1       4.983   1.459  24.430  0.00  0.00    -0.316 NA
ATOM     23  H   UNL     1       4.714   2.017  23.611  0.00  0.00    +0.119 HD
ATOM     24  H   UNL     1       4.845   0.488  24.152  0.00  0.00    +0.119 HD
ENDBRANCH  21  22
BRANCH  21  26
ATOM     25  C   UNL     1       5.994   0.448  26.817  0.00  0.00    +0.040 C 
ATOM     26  C   UNL     1       6.872   1.464  26.088  0.00  0.00    +0.140 C 
BRANCH  26  27
ATOM     27  O   UNL     1       8.218   0.955  26.066  0.00  0.00    -0.390 OA
ATOM     28  H   UNL     1       8.442   0.663  26.966  0.00  0.00    +0.210 HD
ENDBRANCH  26  27
ENDBRANCH  21  26
ENDBRANCH   1  21
BRANCH   2  29
ATOM     29  C   UNL     1       8.999   2.542  22.965  0.00  0.00    +0.355 C 
BRANCH  29  30
ATOM     30  C   UNL     1      10.372   2.447  23.630  0.00  0.00    +0.346 C 
ATOM     31  O   UNL     1      11.230   3.305  23.448  0.00  0.00    -0.247 OA
BRANCH  30  32
ATOM     32  O   UNL     1      10.575   1.457  24.519  0.00  0.00    -0.478 OA
ATOM     33  H   UNL     1      10.374   0.548  24.197  0.00  0.00    +0.295 HD
ENDBRANCH  30  32
ENDBRANCH  29  30
ENDBRANCH   2  29
TORSDOF 9
ENDMDL
