MODEL 1
REMARK VINA RESULT:      -7.3      0.000      0.000
REMARK  Name = 
REMARK  3 active torsions:
REMARK  status: ('A' for Active; 'I' for Inactive)
REMARK    1  A    between atoms: C_1  and  C_2
REMARK    2  A    between atoms: C_6  and  C_8
REMARK    3  A    between atoms: C_15  and  C_17
REMARK                            x       y       z     vdW  Elec       q    Type
REMARK                         _______ _______ _______ _____ _____    ______ ____
ROOT
ATOM      1  C   UNL     1       9.917   1.438  24.388  0.00  0.00    +0.047 A 
ATOM      2  N   UNL     1       9.261   0.976  25.508  0.00  0.00    -0.354 N 
ATOM      3  H   UNL     1       8.894   1.565  26.240  0.00  0.00    +0.166 HD
ATOM      4  C   UNL     1       9.117  -0.391  25.469  0.00  0.00    +0.047 A 
ATOM      5  C   UNL     1       8.448  -1.253  26.346  0.00  0.00    +0.027 A 
ATOM      6  C   UNL     1       8.421  -2.614  26.018  0.00  0.00    +0.018 A 
ATOM      7  C   UNL     1       9.070  -3.092  24.874  0.00  0.00    +0.065 A 
ATOM      8  C   UNL     1       9.771  -2.213  24.033  0.00  0.00    +0.026 A 
ATOM      9  C   UNL     1       9.778  -0.835  24.329  0.00  0.00    +0.001 A 
ATOM     10  C   UNL     1      10.316   0.314  23.684  0.00  0.00    +0.036 A 
ENDROOT
BRANCH   1  14
ATOM     11  C   UNL     1      12.789   5.220  22.788  0.00  0.00    +0.044 C 
ATOM     12  C   UNL     1      11.482   4.722  23.331  0.00  0.00    -0.050 A 
ATOM     13  C   UNL     1      11.303   3.352  23.587  0.00  0.00    +0.013 A 
ATOM     14  C   UNL     1      10.097   2.866  24.109  0.00  0.00    -0.001 A 
ATOM     15  C   UNL     1       9.054   3.774  24.345  0.00  0.00    +0.010 A 
ATOM     16  C   UNL     1       9.218   5.134  24.080  0.00  0.00    +0.001 A 
ATOM     17  C   UNL     1      10.428   5.607  23.579  0.00  0.00    +0.003 A 
ENDBRANCH   1  14
BRANCH   7  18
ATOM     18  C   UNL     1       8.977  -4.532  24.497  0.00  0.00    +0.308 C 
ATOM     19  N   UNL     1       9.849  -5.420  24.855  0.00  0.00    -0.099 NA
ATOM     20  H   UNL     1      10.622  -5.000  25.372  0.00  0.00    +0.363 HD
ATOM     21  N   UNL     1       7.923  -4.979  23.754  0.00  0.00    -0.247 N 
ATOM     22  H   UNL     1       7.876  -5.992  23.769  0.00  0.00    +0.288 HD
ATOM     23  H   UNL     1       7.029  -4.545  23.948  0.00  0.00    +0.288 HD
ENDBRANCH   7  18
TORSDOF 2
ENDMDL
MODEL 2
REMARK VINA RESULT:      -7.0      2.326      7.672
REMARK  Name = 
REMARK  3 active torsions:
REMARK  status: ('A' for Active; 'I' for Inactive)
REMARK    1  A    between atoms: C_1  and  C_2
REMARK    2  A    between atoms: C_6  and  C_8
REMARK    3  A    between atoms: C_15  and  C_17
REMARK                            x       y       z     vdW  Elec       q    Type
REMARK                         _______ _______ _______ _____ _____    ______ ____
ROOT
ATOM      1  C   UNL     1       8.821  -1.834  24.586  0.00  0.00    +0.047 A 
ATOM      2  N   UNL     1       8.968  -1.554  23.244  0.00  0.00    -0.354 N 
ATOM      3  H   UNL     1       8.719  -2.186  22.498  0.00  0.00    +0.166 HD
ATOM      4  C   UNL     1       9.441  -0.277  23.053  0.00  0.00    +0.047 A 
ATOM      5  C   UNL     1       9.652   0.438  21.868  0.00  0.00    +0.027 A 
ATOM      6  C   UNL     1      10.095   1.761  21.983  0.00  0.00    +0.018 A 
ATOM      7  C   UNL     1      10.348   2.329  23.237  0.00  0.00    +0.065 A 
ATOM      8  C   UNL     1      10.169   1.576  24.409  0.00  0.00    +0.026 A 
ATOM      9  C   UNL     1       9.690   0.256  24.313  0.00  0.00    +0.001 A 
ATOM     10  C   UNL     1       9.342  -0.744  25.264  0.00  0.00    +0.036 A 
ENDROOT
BRANCH   1  14
ATOM     11  C   UNL     1       5.649  -5.659  23.949  0.00  0.00    +0.044 C 
ATOM     12  C   UNL     1       6.677  -4.951  24.779  0.00  0.00    -0.050 A 
ATOM     13  C   UNL     1       7.267  -3.765  24.308  0.00  0.00    +0.013 A 
ATOM     14  C   UNL     1       8.218  -3.077  25.074  0.00  0.00    -0.001 A 
ATOM     15  C   UNL     1       8.596  -3.613  26.313  0.00  0.00    +0.010 A 
ATOM     16  C   UNL     1       8.026  -4.797  26.783  0.00  0.00    +0.001 A 
ATOM     17  C   UNL     1       7.068  -5.461  26.021  0.00  0.00    +0.003 A 
ENDBRANCH   1  14
BRANCH   7  18
ATOM     18  C   UNL     1      10.753   3.760  23.352  0.00  0.00    +0.308 C 
ATOM     19  N   UNL     1      11.988   4.153  23.358  0.00  0.00    -0.099 NA
ATOM     20  H   UNL     1      12.633   3.363  23.332  0.00  0.00    +0.363 HD
ATOM     21  N   UNL     1       9.804   4.736  23.437  0.00  0.00    -0.247 N 
ATOM     22  H   UNL     1      10.213   5.652  23.283  0.00  0.00    +0.288 HD
ATOM     23  H   UNL     1       8.966   4.587  22.887  0.00  0.00    +0.288 HD
ENDBRANCH   7  18
TORSDOF 2
ENDMDL
MODEL 3
REMARK VINA RESULT:      -6.9      3.451      5.628
REMARK  Name = 
REMARK  3 active torsions:
REMARK  status: ('A' for Active; 'I' for Inactive)
REMARK    1  A    between atoms: C_1  and  C_2
REMARK    2  A    between atoms: C_6  and  C_8
REMARK    3  A    between atoms: C_15  and  C_17
REMARK                            x       y       z     vdW  Elec       q    Type
REMARK                         _______ _______ _______ _____ _____    ______ ____
ROOT
ATOM      1  C   UNL     1       7.712  -3.251  23.571  0.00  0.00    +0.047 A 
ATOM      2  N   UNL     1       7.682  -3.781  24.843  0.00  0.00    -0.354 N 
ATOM      3  H   UNL     1       8.261  -3.466  25.606  0.00  0.00    +0.166 HD
ATOM      4  C   UNL     1       6.717  -4.754  24.951  0.00  0.00    +0.047 A 
ATOM      5  C   UNL     1       6.292  -5.482  26.069  0.00  0.00    +0.027 A 
ATOM      6  C   UNL     1       5.234  -6.381  25.890  0.00  0.00    +0.018 A 
ATOM      7  C   UNL     1       4.651  -6.566  24.631  0.00  0.00    +0.065 A 
ATOM      8  C   UNL     1       5.124  -5.854  23.517  0.00  0.00    +0.026 A 
ATOM      9  C   UNL     1       6.163  -4.918  23.686  0.00  0.00    +0.001 A 
ATOM     10  C   UNL     1       6.826  -4.005  22.819  0.00  0.00    +0.036 A 
ENDROOT
BRANCH   1  14
ATOM     11  C   UNL     1      10.796   0.463  24.911  0.00  0.00    +0.044 C 
ATOM     12  C   UNL     1      10.067  -0.296  23.843  0.00  0.00    -0.050 A 
ATOM     13  C   UNL     1       9.264  -1.397  24.187  0.00  0.00    +0.013 A 
ATOM     14  C   UNL     1       8.560  -2.111  23.208  0.00  0.00    -0.001 A 
ATOM     15  C   UNL     1       8.696  -1.725  21.867  0.00  0.00    +0.010 A 
ATOM     16  C   UNL     1       9.502  -0.641  21.515  0.00  0.00    +0.001 A 
ATOM     17  C   UNL     1      10.182   0.072  22.499  0.00  0.00    +0.003 A 
ENDBRANCH   1  14
BRANCH   7  18
ATOM     18  C   UNL     1       3.479  -7.474  24.465  0.00  0.00    +0.308 C 
ATOM     19  N   UNL     1       3.069  -8.283  25.389  0.00  0.00    -0.099 NA
ATOM     20  H   UNL     1       3.677  -8.257  26.208  0.00  0.00    +0.363 HD
ATOM     21  N   UNL     1       2.766  -7.467  23.302  0.00  0.00    -0.247 N 
ATOM     22  H   UNL     1       1.885  -7.956  23.417  0.00  0.00    +0.288 HD
ATOM     23  H   UNL     1       2.655  -6.563  22.858  0.00  0.00    +0.288 HD
ENDBRANCH   7  18
TORSDOF 2
ENDMDL
MODEL 4
REMARK VINA RESULT:      -6.8      2.991      4.629
REMARK  Name = 
REMARK  3 active torsions:
REMARK  status: ('A' for Active; 'I' for Inactive)
REMARK    1  A    between atoms: C_1  and  C_2
REMARK    2  A    between atoms: C_6  and  C_8
REMARK    3  A    between atoms: C_15  and  C_17
REMARK                            x       y       z     vdW  Elec       q    Type
REMARK                         _______ _______ _______ _____ _____    ______ ____
ROOT
ATOM      1  C   UNL     1       7.601  -1.487  23.058  0.00  0.00    +0.047 A 
ATOM      2  N   UNL     1       7.777  -2.518  22.161  0.00  0.00    -0.354 N 
ATOM      3  H   UNL     1       8.374  -2.473  21.349  0.00  0.00    +0.166 HD
ATOM      4  C   UNL     1       7.079  -3.637  22.549  0.00  0.00    +0.047 A 
ATOM      5  C   UNL     1       7.044  -4.918  21.985  0.00  0.00    +0.027 A 
ATOM      6  C   UNL     1       6.276  -5.889  22.638  0.00  0.00    +0.018 A 
ATOM      7  C   UNL     1       5.546  -5.576  23.790  0.00  0.00    +0.065 A 
ATOM      8  C   UNL     1       5.564  -4.272  24.312  0.00  0.00    +0.026 A 
ATOM      9  C   UNL     1       6.360  -3.291  23.689  0.00  0.00    +0.001 A 
ATOM     10  C   UNL     1       6.658  -1.929  23.972  0.00  0.00    +0.036 A 
ENDROOT
BRANCH   1  14
ATOM     11  C   UNL     1       8.623   3.081  24.847  0.00  0.00    +0.044 C 
ATOM     12  C   UNL     1       8.839   2.012  23.817  0.00  0.00    -0.050 A 
ATOM     13  C   UNL     1       8.154   0.789  23.918  0.00  0.00    +0.013 A 
ATOM     14  C   UNL     1       8.327  -0.217  22.958  0.00  0.00    -0.001 A 
ATOM     15  C   UNL     1       9.225   0.007  21.905  0.00  0.00    +0.010 A 
ATOM     16  C   UNL     1       9.921   1.213  21.804  0.00  0.00    +0.001 A 
ATOM     17  C   UNL     1       9.725   2.213  22.754  0.00  0.00    +0.003 A 
ENDBRANCH   1  14
BRANCH   7  18
ATOM     18  C   UNL     1       4.787  -6.634  24.517  0.00  0.00    +0.308 C 
ATOM     19  N   UNL     1       4.040  -7.511  23.923  0.00  0.00    -0.099 NA
ATOM     20  H   UNL     1       3.998  -7.348  22.917  0.00  0.00    +0.363 HD
ATOM     21  N   UNL     1       4.873  -6.729  25.876  0.00  0.00    -0.247 N 
ATOM     22  H   UNL     1       4.495  -7.613  26.200  0.00  0.00    +0.288 HD
ATOM     23  H   UNL     1       5.779  -6.522  26.277  0.00  0.00    +0.288 HD
ENDBRANCH   7  18
TORSDOF 2
ENDMDL
MODEL 5
REMARK VINA RESULT:      -6.8      3.371      4.988
REMARK  Name = 
REMARK  3 active torsions:
REMARK  status: ('A' for Active; 'I' for Inactive)
REMARK    1  A    between atoms: C_1  and  C_2
REMARK    2  A    between atoms: C_6  and  C_8
REMARK    3  A    between atoms: C_15  and  C_17
REMARK                            x       y       z     vdW  Elec       q    Type
REMARK                         _______ _______ _______ _____ _____    ______ ____
ROOT
ATOM      1  C   UNL     1       7.709  -2.355  23.839  0.00  0.00    +0.047 A 
ATOM      2  N   UNL     1       8.450  -2.805  24.910  0.00  0.00    -0.354 N 
ATOM      3  H   UNL     1       9.328  -2.406  25.204  0.00  0.00    +0.166 HD
ATOM      4  C   UNL     1       7.806  -3.830  25.562  0.00  0.00    +0.047 A 
ATOM      5  C   UNL     1       8.155  -4.513  26.733  0.00  0.00    +0.027 A 
ATOM      6  C   UNL     1       7.266  -5.488  27.200  0.00  0.00    +0.018 A 
ATOM      7  C   UNL     1       6.093  -5.789  26.499  0.00  0.00    +0.065 A 
ATOM      8  C   UNL     1       5.787  -5.119  25.304  0.00  0.00    +0.026 A 
ATOM      9  C   UNL     1       6.652  -4.109  24.838  0.00  0.00    +0.001 A 
ATOM     10  C   UNL     1       6.625  -3.211  23.735  0.00  0.00    +0.036 A 
ENDROOT
BRANCH   1  14
ATOM     11  C   UNL     1       6.836   2.332  22.297  0.00  0.00    +0.044 C 
ATOM     12  C   UNL     1       7.689   1.098  22.281  0.00  0.00    -0.050 A 
ATOM     13  C   UNL     1       7.325  -0.018  23.054  0.00  0.00    +0.013 A 
ATOM     14  C   UNL     1       8.097  -1.188  23.042  0.00  0.00    -0.001 A 
ATOM     15  C   UNL     1       9.263  -1.214  22.263  0.00  0.00    +0.010 A 
ATOM     16  C   UNL     1       9.639  -0.106  21.502  0.00  0.00    +0.001 A 
ATOM     17  C   UNL     1       8.853   1.044  21.509  0.00  0.00    +0.003 A 
ENDBRANCH   1  14
BRANCH   7  18
ATOM     18  C   UNL     1       5.119  -6.780  27.042  0.00  0.00    +0.308 C 
ATOM     19  N   UNL     1       4.059  -7.160  26.402  0.00  0.00    -0.099 NA
ATOM     20  H   UNL     1       3.953  -6.659  25.520  0.00  0.00    +0.363 HD
ATOM     21  N   UNL     1       5.331  -7.352  28.262  0.00  0.00    -0.247 N 
ATOM     22  H   UNL     1       4.724  -8.154  28.394  0.00  0.00    +0.288 HD
ATOM     23  H   UNL     1       6.296  -7.552  28.495  0.00  0.00    +0.288 HD
ENDBRANCH   7  18
TORSDOF 2
ENDMDL
MODEL 6
REMARK VINA RESULT:      -6.8      3.441      5.013
REMARK  Name = 
REMARK  3 active torsions:
REMARK  status: ('A' for Active; 'I' for Inactive)
REMARK    1  A    between atoms: C_1  and  C_2
REMARK    2  A    between atoms: C_6  and  C_8
REMARK    3  A    between atoms: C_15  and  C_17
REMARK                            x       y       z     vdW  Elec       q    Type
REMARK                         _______ _______ _______ _____ _____    ______ ____
ROOT
ATOM      1  C   UNL     1       7.641  -1.760  22.619  0.00  0.00    +0.047 A 
ATOM      2  N   UNL     1       8.087  -3.006  22.234  0.00  0.00    -0.354 N 
ATOM      3  H   UNL     1       9.024  -3.205  21.918  0.00  0.00    +0.166 HD
ATOM      4  C   UNL     1       7.105  -3.955  22.395  0.00  0.00    +0.047 A 
ATOM      5  C   UNL     1       7.153  -5.342  22.210  0.00  0.00    +0.027 A 
ATOM      6  C   UNL     1       5.997  -6.073  22.509  0.00  0.00    +0.018 A 
ATOM      7  C   UNL     1       4.831  -5.432  22.941  0.00  0.00    +0.065 A 
ATOM      8  C   UNL     1       4.796  -4.034  23.078  0.00  0.00    +0.026 A 
ATOM      9  C   UNL     1       5.961  -3.287  22.817  0.00  0.00    +0.001 A 
ATOM     10  C   UNL     1       6.295  -1.906  22.908  0.00  0.00    +0.036 A 
ENDROOT
BRANCH   1  14
ATOM     11  C   UNL     1      11.389   0.766  24.782  0.00  0.00    +0.044 C 
ATOM     12  C   UNL     1      10.345   0.658  23.711  0.00  0.00    -0.050 A 
ATOM     13  C   UNL     1       9.512  -0.472  23.652  0.00  0.00    +0.013 A 
ATOM     14  C   UNL     1       8.518  -0.587  22.670  0.00  0.00    -0.001 A 
ATOM     15  C   UNL     1       8.391   0.438  21.722  0.00  0.00    +0.010 A 
ATOM     16  C   UNL     1       9.223   1.558  21.764  0.00  0.00    +0.001 A 
ATOM     17  C   UNL     1      10.193   1.669  22.756  0.00  0.00    +0.003 A 
ENDBRANCH   1  14
BRANCH   7  18
ATOM     18  C   UNL     1       3.627  -6.225  23.323  0.00  0.00    +0.308 C 
ATOM     19  N   UNL     1       3.688  -7.435  23.781  0.00  0.00    -0.099 NA
ATOM     20  H   UNL     1       4.646  -7.785  23.792  0.00  0.00    +0.363 HD
ATOM     21  N   UNL     1       2.383  -5.676  23.218  0.00  0.00    -0.247 N 
ATOM     22  H   UNL     1       1.699  -6.236  23.716  0.00  0.00    +0.288 HD
ATOM     23  H   UNL     1       2.314  -4.690  23.439  0.00  0.00    +0.288 HD
ENDBRANCH   7  18
TORSDOF 2
ENDMDL
MODEL 7
REMARK VINA RESULT:      -6.8      3.488      8.291
REMARK  Name = 
REMARK  3 active torsions:
REMARK  status: ('A' for Active; 'I' for Inactive)
REMARK    1  A    between atoms: C_1  and  C_2
REMARK    2  A    between atoms: C_6  and  C_8
REMARK    3  A    between atoms: C_15  and  C_17
REMARK                            x       y       z     vdW  Elec       q    Type
REMARK                         _______ _______ _______ _____ _____    ______ ____
ROOT
ATOM      1  C   UNL     1       7.150  -2.246  22.703  0.00  0.00    +0.047 A 
ATOM      2  N   UNL     1       8.378  -1.973  22.140  0.00  0.00    -0.354 N 
ATOM      3  H   UNL     1       8.961  -2.657  21.680  0.00  0.00    +0.166 HD
ATOM      4  C   UNL     1       8.680  -0.635  22.232  0.00  0.00    +0.047 A 
ATOM      5  C   UNL     1       9.770   0.080  21.724  0.00  0.00    +0.027 A 
ATOM      6  C   UNL     1       9.785   1.465  21.929  0.00  0.00    +0.018 A 
ATOM      7  C   UNL     1       8.764   2.099  22.645  0.00  0.00    +0.065 A 
ATOM      8  C   UNL     1       7.703   1.352  23.182  0.00  0.00    +0.026 A 
ATOM      9  C   UNL     1       7.653  -0.037  22.955  0.00  0.00    +0.001 A 
ATOM     10  C   UNL     1       6.723  -1.063  23.285  0.00  0.00    +0.036 A 
ENDROOT
BRANCH   1  14
ATOM     11  C   UNL     1       3.173  -5.207  23.423  0.00  0.00    +0.044 C 
ATOM     12  C   UNL     1       4.594  -5.028  22.977  0.00  0.00    -0.050 A 
ATOM     13  C   UNL     1       5.192  -3.757  23.030  0.00  0.00    +0.013 A 
ATOM     14  C   UNL     1       6.524  -3.569  22.634  0.00  0.00    -0.001 A 
ATOM     15  C   UNL     1       7.243  -4.672  22.152  0.00  0.00    +0.010 A 
ATOM     16  C   UNL     1       6.652  -5.935  22.083  0.00  0.00    +0.001 A 
ATOM     17  C   UNL     1       5.334  -6.112  22.497  0.00  0.00    +0.003 A 
ENDBRANCH   1  14
BRANCH   7  18
ATOM     18  C   UNL     1       8.754   3.583  22.798  0.00  0.00    +0.308 C 
ATOM     19  N   UNL     1       9.695   4.244  23.393  0.00  0.00    -0.099 NA
ATOM     20  H   UNL     1      10.402   3.621  23.785  0.00  0.00    +0.363 HD
ATOM     21  N   UNL     1       7.727   4.317  22.281  0.00  0.00    -0.247 N 
ATOM     22  H   UNL     1       7.964   5.304  22.262  0.00  0.00    +0.288 HD
ATOM     23  H   UNL     1       7.350   3.991  21.400  0.00  0.00    +0.288 HD
ENDBRANCH   7  18
TORSDOF 2
ENDMDL
MODEL 8
REMARK VINA RESULT:      -6.7      1.024      1.839
REMARK  Name = 
REMARK  3 active torsions:
REMARK  status: ('A' for Active; 'I' for Inactive)
REMARK    1  A    between atoms: C_1  and  C_2
REMARK    2  A    between atoms: C_6  and  C_8
REMARK    3  A    between atoms: C_15  and  C_17
REMARK                            x       y       z     vdW  Elec       q    Type
REMARK                         _______ _______ _______ _____ _____    ______ ____
ROOT
ATOM      1  C   UNL     1      10.029   1.860  23.818  0.00  0.00    +0.047 A 
ATOM      2  N   UNL     1       9.765   1.245  25.023  0.00  0.00    -0.354 N 
ATOM      3  H   UNL     1       9.810   1.704  25.920  0.00  0.00    +0.166 HD
ATOM      4  C   UNL     1       9.375  -0.060  24.839  0.00  0.00    +0.047 A 
ATOM      5  C   UNL     1       8.937  -1.010  25.769  0.00  0.00    +0.027 A 
ATOM      6  C   UNL     1       8.545  -2.261  25.278  0.00  0.00    +0.018 A 
ATOM      7  C   UNL     1       8.624  -2.556  23.913  0.00  0.00    +0.065 A 
ATOM      8  C   UNL     1       9.107  -1.599  23.005  0.00  0.00    +0.026 A 
ATOM      9  C   UNL     1       9.471  -0.323  23.476  0.00  0.00    +0.001 A 
ATOM     10  C   UNL     1       9.927   0.872  22.852  0.00  0.00    +0.036 A 
ENDROOT
BRANCH   1  14
ATOM     11  C   UNL     1       8.570   6.650  23.970  0.00  0.00    +0.044 C 
ATOM     12  C   UNL     1       9.651   5.629  23.782  0.00  0.00    -0.050 A 
ATOM     13  C   UNL     1       9.354   4.260  23.898  0.00  0.00    +0.013 A 
ATOM     14  C   UNL     1      10.345   3.287  23.710  0.00  0.00    -0.001 A 
ATOM     15  C   UNL     1      11.653   3.707  23.432  0.00  0.00    +0.010 A 
ATOM     16  C   UNL     1      11.961   5.065  23.328  0.00  0.00    +0.001 A 
ATOM     17  C   UNL     1      10.964   6.021  23.499  0.00  0.00    +0.003 A 
ENDBRANCH   1  14
BRANCH   7  18
ATOM     18  C   UNL     1       8.139  -3.867  23.391  0.00  0.00    +0.308 C 
ATOM     19  N   UNL     1       8.481  -5.007  23.903  0.00  0.00    -0.099 NA
ATOM     20  H   UNL     1       9.157  -4.892  24.659  0.00  0.00    +0.363 HD
ATOM     21  N   UNL     1       7.276  -3.908  22.336  0.00  0.00    -0.247 N 
ATOM     22  H   UNL     1       6.866  -4.831  22.242  0.00  0.00    +0.288 HD
ATOM     23  H   UNL     1       6.584  -3.169  22.302  0.00  0.00    +0.288 HD
ENDBRANCH   7  18
TORSDOF 2
ENDMDL
MODEL 9
REMARK VINA RESULT:      -6.6      3.518      8.447
REMARK  Name = 
REMARK  3 active torsions:
REMARK  status: ('A' for Active; 'I' for Inactive)
REMARK    1  A    between atoms: C_1  and  C_2
REMARK    2  A    between atoms: C_6  and  C_8
REMARK    3  A    between atoms: C_15  and  C_17
REMARK                            x       y       z     vdW  Elec       q    Type
REMARK                         _______ _______ _______ _____ _____    ______ ____
ROOT
ATOM      1  C   UNL     1       6.597  -3.313  23.632  0.00  0.00    +0.047 A 
ATOM      2  N   UNL     1       7.933  -3.419  23.310  0.00  0.00    -0.354 N 
ATOM      3  H   UNL     1       8.450  -4.285  23.297  0.00  0.00    +0.166 HD
ATOM      4  C   UNL     1       8.455  -2.199  22.951  0.00  0.00    +0.047 A 
ATOM      5  C   UNL     1       9.729  -1.868  22.477  0.00  0.00    +0.027 A 
ATOM      6  C   UNL     1       9.963  -0.531  22.133  0.00  0.00    +0.018 A 
ATOM      7  C   UNL     1       8.967   0.438  22.293  0.00  0.00    +0.065 A 
ATOM      8  C   UNL     1       7.710   0.088  22.811  0.00  0.00    +0.026 A 
ATOM      9  C   UNL     1       7.445  -1.259  23.128  0.00  0.00    +0.001 A 
ATOM     10  C   UNL     1       6.300  -1.960  23.599  0.00  0.00    +0.036 A 
ENDROOT
BRANCH   1  14
ATOM     11  C   UNL     1       4.959  -6.761  26.877  0.00  0.00    +0.044 C 
ATOM     12  C   UNL     1       4.948  -6.166  25.500  0.00  0.00    -0.050 A 
ATOM     13  C   UNL     1       5.740  -5.041  25.215  0.00  0.00    +0.013 A 
ATOM     14  C   UNL     1       5.759  -4.478  23.931  0.00  0.00    -0.001 A 
ATOM     15  C   UNL     1       4.945  -5.043  22.939  0.00  0.00    +0.010 A 
ATOM     16  C   UNL     1       4.145  -6.152  23.217  0.00  0.00    +0.001 A 
ATOM     17  C   UNL     1       4.149  -6.713  24.491  0.00  0.00    +0.003 A 
ENDBRANCH   1  14
BRANCH   7  18
ATOM     18  C   UNL     1       9.203   1.846  21.859  0.00  0.00    +0.308 C 
ATOM     19  N   UNL     1      10.381   2.381  21.788  0.00  0.00    -0.099 NA
ATOM     20  H   UNL     1      11.105   1.741  22.116  0.00  0.00    +0.363 HD
ATOM     21  N   UNL     1       8.153   2.635  21.492  0.00  0.00    -0.247 N 
ATOM     22  H   UNL     1       8.479   3.469  21.015  0.00  0.00    +0.288 HD
ATOM     23  H   UNL     1       7.403   2.170  20.994  0.00  0.00    +0.288 HD
ENDBRANCH   7  18
TORSDOF 2
ENDMDL
