MODEL 1
REMARK VINA RESULT:      -7.7      0.000      0.000
REMARK  Name = 
REMARK  5 active torsions:
REMARK  status: ('A' for Active; 'I' for Inactive)
REMARK    1  A    between atoms: C_1  and  C_2
REMARK    2  A    between atoms: C_5  and  C_7
REMARK    3  A    between atoms: N_11  and  S_12
REMARK    4  A    between atoms: S_12  and  C_15
REMARK    5  A    between atoms: C_18  and  C_19
REMARK                            x       y       z     vdW  Elec       q    Type
REMARK                         _______ _______ _______ _____ _____    ______ ____
ROOT
ATOM      1  C   UNL     1       9.380   0.670  22.307  0.00  0.00    +0.066 C 
ATOM      2  C   UNL     1       9.395  -0.207  23.319  0.00  0.00    +0.082 C 
ATOM      3  C   UNL     1      10.072  -1.540  23.214  0.00  0.00    +0.276 C 
ATOM      4  O   UNL     1      10.848  -1.825  22.316  0.00  0.00    -0.267 OA
ATOM      5  N   UNL     1       9.687  -2.386  24.236  0.00  0.00    -0.153 NA
ATOM      6  C   UNL     1       8.958  -1.773  25.095  0.00  0.00    +0.171 C 
ATOM      7  N   UNL     1       8.368  -2.302  26.224  0.00  0.00    -0.196 N 
ATOM      8  H   UNL     1       7.899  -1.684  26.879  0.00  0.00    +0.176 HD
ATOM      9  S   UNL     1       8.644  -0.092  24.864  0.00  0.00    -0.050 S 
ENDROOT
BRANCH   1  13
ATOM     10  C   UNL     1       8.199   5.213  23.491  0.00  0.00    +0.086 C 
ATOM     11  C   UNL     1       7.952   3.913  22.832  0.00  0.00    +0.103 A 
ATOM     12  O   UNL     1       8.930   2.991  22.982  0.00  0.00    -0.461 OA
ATOM     13  C   UNL     1       8.573   1.840  22.317  0.00  0.00    +0.129 A 
ATOM     14  C   UNL     1       7.317   2.062  21.764  0.00  0.00    +0.049 A 
ATOM     15  C   UNL     1       6.929   3.389  22.080  0.00  0.00    +0.045 A 
ENDBRANCH   1  13
BRANCH   7  16
ATOM     16  S   UNL     1       7.874  -3.880  26.376  0.00  0.00    +0.074 S 
ATOM     17  O   UNL     1       6.706  -3.901  27.230  0.00  0.00    -0.150 OA
ATOM     18  O   UNL     1       9.063  -4.633  26.713  0.00  0.00    -0.150 OA
BRANCH  16  19
ATOM     19  C   UNL     1       7.417  -4.309  24.728  0.00  0.00    +0.109 A 
ATOM     20  C   UNL     1       8.162  -5.253  24.021  0.00  0.00    +0.029 A 
ATOM     21  C   UNL     1       7.733  -5.650  22.756  0.00  0.00    +0.005 A 
ATOM     22  C   UNL     1       6.560  -5.114  22.203  0.00  0.00    -0.050 A 
ATOM     23  C   UNL     1       6.069  -5.611  20.876  0.00  0.00    +0.044 C 
ATOM     24  C   UNL     1       5.852  -4.131  22.906  0.00  0.00    +0.005 A 
ATOM     25  C   UNL     1       6.279  -3.724  24.168  0.00  0.00    +0.029 A 
ENDBRANCH  16  19
ENDBRANCH   7  16
TORSDOF 3
ENDMDL
MODEL 2
REMARK VINA RESULT:      -7.6      2.971      7.854
REMARK  Name = 
REMARK  5 active torsions:
REMARK  status: ('A' for Active; 'I' for Inactive)
REMARK    1  A    between atoms: C_1  and  C_2
REMARK    2  A    between atoms: C_5  and  C_7
REMARK    3  A    between atoms: N_11  and  S_12
REMARK    4  A    between atoms: S_12  and  C_15
REMARK    5  A    between atoms: C_18  and  C_19
REMARK                            x       y       z     vdW  Elec       q    Type
REMARK                         _______ _______ _______ _____ _____    ______ ____
ROOT
ATOM      1  C   UNL     1       5.512  -6.407  24.581  0.00  0.00    +0.066 C 
ATOM      2  C   UNL     1       6.035  -5.318  24.004  0.00  0.00    +0.082 C 
ATOM      3  C   UNL     1       6.673  -5.357  22.649  0.00  0.00    +0.276 C 
ATOM      4  O   UNL     1       6.552  -6.300  21.882  0.00  0.00    -0.267 OA
ATOM      5  N   UNL     1       7.416  -4.219  22.404  0.00  0.00    -0.153 NA
ATOM      6  C   UNL     1       7.258  -3.354  23.339  0.00  0.00    +0.171 C 
ATOM      7  N   UNL     1       7.864  -2.119  23.449  0.00  0.00    -0.196 N 
ATOM      8  H   UNL     1       7.573  -1.485  24.187  0.00  0.00    +0.176 HD
ATOM      9  S   UNL     1       6.178  -3.721  24.632  0.00  0.00    -0.050 S 
ENDROOT
BRANCH   1  13
ATOM     10  C   UNL     1       6.096  -6.621  29.382  0.00  0.00    +0.086 C 
ATOM     11  C   UNL     1       5.279  -6.543  28.154  0.00  0.00    +0.103 A 
ATOM     12  O   UNL     1       5.975  -6.509  26.994  0.00  0.00    -0.461 OA
ATOM     13  C   UNL     1       5.094  -6.431  25.940  0.00  0.00    +0.129 A 
ATOM     14  C   UNL     1       3.812  -6.447  26.477  0.00  0.00    +0.049 A 
ATOM     15  C   UNL     1       3.932  -6.503  27.890  0.00  0.00    +0.045 A 
ENDBRANCH   1  13
BRANCH   7  16
ATOM     16  S   UNL     1       9.370  -1.754  22.854  0.00  0.00    +0.074 S 
ATOM     17  O   UNL     1       9.346  -1.962  21.423  0.00  0.00    -0.150 OA
ATOM     18  O   UNL     1      10.308  -2.462  23.699  0.00  0.00    -0.150 OA
BRANCH  16  19
ATOM     19  C   UNL     1       9.525  -0.033  23.207  0.00  0.00    +0.109 A 
ATOM     20  C   UNL     1      10.022   0.836  22.235  0.00  0.00    +0.029 A 
ATOM     21  C   UNL     1      10.049   2.205  22.496  0.00  0.00    +0.005 A 
ATOM     22  C   UNL     1       9.573   2.704  23.718  0.00  0.00    -0.050 A 
ATOM     23  C   UNL     1       9.535   4.185  23.951  0.00  0.00    +0.044 C 
ATOM     24  C   UNL     1       9.123   1.813  24.700  0.00  0.00    +0.005 A 
ATOM     25  C   UNL     1       9.101   0.443  24.450  0.00  0.00    +0.029 A 
ENDBRANCH  16  19
ENDBRANCH   7  16
TORSDOF 3
ENDMDL
MODEL 3
REMARK VINA RESULT:      -7.3      2.092      7.456
REMARK  Name = 
REMARK  5 active torsions:
REMARK  status: ('A' for Active; 'I' for Inactive)
REMARK    1  A    between atoms: C_1  and  C_2
REMARK    2  A    between atoms: C_5  and  C_7
REMARK    3  A    between atoms: N_11  and  S_12
REMARK    4  A    between atoms: S_12  and  C_15
REMARK    5  A    between atoms: C_18  and  C_19
REMARK                            x       y       z     vdW  Elec       q    Type
REMARK                         _______ _______ _______ _____ _____    ______ ____
ROOT
ATOM      1  C   UNL     1       7.450  -4.744  23.936  0.00  0.00    +0.066 C 
ATOM      2  C   UNL     1       8.038  -3.568  23.682  0.00  0.00    +0.082 C 
ATOM      3  C   UNL     1       9.441  -3.264  24.112  0.00  0.00    +0.276 C 
ATOM      4  O   UNL     1      10.221  -4.121  24.497  0.00  0.00    -0.267 OA
ATOM      5  N   UNL     1       9.713  -1.912  24.036  0.00  0.00    -0.153 NA
ATOM      6  C   UNL     1       8.746  -1.276  23.483  0.00  0.00    +0.171 C 
ATOM      7  N   UNL     1       8.651   0.084  23.269  0.00  0.00    -0.196 N 
ATOM      8  H   UNL     1       7.875   0.451  22.727  0.00  0.00    +0.176 HD
ATOM      9  S   UNL     1       7.380  -2.168  22.925  0.00  0.00    -0.050 S 
ENDROOT
BRANCH   1  13
ATOM     10  C   UNL     1       2.717  -4.409  24.891  0.00  0.00    +0.086 C 
ATOM     11  C   UNL     1       3.874  -4.880  24.103  0.00  0.00    +0.103 A 
ATOM     12  O   UNL     1       5.085  -4.469  24.547  0.00  0.00    -0.461 OA
ATOM     13  C   UNL     1       6.064  -4.972  23.721  0.00  0.00    +0.129 A 
ATOM     14  C   UNL     1       5.427  -5.742  22.754  0.00  0.00    +0.049 A 
ATOM     15  C   UNL     1       4.029  -5.669  22.990  0.00  0.00    +0.045 A 
ENDBRANCH   1  13
BRANCH   7  16
ATOM     16  S   UNL     1       9.355   1.240  24.231  0.00  0.00    +0.074 S 
ATOM     17  O   UNL     1      10.778   1.232  23.968  0.00  0.00    -0.150 OA
ATOM     18  O   UNL     1       8.838   1.009  25.563  0.00  0.00    -0.150 OA
BRANCH  16  19
ATOM     19  C   UNL     1       8.644   2.738  23.632  0.00  0.00    +0.109 A 
ATOM     20  C   UNL     1       9.066   3.964  24.145  0.00  0.00    +0.029 A 
ATOM     21  C   UNL     1       8.563   5.141  23.594  0.00  0.00    +0.005 A 
ATOM     22  C   UNL     1       7.651   5.094  22.529  0.00  0.00    -0.050 A 
ATOM     23  C   UNL     1       7.181   6.369  21.895  0.00  0.00    +0.044 C 
ATOM     24  C   UNL     1       7.202   3.853  22.059  0.00  0.00    +0.005 A 
ATOM     25  C   UNL     1       7.694   2.673  22.610  0.00  0.00    +0.029 A 
ENDBRANCH  16  19
ENDBRANCH   7  16
TORSDOF 3
ENDMDL
MODEL 4
REMARK VINA RESULT:      -7.2      2.979      7.520
REMARK  Name = 
REMARK  5 active torsions:
REMARK  status: ('A' for Active; 'I' for Inactive)
REMARK    1  A    between atoms: C_1  and  C_2
REMARK    2  A    between atoms: C_5  and  C_7
REMARK    3  A    between atoms: N_11  and  S_12
REMARK    4  A    between atoms: S_12  and  C_15
REMARK    5  A    between atoms: C_18  and  C_19
REMARK                            x       y       z     vdW  Elec       q    Type
REMARK                         _______ _______ _______ _____ _____    ______ ____
ROOT
ATOM      1  C   UNL     1       4.740  -5.765  23.172  0.00  0.00    +0.066 C 
ATOM      2  C   UNL     1       5.664  -4.864  22.814  0.00  0.00    +0.082 C 
ATOM      3  C   UNL     1       7.018  -5.261  22.311  0.00  0.00    +0.276 C 
ATOM      4  O   UNL     1       7.294  -6.399  21.965  0.00  0.00    -0.267 OA
ATOM      5  N   UNL     1       7.894  -4.193  22.316  0.00  0.00    -0.153 NA
ATOM      6  C   UNL     1       7.291  -3.101  22.614  0.00  0.00    +0.171 C 
ATOM      7  N   UNL     1       7.847  -1.845  22.747  0.00  0.00    -0.196 N 
ATOM      8  H   UNL     1       7.240  -1.043  22.886  0.00  0.00    +0.176 HD
ATOM      9  S   UNL     1       5.589  -3.146  22.895  0.00  0.00    -0.050 S 
ENDROOT
BRANCH   1  13
ATOM     10  C   UNL     1       1.929  -4.791  26.990  0.00  0.00    +0.086 C 
ATOM     11  C   UNL     1       2.177  -4.967  25.545  0.00  0.00    +0.103 A 
ATOM     12  O   UNL     1       3.449  -5.283  25.208  0.00  0.00    -0.461 OA
ATOM     13  C   UNL     1       3.537  -5.409  23.840  0.00  0.00    +0.129 A 
ATOM     14  C   UNL     1       2.264  -5.187  23.327  0.00  0.00    +0.049 A 
ATOM     15  C   UNL     1       1.402  -4.890  24.414  0.00  0.00    +0.045 A 
ENDBRANCH   1  13
BRANCH   7  16
ATOM     16  S   UNL     1       9.407  -1.554  23.234  0.00  0.00    +0.074 S 
ATOM     17  O   UNL     1      10.293  -1.997  22.180  0.00  0.00    -0.150 OA
ATOM     18  O   UNL     1       9.507  -2.093  24.573  0.00  0.00    -0.150 OA
BRANCH  16  19
ATOM     19  C   UNL     1       9.458   0.204  23.359  0.00  0.00    +0.109 A 
ATOM     20  C   UNL     1       8.958   0.837  24.497  0.00  0.00    +0.029 A 
ATOM     21  C   UNL     1       9.092   2.219  24.622  0.00  0.00    +0.005 A 
ATOM     22  C   UNL     1       9.730   2.964  23.619  0.00  0.00    -0.050 A 
ATOM     23  C   UNL     1       9.937   4.437  23.805  0.00  0.00    +0.044 C 
ATOM     24  C   UNL     1      10.183   2.318  22.461  0.00  0.00    +0.005 A 
ATOM     25  C   UNL     1      10.046   0.939  22.326  0.00  0.00    +0.029 A 
ENDBRANCH  16  19
ENDBRANCH   7  16
TORSDOF 3
ENDMDL
MODEL 5
REMARK VINA RESULT:      -7.2      2.329      3.052
REMARK  Name = 
REMARK  5 active torsions:
REMARK  status: ('A' for Active; 'I' for Inactive)
REMARK    1  A    between atoms: C_1  and  C_2
REMARK    2  A    between atoms: C_5  and  C_7
REMARK    3  A    between atoms: N_11  and  S_12
REMARK    4  A    between atoms: S_12  and  C_15
REMARK    5  A    between atoms: C_18  and  C_19
REMARK                            x       y       z     vdW  Elec       q    Type
REMARK                         _______ _______ _______ _____ _____    ______ ____
ROOT
ATOM      1  C   UNL     1       9.677   0.813  22.247  0.00  0.00    +0.066 C 
ATOM      2  C   UNL     1       9.577  -0.322  22.951  0.00  0.00    +0.082 C 
ATOM      3  C   UNL     1      10.399  -1.534  22.635  0.00  0.00    +0.276 C 
ATOM      4  O   UNL     1      11.370  -1.508  21.895  0.00  0.00    -0.267 OA
ATOM      5  N   UNL     1       9.905  -2.660  23.265  0.00  0.00    -0.153 NA
ATOM      6  C   UNL     1       8.953  -2.359  24.071  0.00  0.00    +0.171 C 
ATOM      7  N   UNL     1       8.204  -3.223  24.843  0.00  0.00    -0.196 N 
ATOM      8  H   UNL     1       7.547  -2.846  25.519  0.00  0.00    +0.176 HD
ATOM      9  S   UNL     1       8.516  -0.701  24.252  0.00  0.00    -0.050 S 
ENDROOT
BRANCH   1  13
ATOM     10  C   UNL     1       7.962   4.911  24.169  0.00  0.00    +0.086 C 
ATOM     11  C   UNL     1       7.903   3.763  23.242  0.00  0.00    +0.103 A 
ATOM     12  O   UNL     1       8.946   2.904  23.315  0.00  0.00    -0.461 OA
ATOM     13  C   UNL     1       8.765   1.893  22.399  0.00  0.00    +0.129 A 
ATOM     14  C   UNL     1       7.552   2.132  21.763  0.00  0.00    +0.049 A 
ATOM     15  C   UNL     1       7.011   3.332  22.291  0.00  0.00    +0.045 A 
ENDBRANCH   1  13
BRANCH   7  16
ATOM     16  S   UNL     1       7.860  -4.795  24.432  0.00  0.00    +0.074 S 
ATOM     17  O   UNL     1       9.094  -5.549  24.484  0.00  0.00    -0.150 OA
ATOM     18  O   UNL     1       7.079  -4.721  23.216  0.00  0.00    -0.150 OA
BRANCH  16  19
ATOM     19  C   UNL     1       6.785  -5.315  25.729  0.00  0.00    +0.109 A 
ATOM     20  C   UNL     1       5.567  -5.923  25.425  0.00  0.00    +0.029 A 
ATOM     21  C   UNL     1       4.774  -6.413  26.460  0.00  0.00    +0.005 A 
ATOM     22  C   UNL     1       5.198  -6.305  27.793  0.00  0.00    -0.050 A 
ATOM     23  C   UNL     1       4.370  -6.908  28.888  0.00  0.00    +0.044 C 
ATOM     24  C   UNL     1       6.401  -5.647  28.083  0.00  0.00    +0.005 A 
ATOM     25  C   UNL     1       7.196  -5.148  27.054  0.00  0.00    +0.029 A 
ENDBRANCH  16  19
ENDBRANCH   7  16
TORSDOF 3
ENDMDL
MODEL 6
REMARK VINA RESULT:      -7.1      2.599      7.200
REMARK  Name = 
REMARK  5 active torsions:
REMARK  status: ('A' for Active; 'I' for Inactive)
REMARK    1  A    between atoms: C_1  and  C_2
REMARK    2  A    between atoms: C_5  and  C_7
REMARK    3  A    between atoms: N_11  and  S_12
REMARK    4  A    between atoms: S_12  and  C_15
REMARK    5  A    between atoms: C_18  and  C_19
REMARK                            x       y       z     vdW  Elec       q    Type
REMARK                         _______ _______ _______ _____ _____    ______ ____
ROOT
ATOM      1  C   UNL     1       5.226  -5.656  25.105  0.00  0.00    +0.066 C 
ATOM      2  C   UNL     1       6.296  -5.112  24.513  0.00  0.00    +0.082 C 
ATOM      3  C   UNL     1       7.654  -5.123  25.146  0.00  0.00    +0.276 C 
ATOM      4  O   UNL     1       7.936  -5.822  26.107  0.00  0.00    -0.267 OA
ATOM      5  N   UNL     1       8.512  -4.239  24.522  0.00  0.00    -0.153 NA
ATOM      6  C   UNL     1       7.974  -3.736  23.472  0.00  0.00    +0.171 C 
ATOM      7  N   UNL     1       8.518  -2.796  22.619  0.00  0.00    -0.196 N 
ATOM      8  H   UNL     1       8.028  -2.557  21.763  0.00  0.00    +0.176 HD
ATOM      9  S   UNL     1       6.391  -4.253  23.024  0.00  0.00    -0.050 S 
ENDROOT
BRANCH   1  13
ATOM     10  C   UNL     1       0.810  -3.680  24.949  0.00  0.00    +0.086 C 
ATOM     11  C   UNL     1       1.848  -4.628  24.496  0.00  0.00    +0.103 A 
ATOM     12  O   UNL     1       3.033  -4.544  25.143  0.00  0.00    -0.461 OA
ATOM     13  C   UNL     1       3.902  -5.473  24.619  0.00  0.00    +0.129 A 
ATOM     14  C   UNL     1       3.210  -6.169  23.634  0.00  0.00    +0.049 A 
ATOM     15  C   UNL     1       1.906  -5.618  23.546  0.00  0.00    +0.045 A 
ENDBRANCH   1  13
BRANCH   7  16
ATOM     16  S   UNL     1       9.605  -1.628  23.077  0.00  0.00    +0.074 S 
ATOM     17  O   UNL     1      10.779  -1.760  22.243  0.00  0.00    -0.150 OA
ATOM     18  O   UNL     1       9.696  -1.720  24.519  0.00  0.00    -0.150 OA
BRANCH  16  19
ATOM     19  C   UNL     1       8.759  -0.130  22.688  0.00  0.00    +0.109 A 
ATOM     20  C   UNL     1       7.424   0.033  23.057  0.00  0.00    +0.029 A 
ATOM     21  C   UNL     1       6.799   1.257  22.827  0.00  0.00    +0.005 A 
ATOM     22  C   UNL     1       7.506   2.316  22.239  0.00  0.00    -0.050 A 
ATOM     23  C   UNL     1       6.843   3.651  22.071  0.00  0.00    +0.044 C 
ATOM     24  C   UNL     1       8.832   2.119  21.830  0.00  0.00    +0.005 A 
ATOM     25  C   UNL     1       9.461   0.896  22.050  0.00  0.00    +0.029 A 
ENDBRANCH  16  19
ENDBRANCH   7  16
TORSDOF 3
ENDMDL
MODEL 7
REMARK VINA RESULT:      -7.0      2.399      7.455
REMARK  Name = 
REMARK  5 active torsions:
REMARK  status: ('A' for Active; 'I' for Inactive)
REMARK    1  A    between atoms: C_1  and  C_2
REMARK    2  A    between atoms: C_5  and  C_7
REMARK    3  A    between atoms: N_11  and  S_12
REMARK    4  A    between atoms: S_12  and  C_15
REMARK    5  A    between atoms: C_18  and  C_19
REMARK                            x       y       z     vdW  Elec       q    Type
REMARK                         _______ _______ _______ _____ _____    ______ ____
ROOT
ATOM      1  C   UNL     1       7.558  -5.374  26.153  0.00  0.00    +0.066 C 
ATOM      2  C   UNL     1       8.017  -4.422  25.332  0.00  0.00    +0.082 C 
ATOM      3  C   UNL     1       9.439  -4.387  24.861  0.00  0.00    +0.276 C 
ATOM      4  O   UNL     1      10.206  -5.330  24.985  0.00  0.00    -0.267 OA
ATOM      5  N   UNL     1       9.760  -3.165  24.304  0.00  0.00    -0.153 NA
ATOM      6  C   UNL     1       8.722  -2.417  24.201  0.00  0.00    +0.171 C 
ATOM      7  N   UNL     1       8.665  -1.124  23.723  0.00  0.00    -0.196 N 
ATOM      8  H   UNL     1       7.762  -0.678  23.597  0.00  0.00    +0.176 HD
ATOM      9  S   UNL     1       7.196  -3.046  24.702  0.00  0.00    -0.050 S 
ENDROOT
BRANCH   1  13
ATOM     10  C   UNL     1       4.350  -4.093  29.544  0.00  0.00    +0.086 C 
ATOM     11  C   UNL     1       4.749  -4.773  28.295  0.00  0.00    +0.103 A 
ATOM     12  O   UNL     1       6.050  -4.632  27.947  0.00  0.00    -0.461 OA
ATOM     13  C   UNL     1       6.279  -5.306  26.770  0.00  0.00    +0.129 A 
ATOM     14  C   UNL     1       5.078  -5.903  26.401  0.00  0.00    +0.049 A 
ATOM     15  C   UNL     1       4.101  -5.549  27.366  0.00  0.00    +0.045 A 
ENDBRANCH   1  13
BRANCH   7  16
ATOM     16  S   UNL     1       9.907  -0.026  23.829  0.00  0.00    +0.074 S 
ATOM     17  O   UNL     1      10.936  -0.426  22.894  0.00  0.00    -0.150 OA
ATOM     18  O   UNL     1      10.190   0.110  25.242  0.00  0.00    -0.150 OA
BRANCH  16  19
ATOM     19  C   UNL     1       9.153   1.473  23.286  0.00  0.00    +0.109 A 
ATOM     20  C   UNL     1       8.252   1.454  22.221  0.00  0.00    +0.029 A 
ATOM     21  C   UNL     1       7.594   2.630  21.866  0.00  0.00    +0.005 A 
ATOM     22  C   UNL     1       7.827   3.817  22.576  0.00  0.00    -0.050 A 
ATOM     23  C   UNL     1       7.052   5.054  22.233  0.00  0.00    +0.044 C 
ATOM     24  C   UNL     1       8.772   3.828  23.611  0.00  0.00    +0.005 A 
ATOM     25  C   UNL     1       9.439   2.659  23.967  0.00  0.00    +0.029 A 
ENDBRANCH  16  19
ENDBRANCH   7  16
TORSDOF 3
ENDMDL
MODEL 8
REMARK VINA RESULT:      -7.0      2.153      2.646
REMARK  Name = 
REMARK  5 active torsions:
REMARK  status: ('A' for Active; 'I' for Inactive)
REMARK    1  A    between atoms: C_1  and  C_2
REMARK    2  A    between atoms: C_5  and  C_7
REMARK    3  A    between atoms: N_11  and  S_12
REMARK    4  A    between atoms: S_12  and  C_15
REMARK    5  A    between atoms: C_18  and  C_19
REMARK                            x       y       z     vdW  Elec       q    Type
REMARK                         _______ _______ _______ _____ _____    ______ ____
ROOT
ATOM      1  C   UNL     1       9.406   2.609  23.951  0.00  0.00    +0.066 C 
ATOM      2  C   UNL     1       9.233   1.326  24.294  0.00  0.00    +0.082 C 
ATOM      3  C   UNL     1      10.380   0.372  24.433  0.00  0.00    +0.276 C 
ATOM      4  O   UNL     1      11.545   0.733  24.486  0.00  0.00    -0.267 OA
ATOM      5  N   UNL     1       9.948  -0.940  24.470  0.00  0.00    -0.153 NA
ATOM      6  C   UNL     1       8.667  -1.003  24.517  0.00  0.00    +0.171 C 
ATOM      7  N   UNL     1       7.885  -2.140  24.531  0.00  0.00    -0.196 N 
ATOM      8  H   UNL     1       6.883  -2.054  24.675  0.00  0.00    +0.176 HD
ATOM      9  S   UNL     1       7.767   0.467  24.571  0.00  0.00    -0.050 S 
ENDROOT
BRANCH   1  13
ATOM     10  C   UNL     1       6.009   5.961  24.757  0.00  0.00    +0.086 C 
ATOM     11  C   UNL     1       6.727   4.987  23.910  0.00  0.00    +0.103 A 
ATOM     12  O   UNL     1       7.744   4.331  24.515  0.00  0.00    -0.461 OA
ATOM     13  C   UNL     1       8.324   3.467  23.614  0.00  0.00    +0.129 A 
ATOM     14  C   UNL     1       7.614   3.581  22.424  0.00  0.00    +0.049 A 
ATOM     15  C   UNL     1       6.606   4.562  22.610  0.00  0.00    +0.045 A 
ENDBRANCH   1  13
BRANCH   7  16
ATOM     16  S   UNL     1       8.303  -3.579  23.816  0.00  0.00    +0.074 S 
ATOM     17  O   UNL     1       9.484  -4.082  24.485  0.00  0.00    -0.150 OA
ATOM     18  O   UNL     1       8.300  -3.325  22.392  0.00  0.00    -0.150 OA
BRANCH  16  19
ATOM     19  C   UNL     1       6.923  -4.614  24.180  0.00  0.00    +0.109 A 
ATOM     20  C   UNL     1       6.081  -5.040  23.152  0.00  0.00    +0.029 A 
ATOM     21  C   UNL     1       5.052  -5.934  23.442  0.00  0.00    +0.005 A 
ATOM     22  C   UNL     1       4.869  -6.407  24.750  0.00  0.00    -0.050 A 
ATOM     23  C   UNL     1       3.808  -7.429  25.030  0.00  0.00    +0.044 C 
ATOM     24  C   UNL     1       5.693  -5.931  25.778  0.00  0.00    +0.005 A 
ATOM     25  C   UNL     1       6.719  -5.032  25.497  0.00  0.00    +0.029 A 
ENDBRANCH  16  19
ENDBRANCH   7  16
TORSDOF 3
ENDMDL
MODEL 9
REMARK VINA RESULT:      -6.9      2.294      3.457
REMARK  Name = 
REMARK  5 active torsions:
REMARK  status: ('A' for Active; 'I' for Inactive)
REMARK    1  A    between atoms: C_1  and  C_2
REMARK    2  A    between atoms: C_5  and  C_7
REMARK    3  A    between atoms: N_11  and  S_12
REMARK    4  A    between atoms: S_12  and  C_15
REMARK    5  A    between atoms: C_18  and  C_19
REMARK                            x       y       z     vdW  Elec       q    Type
REMARK                         _______ _______ _______ _____ _____    ______ ____
ROOT
ATOM      1  C   UNL     1       7.860   3.117  22.462  0.00  0.00    +0.066 C 
ATOM      2  C   UNL     1       8.281   1.965  23.001  0.00  0.00    +0.082 C 
ATOM      3  C   UNL     1       9.538   1.284  22.554  0.00  0.00    +0.276 C 
ATOM      4  O   UNL     1      10.382   1.830  21.859  0.00  0.00    -0.267 OA
ATOM      5  N   UNL     1       9.597  -0.020  23.006  0.00  0.00    -0.153 NA
ATOM      6  C   UNL     1       8.631  -0.274  23.811  0.00  0.00    +0.171 C 
ATOM      7  N   UNL     1       8.351  -1.475  24.431  0.00  0.00    -0.196 N 
ATOM      8  H   UNL     1       7.614  -1.516  25.128  0.00  0.00    +0.176 HD
ATOM      9  S   UNL     1       7.524   0.990  24.200  0.00  0.00    -0.050 S 
ENDROOT
BRANCH   1  13
ATOM     10  C   UNL     1       3.037   3.413  22.166  0.00  0.00    +0.086 C 
ATOM     11  C   UNL     1       4.363   3.878  22.624  0.00  0.00    +0.103 A 
ATOM     12  O   UNL     1       5.413   3.123  22.227  0.00  0.00    -0.461 OA
ATOM     13  C   UNL     1       6.575   3.664  22.726  0.00  0.00    +0.129 A 
ATOM     14  C   UNL     1       6.221   4.809  23.432  0.00  0.00    +0.049 A 
ATOM     15  C   UNL     1       4.809   4.935  23.379  0.00  0.00    +0.045 A 
ENDBRANCH   1  13
BRANCH   7  16
ATOM     16  S   UNL     1       8.712  -2.967  23.798  0.00  0.00    +0.074 S 
ATOM     17  O   UNL     1      10.127  -3.200  23.986  0.00  0.00    -0.150 OA
ATOM     18  O   UNL     1       8.117  -2.987  22.479  0.00  0.00    -0.150 OA
BRANCH  16  19
ATOM     19  C   UNL     1       7.784  -4.062  24.822  0.00  0.00    +0.109 A 
ATOM     20  C   UNL     1       8.095  -4.182  26.177  0.00  0.00    +0.029 A 
ATOM     21  C   UNL     1       7.292  -4.979  26.991  0.00  0.00    +0.005 A 
ATOM     22  C   UNL     1       6.179  -5.645  26.457  0.00  0.00    -0.050 A 
ATOM     23  C   UNL     1       5.280  -6.434  27.362  0.00  0.00    +0.044 C 
ATOM     24  C   UNL     1       5.910  -5.552  25.085  0.00  0.00    +0.005 A 
ATOM     25  C   UNL     1       6.712  -4.764  24.264  0.00  0.00    +0.029 A 
ENDBRANCH  16  19
ENDBRANCH   7  16
TORSDOF 3
ENDMDL
