MODEL 1
REMARK VINA RESULT:      -6.5      0.000      0.000
REMARK  Name = 
REMARK  3 active torsions:
REMARK  status: ('A' for Active; 'I' for Inactive)
REMARK    1  A    between atoms: C_2  and  C_5
REMARK    2  A    between atoms: C_5  and  C_17
REMARK    3  A    between atoms: C_18  and  C_19
REMARK                            x       y       z     vdW  Elec       q    Type
REMARK                         _______ _______ _______ _____ _____    ______ ____
ROOT
ATOM      1  C   UNL     1       8.198  -4.195  24.503  0.00  0.00    +0.296 C 
ATOM      2  C   UNL     1       6.794  -3.712  24.836  0.00  0.00    +0.040 A 
ATOM      3  C   UNL     1       6.520  -2.820  25.892  0.00  0.00    +0.030 A 
ATOM      4  C   UNL     1       5.207  -2.431  26.167  0.00  0.00    +0.042 A 
ATOM      5  C   UNL     1       4.152  -2.906  25.393  0.00  0.00    +0.022 A 
ATOM      6  C   UNL     1       4.416  -3.755  24.320  0.00  0.00    +0.025 A 
ATOM      7 CL   UNL     1       4.888  -1.355  27.471  0.00  0.00    -0.084 Cl
ATOM      8  C   UNL     1       5.731  -4.141  24.048  0.00  0.00    +0.045 A 
ATOM      9  N   UNL     1       5.991  -4.942  22.951  0.00  0.00    -0.251 N 
ATOM     10  H   UNL     1       5.248  -5.196  22.311  0.00  0.00    +0.158 HD
ATOM     11  C   UNL     1       7.208  -5.452  22.625  0.00  0.00    +0.407 C 
ATOM     12  O   UNL     1       7.359  -6.123  21.610  0.00  0.00    -0.226 OA
ATOM     13  O   UNL     1       8.214  -5.245  23.497  0.00  0.00    -0.417 OA
ENDROOT
BRANCH   1  15
ATOM     14  F   UNL     1       8.205  -5.741  26.386  0.00  0.00    -0.165 F 
ATOM     15  C   UNL     1       8.931  -4.779  25.761  0.00  0.00    +0.446 C 
ATOM     16  F   UNL     1      10.132  -5.338  25.461  0.00  0.00    -0.165 F 
ATOM     17  F   UNL     1       9.186  -3.837  26.708  0.00  0.00    -0.165 F 
ENDBRANCH   1  15
BRANCH   1  18
ATOM     18  C   UNL     1       8.981  -3.077  23.913  0.00  0.00    -0.041 C 
ATOM     19  C   UNL     1       9.620  -2.222  23.362  0.00  0.00    -0.094 C 
BRANCH  19  20
ATOM     20  C   UNL     1      10.395  -1.241  22.662  0.00  0.00    +0.064 C 
ATOM     21  C   UNL     1      10.162   0.213  22.981  0.00  0.00    +0.017 C 
ATOM     22  C   UNL     1       9.703  -0.346  21.666  0.00  0.00    +0.017 C 
ENDBRANCH  19  20
ENDBRANCH   1  18
TORSDOF 3
ENDMDL
MODEL 2
REMARK VINA RESULT:      -6.1      3.435      4.887
REMARK  Name = 
REMARK  3 active torsions:
REMARK  status: ('A' for Active; 'I' for Inactive)
REMARK    1  A    between atoms: C_2  and  C_5
REMARK    2  A    between atoms: C_5  and  C_17
REMARK    3  A    between atoms: C_18  and  C_19
REMARK                            x       y       z     vdW  Elec       q    Type
REMARK                         _______ _______ _______ _____ _____    ______ ____
ROOT
ATOM      1  C   UNL     1       8.535  -1.873  23.555  0.00  0.00    +0.296 C 
ATOM      2  C   UNL     1       7.669  -0.712  24.023  0.00  0.00    +0.040 A 
ATOM      3  C   UNL     1       7.189   0.286  23.151  0.00  0.00    +0.030 A 
ATOM      4  C   UNL     1       6.419   1.343  23.642  0.00  0.00    +0.042 A 
ATOM      5  C   UNL     1       6.101   1.418  24.995  0.00  0.00    +0.022 A 
ATOM      6  C   UNL     1       6.534   0.413  25.858  0.00  0.00    +0.025 A 
ATOM      7 CL   UNL     1       5.856   2.563  22.568  0.00  0.00    -0.084 Cl
ATOM      8  C   UNL     1       7.304  -0.643  25.363  0.00  0.00    +0.045 A 
ATOM      9  N   UNL     1       7.687  -1.662  26.215  0.00  0.00    -0.251 N 
ATOM     10  H   UNL     1       7.362  -1.682  27.175  0.00  0.00    +0.158 HD
ATOM     11  C   UNL     1       8.500  -2.699  25.880  0.00  0.00    +0.407 C 
ATOM     12  O   UNL     1       8.759  -3.584  26.687  0.00  0.00    -0.226 OA
ATOM     13  O   UNL     1       9.058  -2.670  24.653  0.00  0.00    -0.417 OA
ENDROOT
BRANCH   1  15
ATOM     14  F   UNL     1      10.819  -2.254  22.798  0.00  0.00    -0.165 F 
ATOM     15  C   UNL     1       9.779  -1.384  22.734  0.00  0.00    +0.446 C 
ATOM     16  F   UNL     1       9.505  -1.206  21.415  0.00  0.00    -0.165 F 
ATOM     17  F   UNL     1      10.267  -0.194  23.176  0.00  0.00    -0.165 F 
ENDBRANCH   1  15
BRANCH   1  18
ATOM     18  C   UNL     1       7.711  -2.813  22.748  0.00  0.00    -0.041 C 
ATOM     19  C   UNL     1       7.031  -3.617  22.171  0.00  0.00    -0.094 C 
BRANCH  19  20
ATOM     20  C   UNL     1       6.221  -4.611  21.531  0.00  0.00    +0.064 C 
ATOM     21  C   UNL     1       5.605  -5.688  22.386  0.00  0.00    +0.017 C 
ATOM     22  C   UNL     1       6.733  -6.026  21.456  0.00  0.00    +0.017 C 
ENDBRANCH  19  20
ENDBRANCH   1  18
TORSDOF 3
ENDMDL
MODEL 3
REMARK VINA RESULT:      -6.0      3.326      5.319
REMARK  Name = 
REMARK  3 active torsions:
REMARK  status: ('A' for Active; 'I' for Inactive)
REMARK    1  A    between atoms: C_2  and  C_5
REMARK    2  A    between atoms: C_5  and  C_17
REMARK    3  A    between atoms: C_18  and  C_19
REMARK                            x       y       z     vdW  Elec       q    Type
REMARK                         _______ _______ _______ _____ _____    ______ ____
ROOT
ATOM      1  C   UNL     1       8.015  -4.110  25.733  0.00  0.00    +0.296 C 
ATOM      2  C   UNL     1       7.322  -3.864  24.400  0.00  0.00    +0.040 A 
ATOM      3  C   UNL     1       7.142  -4.872  23.433  0.00  0.00    +0.030 A 
ATOM      4  C   UNL     1       6.520  -4.582  22.215  0.00  0.00    +0.042 A 
ATOM      5  C   UNL     1       6.057  -3.297  21.947  0.00  0.00    +0.022 A 
ATOM      6  C   UNL     1       6.192  -2.303  22.915  0.00  0.00    +0.025 A 
ATOM      7 CL   UNL     1       6.324  -5.821  21.038  0.00  0.00    -0.084 Cl
ATOM      8  C   UNL     1       6.814  -2.598  24.130  0.00  0.00    +0.045 A 
ATOM      9  N   UNL     1       6.898  -1.621  25.105  0.00  0.00    -0.251 N 
ATOM     10  H   UNL     1       6.459  -0.717  24.969  0.00  0.00    +0.158 HD
ATOM     11  C   UNL     1       7.546  -1.753  26.292  0.00  0.00    +0.407 C 
ATOM     12  O   UNL     1       7.539  -0.847  27.119  0.00  0.00    -0.226 OA
ATOM     13  O   UNL     1       8.246  -2.888  26.487  0.00  0.00    -0.417 OA
ENDROOT
BRANCH   1  15
ATOM     14  F   UNL     1       9.325  -6.076  25.135  0.00  0.00    -0.165 F 
ATOM     15  C   UNL     1       9.419  -4.786  25.548  0.00  0.00    +0.446 C 
ATOM     16  F   UNL     1      10.198  -4.145  24.637  0.00  0.00    -0.165 F 
ATOM     17  F   UNL     1      10.143  -4.820  26.698  0.00  0.00    -0.165 F 
ENDBRANCH   1  15
BRANCH   1  18
ATOM     18  C   UNL     1       7.142  -4.944  26.600  0.00  0.00    -0.041 C 
ATOM     19  C   UNL     1       6.447  -5.557  27.364  0.00  0.00    -0.094 C 
BRANCH  19  20
ATOM     20  C   UNL     1       5.636  -6.252  28.319  0.00  0.00    +0.064 C 
ATOM     21  C   UNL     1       5.029  -5.462  29.450  0.00  0.00    +0.017 C 
ATOM     22  C   UNL     1       6.152  -6.418  29.725  0.00  0.00    +0.017 C 
ENDBRANCH  19  20
ENDBRANCH   1  18
TORSDOF 3
ENDMDL
MODEL 4
REMARK VINA RESULT:      -6.0      4.147      5.851
REMARK  Name = 
REMARK  3 active torsions:
REMARK  status: ('A' for Active; 'I' for Inactive)
REMARK    1  A    between atoms: C_2  and  C_5
REMARK    2  A    between atoms: C_5  and  C_17
REMARK    3  A    between atoms: C_18  and  C_19
REMARK                            x       y       z     vdW  Elec       q    Type
REMARK                         _______ _______ _______ _____ _____    ______ ____
ROOT
ATOM      1  C   UNL     1       8.705  -0.599  23.678  0.00  0.00    +0.296 C 
ATOM      2  C   UNL     1       8.241   0.825  23.949  0.00  0.00    +0.040 A 
ATOM      3  C   UNL     1       7.910   1.731  22.922  0.00  0.00    +0.030 A 
ATOM      4  C   UNL     1       7.514   3.035  23.231  0.00  0.00    +0.042 A 
ATOM      5  C   UNL     1       7.425   3.453  24.556  0.00  0.00    +0.022 A 
ATOM      6  C   UNL     1       7.708   2.551  25.579  0.00  0.00    +0.025 A 
ATOM      7 CL   UNL     1       7.132   4.136  21.964  0.00  0.00    -0.084 Cl
ATOM      8  C   UNL     1       8.104   1.248  25.267  0.00  0.00    +0.045 A 
ATOM      9  N   UNL     1       8.333   0.344  26.288  0.00  0.00    -0.251 N 
ATOM     10  H   UNL     1       8.156   0.600  27.252  0.00  0.00    +0.158 HD
ATOM     11  C   UNL     1       8.798  -0.922  26.122  0.00  0.00    +0.407 C 
ATOM     12  O   UNL     1       8.937  -1.674  27.082  0.00  0.00    -0.226 OA
ATOM     13  O   UNL     1       9.161  -1.286  24.877  0.00  0.00    -0.417 OA
ENDROOT
BRANCH   1  15
ATOM     14  F   UNL     1      10.620  -1.791  22.757  0.00  0.00    -0.165 F 
ATOM     15  C   UNL     1       9.901  -0.643  22.663  0.00  0.00    +0.446 C 
ATOM     16  F   UNL     1       9.499  -0.544  21.369  0.00  0.00    -0.165 F 
ATOM     17  F   UNL     1      10.792   0.366  22.854  0.00  0.00    -0.165 F 
ENDBRANCH   1  15
BRANCH   1  18
ATOM     18  C   UNL     1       7.562  -1.407  23.177  0.00  0.00    -0.041 C 
ATOM     19  C   UNL     1       6.691  -2.087  22.706  0.00  0.00    -0.094 C 
BRANCH  19  20
ATOM     20  C   UNL     1       5.686  -2.906  22.096  0.00  0.00    +0.064 C 
ATOM     21  C   UNL     1       5.130  -4.062  22.887  0.00  0.00    +0.017 C 
ATOM     22  C   UNL     1       6.035  -4.323  21.720  0.00  0.00    +0.017 C 
ENDBRANCH  19  20
ENDBRANCH   1  18
TORSDOF 3
ENDMDL
MODEL 5
REMARK VINA RESULT:      -5.9      1.768      2.003
REMARK  Name = 
REMARK  3 active torsions:
REMARK  status: ('A' for Active; 'I' for Inactive)
REMARK    1  A    between atoms: C_2  and  C_5
REMARK    2  A    between atoms: C_5  and  C_17
REMARK    3  A    between atoms: C_18  and  C_19
REMARK                            x       y       z     vdW  Elec       q    Type
REMARK                         _______ _______ _______ _____ _____    ______ ____
ROOT
ATOM      1  C   UNL     1       8.170  -4.494  24.835  0.00  0.00    +0.296 C 
ATOM      2  C   UNL     1       6.866  -4.866  25.525  0.00  0.00    +0.040 A 
ATOM      3  C   UNL     1       6.631  -4.636  26.894  0.00  0.00    +0.030 A 
ATOM      4  C   UNL     1       5.422  -5.023  27.479  0.00  0.00    +0.042 A 
ATOM      5  C   UNL     1       4.428  -5.626  26.714  0.00  0.00    +0.022 A 
ATOM      6  C   UNL     1       4.633  -5.818  25.350  0.00  0.00    +0.025 A 
ATOM      7 CL   UNL     1       5.157  -4.751  29.157  0.00  0.00    -0.084 Cl
ATOM      8  C   UNL     1       5.844  -5.431  24.769  0.00  0.00    +0.045 A 
ATOM      9  N   UNL     1       6.021  -5.578  23.405  0.00  0.00    -0.251 N 
ATOM     10  H   UNL     1       5.261  -5.904  22.819  0.00  0.00    +0.158 HD
ATOM     11  C   UNL     1       7.173  -5.317  22.733  0.00  0.00    +0.407 C 
ATOM     12  O   UNL     1       7.233  -5.437  21.514  0.00  0.00    -0.226 OA
ATOM     13  O   UNL     1       8.253  -4.989  23.469  0.00  0.00    -0.417 OA
ENDROOT
BRANCH   1  15
ATOM     14  F   UNL     1       9.552  -4.563  26.841  0.00  0.00    -0.165 F 
ATOM     15  C   UNL     1       9.419  -5.072  25.589  0.00  0.00    +0.446 C 
ATOM     16  F   UNL     1       9.374  -6.423  25.725  0.00  0.00    -0.165 F 
ATOM     17  F   UNL     1      10.590  -4.801  24.955  0.00  0.00    -0.165 F 
ENDBRANCH   1  15
BRANCH   1  18
ATOM     18  C   UNL     1       8.267  -3.015  24.720  0.00  0.00    -0.041 C 
ATOM     19  C   UNL     1       8.406  -1.822  24.690  0.00  0.00    -0.094 C 
BRANCH  19  20
ATOM     20  C   UNL     1       8.605  -0.403  24.704  0.00  0.00    +0.064 C 
ATOM     21  C   UNL     1       9.497   0.203  23.651  0.00  0.00    +0.017 C 
ATOM     22  C   UNL     1       9.962   0.135  25.076  0.00  0.00    +0.017 C 
ENDBRANCH  19  20
ENDBRANCH   1  18
TORSDOF 3
ENDMDL
MODEL 6
REMARK VINA RESULT:      -5.8      2.478      3.825
REMARK  Name = 
REMARK  3 active torsions:
REMARK  status: ('A' for Active; 'I' for Inactive)
REMARK    1  A    between atoms: C_2  and  C_5
REMARK    2  A    between atoms: C_5  and  C_17
REMARK    3  A    between atoms: C_18  and  C_19
REMARK                            x       y       z     vdW  Elec       q    Type
REMARK                         _______ _______ _______ _____ _____    ______ ____
ROOT
ATOM      1  C   UNL     1       7.980  -3.847  25.276  0.00  0.00    +0.296 C 
ATOM      2  C   UNL     1       7.032  -4.503  24.283  0.00  0.00    +0.040 A 
ATOM      3  C   UNL     1       6.013  -5.394  24.671  0.00  0.00    +0.030 A 
ATOM      4  C   UNL     1       5.188  -5.986  23.710  0.00  0.00    +0.042 A 
ATOM      5  C   UNL     1       5.351  -5.692  22.360  0.00  0.00    +0.022 A 
ATOM      6  C   UNL     1       6.328  -4.778  21.970  0.00  0.00    +0.025 A 
ATOM      7 CL   UNL     1       3.960  -7.087  24.199  0.00  0.00    -0.084 Cl
ATOM      8  C   UNL     1       7.151  -4.188  22.933  0.00  0.00    +0.045 A 
ATOM      9  N   UNL     1       8.083  -3.244  22.544  0.00  0.00    -0.251 N 
ATOM     10  H   UNL     1       8.131  -2.933  21.581  0.00  0.00    +0.158 HD
ATOM     11  C   UNL     1       8.994  -2.659  23.366  0.00  0.00    +0.407 C 
ATOM     12  O   UNL     1       9.762  -1.800  22.947  0.00  0.00    -0.226 OA
ATOM     13  O   UNL     1       9.059  -3.112  24.633  0.00  0.00    -0.417 OA
ENDROOT
BRANCH   1  15
ATOM     14  F   UNL     1       7.815  -5.382  27.161  0.00  0.00    -0.165 F 
ATOM     15  C   UNL     1       8.664  -4.900  26.217  0.00  0.00    +0.446 C 
ATOM     16  F   UNL     1       9.144  -5.977  25.543  0.00  0.00    -0.165 F 
ATOM     17  F   UNL     1       9.722  -4.387  26.901  0.00  0.00    -0.165 F 
ENDBRANCH   1  15
BRANCH   1  18
ATOM     18  C   UNL     1       7.240  -2.833  26.074  0.00  0.00    -0.041 C 
ATOM     19  C   UNL     1       6.626  -1.972  26.643  0.00  0.00    -0.094 C 
BRANCH  19  20
ATOM     20  C   UNL     1       5.894  -0.912  27.272  0.00  0.00    +0.064 C 
ATOM     21  C   UNL     1       5.598   0.326  26.466  0.00  0.00    +0.017 C 
ATOM     22  C   UNL     1       6.606   0.380  27.575  0.00  0.00    +0.017 C 
ENDBRANCH  19  20
ENDBRANCH   1  18
TORSDOF 3
ENDMDL
MODEL 7
REMARK VINA RESULT:      -5.8      3.132      5.148
REMARK  Name = 
REMARK  3 active torsions:
REMARK  status: ('A' for Active; 'I' for Inactive)
REMARK    1  A    between atoms: C_2  and  C_5
REMARK    2  A    between atoms: C_5  and  C_17
REMARK    3  A    between atoms: C_18  and  C_19
REMARK                            x       y       z     vdW  Elec       q    Type
REMARK                         _______ _______ _______ _____ _____    ______ ____
ROOT
ATOM      1  C   UNL     1       6.621  -3.437  23.786  0.00  0.00    +0.296 C 
ATOM      2  C   UNL     1       7.889  -2.675  23.428  0.00  0.00    +0.040 A 
ATOM      3  C   UNL     1       7.890  -1.539  22.596  0.00  0.00    +0.030 A 
ATOM      4  C   UNL     1       9.090  -0.894  22.281  0.00  0.00    +0.042 A 
ATOM      5  C   UNL     1      10.297  -1.356  22.797  0.00  0.00    +0.022 A 
ATOM      6  C   UNL     1      10.301  -2.452  23.657  0.00  0.00    +0.025 A 
ATOM      7 CL   UNL     1       9.077   0.481  21.247  0.00  0.00    -0.084 Cl
ATOM      8  C   UNL     1       9.100  -3.094  23.969  0.00  0.00    +0.045 A 
ATOM      9  N   UNL     1       9.105  -4.149  24.862  0.00  0.00    -0.251 N 
ATOM     10  H   UNL     1       9.959  -4.418  25.337  0.00  0.00    +0.158 HD
ATOM     11  C   UNL     1       8.024  -4.906  25.186  0.00  0.00    +0.407 C 
ATOM     12  O   UNL     1       8.107  -5.802  26.020  0.00  0.00    -0.226 OA
ATOM     13  O   UNL     1       6.885  -4.674  24.505  0.00  0.00    -0.417 OA
ENDROOT
BRANCH   1  15
ATOM     14  F   UNL     1       4.800  -4.714  22.791  0.00  0.00    -0.165 F 
ATOM     15  C   UNL     1       5.797  -3.836  22.512  0.00  0.00    +0.446 C 
ATOM     16  F   UNL     1       5.212  -2.769  21.906  0.00  0.00    -0.165 F 
ATOM     17  F   UNL     1       6.558  -4.434  21.558  0.00  0.00    -0.165 F 
ENDBRANCH   1  15
BRANCH   1  18
ATOM     18  C   UNL     1       5.793  -2.617  24.710  0.00  0.00    -0.041 C 
ATOM     19  C   UNL     1       5.178  -1.887  25.439  0.00  0.00    -0.094 C 
BRANCH  19  20
ATOM     20  C   UNL     1       4.488  -0.976  26.304  0.00  0.00    +0.064 C 
ATOM     21  C   UNL     1       5.016   0.430  26.427  0.00  0.00    +0.017 C 
ATOM     22  C   UNL     1       5.165  -0.527  27.573  0.00  0.00    +0.017 C 
ENDBRANCH  19  20
ENDBRANCH   1  18
TORSDOF 3
ENDMDL
MODEL 8
REMARK VINA RESULT:      -5.8      2.645      3.115
REMARK  Name = 
REMARK  3 active torsions:
REMARK  status: ('A' for Active; 'I' for Inactive)
REMARK    1  A    between atoms: C_2  and  C_5
REMARK    2  A    between atoms: C_5  and  C_17
REMARK    3  A    between atoms: C_18  and  C_19
REMARK                            x       y       z     vdW  Elec       q    Type
REMARK                         _______ _______ _______ _____ _____    ______ ____
ROOT
ATOM      1  C   UNL     1       8.067  -4.153  25.105  0.00  0.00    +0.296 C 
ATOM      2  C   UNL     1       6.836  -4.985  25.440  0.00  0.00    +0.040 A 
ATOM      3  C   UNL     1       6.610  -5.538  26.715  0.00  0.00    +0.030 A 
ATOM      4  C   UNL     1       5.474  -6.315  26.958  0.00  0.00    +0.042 A 
ATOM      5  C   UNL     1       4.543  -6.539  25.948  0.00  0.00    +0.022 A 
ATOM      6  C   UNL     1       4.736  -5.960  24.695  0.00  0.00    +0.025 A 
ATOM      7 CL   UNL     1       5.221  -6.998  28.516  0.00  0.00    -0.084 Cl
ATOM      8  C   UNL     1       5.873  -5.185  24.457  0.00  0.00    +0.045 A 
ATOM      9  N   UNL     1       6.032  -4.572  23.228  0.00  0.00    -0.251 N 
ATOM     10  H   UNL     1       5.304  -4.629  22.525  0.00  0.00    +0.158 HD
ATOM     11  C   UNL     1       7.125  -3.862  22.843  0.00  0.00    +0.407 C 
ATOM     12  O   UNL     1       7.169  -3.316  21.745  0.00  0.00    -0.226 OA
ATOM     13  O   UNL     1       8.175  -3.844  23.687  0.00  0.00    -0.417 OA
ENDROOT
BRANCH   1  15
ATOM     14  F   UNL     1       9.707  -4.734  26.810  0.00  0.00    -0.165 F 
ATOM     15  C   UNL     1       9.396  -4.888  25.498  0.00  0.00    +0.446 C 
ATOM     16  F   UNL     1       9.347  -6.227  25.268  0.00  0.00    -0.165 F 
ATOM     17  F   UNL     1      10.475  -4.432  24.808  0.00  0.00    -0.165 F 
ENDBRANCH   1  15
BRANCH   1  18
ATOM     18  C   UNL     1       7.976  -2.835  25.786  0.00  0.00    -0.041 C 
ATOM     19  C   UNL     1       7.989  -1.776  26.353  0.00  0.00    -0.094 C 
BRANCH  19  20
ATOM     20  C   UNL     1       8.060  -0.525  27.048  0.00  0.00    +0.064 C 
ATOM     21  C   UNL     1       6.772   0.127  27.478  0.00  0.00    +0.017 C 
ATOM     22  C   UNL     1       7.569   0.719  26.354  0.00  0.00    +0.017 C 
ENDBRANCH  19  20
ENDBRANCH   1  18
TORSDOF 3
ENDMDL
MODEL 9
REMARK VINA RESULT:      -5.7      3.380      5.108
REMARK  Name = 
REMARK  3 active torsions:
REMARK  status: ('A' for Active; 'I' for Inactive)
REMARK    1  A    between atoms: C_2  and  C_5
REMARK    2  A    between atoms: C_5  and  C_17
REMARK    3  A    between atoms: C_18  and  C_19
REMARK                            x       y       z     vdW  Elec       q    Type
REMARK                         _______ _______ _______ _____ _____    ______ ____
ROOT
ATOM      1  C   UNL     1       7.346  -1.873  24.768  0.00  0.00    +0.296 C 
ATOM      2  C   UNL     1       7.493  -0.517  24.092  0.00  0.00    +0.040 A 
ATOM      3  C   UNL     1       8.610  -0.171  23.307  0.00  0.00    +0.030 A 
ATOM      4  C   UNL     1       8.703   1.099  22.730  0.00  0.00    +0.042 A 
ATOM      5  C   UNL     1       7.687   2.033  22.911  0.00  0.00    +0.022 A 
ATOM      6  C   UNL     1       6.558   1.685  23.650  0.00  0.00    +0.025 A 
ATOM      7 CL   UNL     1      10.083   1.513  21.789  0.00  0.00    -0.084 Cl
ATOM      8  C   UNL     1       6.470   0.414  24.224  0.00  0.00    +0.045 A 
ATOM      9  N   UNL     1       5.324   0.059  24.913  0.00  0.00    -0.251 N 
ATOM     10  H   UNL     1       4.529   0.686  24.950  0.00  0.00    +0.158 HD
ATOM     11  C   UNL     1       5.146  -1.110  25.583  0.00  0.00    +0.407 C 
ATOM     12  O   UNL     1       4.081  -1.363  26.137  0.00  0.00    -0.226 OA
ATOM     13  O   UNL     1       6.205  -1.937  25.669  0.00  0.00    -0.417 OA
ENDROOT
BRANCH   1  15
ATOM     14  F   UNL     1       9.598  -2.797  24.883  0.00  0.00    -0.165 F 
ATOM     15  C   UNL     1       8.606  -2.241  25.626  0.00  0.00    +0.446 C 
ATOM     16  F   UNL     1       9.151  -1.165  26.252  0.00  0.00    -0.165 F 
ATOM     17  F   UNL     1       8.332  -3.142  26.607  0.00  0.00    -0.165 F 
ENDBRANCH   1  15
BRANCH   1  18
ATOM     18  C   UNL     1       7.090  -2.916  23.739  0.00  0.00    -0.041 C 
ATOM     19  C   UNL     1       6.864  -3.693  22.852  0.00  0.00    -0.094 C 
BRANCH  19  20
ATOM     20  C   UNL     1       6.573  -4.575  21.761  0.00  0.00    +0.064 C 
ATOM     21  C   UNL     1       5.680  -5.761  22.020  0.00  0.00    +0.017 C 
ATOM     22  C   UNL     1       7.147  -5.968  21.782  0.00  0.00    +0.017 C 
ENDBRANCH  19  20
ENDBRANCH   1  18
TORSDOF 3
ENDMDL
