MODEL 1
REMARK VINA RESULT:      -7.8      0.000      0.000
REMARK  Name = 
REMARK  13 active torsions:
REMARK  status: ('A' for Active; 'I' for Inactive)
REMARK    1  A    between atoms: C_5  and  C_6
REMARK    2  A    between atoms: C_6  and  S_7
REMARK    3  A    between atoms: S_7  and  C_8
REMARK    4  A    between atoms: N_12  and  C_13
REMARK    5  A    between atoms: C_14  and  C_35
REMARK    6  A    between atoms: C_18  and  N_19
REMARK    7  A    between atoms: C_18  and  O_33
REMARK    8  A    between atoms: C_20  and  C_22
REMARK    9  A    between atoms: C_26  and  C_27
REMARK   10  A    between atoms: C_26  and  C_30
REMARK   11  A    between atoms: C_30  and  O_31
REMARK   12  A    between atoms: O_33  and  C_34
REMARK   13  A    between atoms: C_35  and  O_36
REMARK                            x       y       z     vdW  Elec       q    Type
REMARK                         _______ _______ _______ _____ _____    ______ ____
ROOT
ATOM      1  C   UNL     1       7.503  -3.858  25.397  0.00  0.00    +0.199 C 
ATOM      2  C   UNL     1       8.551  -3.516  24.254  0.00  0.00    +0.242 C 
ATOM      3  C   UNL     1       7.547  -4.415  23.386  0.00  0.00    +0.275 C 
ATOM      4  O   UNL     1       7.508  -4.938  22.294  0.00  0.00    -0.270 OA
ATOM      5  N   UNL     1       6.615  -4.374  24.366  0.00  0.00    -0.244 N 
ATOM      6  C   UNL     1       5.310  -4.742  24.578  0.00  0.00    +0.123 C 
ATOM      7  C   UNL     1       4.685  -4.362  25.735  0.00  0.00    -0.021 C 
ATOM      8  C   UNL     1       5.341  -3.518  26.822  0.00  0.00    +0.104 C 
ATOM      9  S   UNL     1       6.696  -2.473  26.231  0.00  0.00    -0.128 S 
ENDROOT
BRANCH   2  10
ATOM     10  N   UNL     1       8.675  -2.071  23.910  0.00  0.00    -0.276 N 
ATOM     11  H   UNL     1       7.962  -1.446  24.270  0.00  0.00    +0.152 HD
ATOM     12  C   UNL     1       9.632  -1.514  23.075  0.00  0.00    +0.239 C 
ATOM     13  O   UNL     1      10.485  -2.228  22.541  0.00  0.00    -0.274 OA
BRANCH  12  14
ATOM     14  C   UNL     1       9.529   0.042  22.845  0.00  0.00    +0.200 C 
ATOM     15  S   UNL     1      10.456   0.984  24.111  0.00  0.00    -0.093 S 
ATOM     16  C   UNL     1       9.168   2.069  23.617  0.00  0.00    +0.063 C 
ATOM     17  C   UNL     1       9.090   3.417  23.497  0.00  0.00    +0.140 C 
ATOM     18  S   UNL     1       7.963   0.801  23.438  0.00  0.00    -0.093 S 
BRANCH  17  19
ATOM     19  C   UNL     1       7.814   4.082  23.109  0.00  0.00    +0.250 C 
ATOM     20  O   UNL     1       7.097   4.588  23.973  0.00  0.00    -0.270 OA
ATOM     21  N   UNL     1       7.401   4.089  21.822  0.00  0.00    -0.325 N 
ATOM     22  H   UNL     1       6.529   4.552  21.595  0.00  0.00    +0.145 HD
ATOM     23  H   UNL     1       7.926   3.673  21.061  0.00  0.00    +0.145 HD
ENDBRANCH  17  19
BRANCH  17  24
ATOM     24  C   UNL     1      10.317   4.237  23.719  0.00  0.00    +0.343 C 
ATOM     25  O   UNL     1      11.449   3.919  23.399  0.00  0.00    -0.245 OA
BRANCH  24  26
ATOM     26  O   UNL     1      10.102   5.428  24.336  0.00  0.00    -0.477 OA
ATOM     27  H   UNL     1      10.878   5.805  24.819  0.00  0.00    +0.295 HD
ENDBRANCH  24  26
ENDBRANCH  17  24
ENDBRANCH  12  14
ENDBRANCH   2  10
BRANCH   2  28
ATOM     28  O   UNL     1       9.862  -4.117  24.458  0.00  0.00    -0.349 OA
ATOM     29  C   UNL     1       9.961  -5.060  25.521  0.00  0.00    +0.197 C 
ENDBRANCH   2  28
BRANCH   6  30
ATOM     30  C   UNL     1       4.545  -5.553  23.541  0.00  0.00    +0.351 C 
ATOM     31  O   UNL     1       3.698  -5.074  22.797  0.00  0.00    -0.244 OA
BRANCH  30  32
ATOM     32  O   UNL     1       4.786  -6.873  23.470  0.00  0.00    -0.476 OA
ATOM     33  H   UNL     1       5.150  -7.333  24.259  0.00  0.00    +0.295 HD
ENDBRANCH  30  32
ENDBRANCH   6  30
BRANCH   7  34
ATOM     34  C   UNL     1       3.230  -4.666  26.099  0.00  0.00    +0.111 C 
BRANCH  34  35
ATOM     35  S   UNL     1       3.028  -6.446  26.416  0.00  0.00    -0.080 S 
BRANCH  35  36
ATOM     36  C   UNL     1       4.175  -6.667  27.686  0.00  0.00    +0.209 A 
ATOM     37  N   UNL     1       3.932  -6.452  29.012  0.00  0.00    -0.223 N 
ATOM     38  C   UNL     1       2.766  -5.933  29.672  0.00  0.00    +0.177 C 
ATOM     39  N   UNL     1       5.023  -6.794  29.725  0.00  0.00    -0.043 NA
ATOM     40  N   UNL     1       5.910  -7.205  28.826  0.00  0.00    -0.022 NA
ATOM     41  N   UNL     1       5.398  -7.125  27.552  0.00  0.00    -0.102 NA
ENDBRANCH  35  36
ENDBRANCH  34  35
ENDBRANCH   7  34
TORSDOF 11
ENDMDL
MODEL 2
REMARK VINA RESULT:      -7.6      1.788      2.158
REMARK  Name = 
REMARK  13 active torsions:
REMARK  status: ('A' for Active; 'I' for Inactive)
REMARK    1  A    between atoms: C_5  and  C_6
REMARK    2  A    between atoms: C_6  and  S_7
REMARK    3  A    between atoms: S_7  and  C_8
REMARK    4  A    between atoms: N_12  and  C_13
REMARK    5  A    between atoms: C_14  and  C_35
REMARK    6  A    between atoms: C_18  and  N_19
REMARK    7  A    between atoms: C_18  and  O_33
REMARK    8  A    between atoms: C_20  and  C_22
REMARK    9  A    between atoms: C_26  and  C_27
REMARK   10  A    between atoms: C_26  and  C_30
REMARK   11  A    between atoms: C_30  and  O_31
REMARK   12  A    between atoms: O_33  and  C_34
REMARK   13  A    between atoms: C_35  and  O_36
REMARK                            x       y       z     vdW  Elec       q    Type
REMARK                         _______ _______ _______ _____ _____    ______ ____
ROOT
ATOM      1  C   UNL     1       7.563  -3.404  25.252  0.00  0.00    +0.199 C 
ATOM      2  C   UNL     1       8.552  -3.008  24.075  0.00  0.00    +0.242 C 
ATOM      3  C   UNL     1       7.535  -3.912  23.228  0.00  0.00    +0.275 C 
ATOM      4  O   UNL     1       7.462  -4.411  22.127  0.00  0.00    -0.270 OA
ATOM      5  N   UNL     1       6.645  -3.918  24.248  0.00  0.00    -0.244 N 
ATOM      6  C   UNL     1       5.360  -4.324  24.506  0.00  0.00    +0.123 C 
ATOM      7  C   UNL     1       4.776  -3.988  25.697  0.00  0.00    -0.021 C 
ATOM      8  C   UNL     1       5.457  -3.153  26.776  0.00  0.00    +0.104 C 
ATOM      9  S   UNL     1       6.759  -2.060  26.153  0.00  0.00    -0.128 S 
ENDROOT
BRANCH   2  10
ATOM     10  N   UNL     1       8.626  -1.553  23.762  0.00  0.00    -0.276 N 
ATOM     11  H   UNL     1       8.379  -0.906  24.503  0.00  0.00    +0.152 HD
ATOM     12  C   UNL     1       8.921  -1.002  22.524  0.00  0.00    +0.239 C 
ATOM     13  O   UNL     1       9.156  -1.733  21.556  0.00  0.00    -0.274 OA
BRANCH  12  14
ATOM     14  C   UNL     1       8.904   0.571  22.444  0.00  0.00    +0.200 C 
ATOM     15  S   UNL     1       9.345   1.343  24.044  0.00  0.00    -0.093 S 
ATOM     16  C   UNL     1       8.304   2.521  23.265  0.00  0.00    +0.063 C 
ATOM     17  C   UNL     1       8.272   3.876  23.273  0.00  0.00    +0.140 C 
ATOM     18  S   UNL     1       7.230   1.325  22.551  0.00  0.00    -0.093 S 
BRANCH  17  19
ATOM     19  C   UNL     1       7.205   4.625  22.552  0.00  0.00    +0.250 C 
ATOM     20  O   UNL     1       6.021   4.337  22.733  0.00  0.00    -0.270 OA
ATOM     21  N   UNL     1       7.520   5.585  21.654  0.00  0.00    -0.325 N 
ATOM     22  H   UNL     1       6.769   6.076  21.184  0.00  0.00    +0.145 HD
ATOM     23  H   UNL     1       8.471   5.861  21.437  0.00  0.00    +0.145 HD
ENDBRANCH  17  19
BRANCH  17  24
ATOM     24  C   UNL     1       9.351   4.621  23.986  0.00  0.00    +0.343 C 
ATOM     25  O   UNL     1       9.209   5.265  25.011  0.00  0.00    -0.245 OA
BRANCH  24  26
ATOM     26  O   UNL     1      10.575   4.549  23.402  0.00  0.00    -0.477 OA
ATOM     27  H   UNL     1      10.914   3.635  23.232  0.00  0.00    +0.295 HD
ENDBRANCH  24  26
ENDBRANCH  17  24
ENDBRANCH  12  14
ENDBRANCH   2  10
BRANCH   2  28
ATOM     28  O   UNL     1       9.886  -3.580  24.209  0.00  0.00    -0.349 OA
ATOM     29  C   UNL     1      10.024  -4.634  25.157  0.00  0.00    +0.197 C 
ENDBRANCH   2  28
BRANCH   6  30
ATOM     30  C   UNL     1       4.572  -5.131  23.483  0.00  0.00    +0.351 C 
ATOM     31  O   UNL     1       3.569  -4.713  22.918  0.00  0.00    -0.244 OA
BRANCH  30  32
ATOM     32  O   UNL     1       4.979  -6.385  23.219  0.00  0.00    -0.476 OA
ATOM     33  H   UNL     1       5.625  -6.812  23.824  0.00  0.00    +0.295 HD
ENDBRANCH  30  32
ENDBRANCH   6  30
BRANCH   7  34
ATOM     34  C   UNL     1       3.346  -4.338  26.115  0.00  0.00    +0.111 C 
BRANCH  34  35
ATOM     35  S   UNL     1       3.334  -5.907  27.037  0.00  0.00    -0.080 S 
BRANCH  35  36
ATOM     36  C   UNL     1       2.804  -6.988  25.801  0.00  0.00    +0.209 A 
ATOM     37  N   UNL     1       1.584  -6.948  25.191  0.00  0.00    -0.223 N 
ATOM     38  C   UNL     1       0.443  -6.113  25.446  0.00  0.00    +0.177 C 
ATOM     39  N   UNL     1       1.537  -7.888  24.227  0.00  0.00    -0.043 NA
ATOM     40  N   UNL     1       2.722  -8.486  24.269  0.00  0.00    -0.022 NA
ATOM     41  N   UNL     1       3.518  -7.941  25.249  0.00  0.00    -0.102 NA
ENDBRANCH  35  36
ENDBRANCH  34  35
ENDBRANCH   7  34
TORSDOF 11
ENDMDL
MODEL 3
REMARK VINA RESULT:      -7.3      3.195      8.867
REMARK  Name = 
REMARK  13 active torsions:
REMARK  status: ('A' for Active; 'I' for Inactive)
REMARK    1  A    between atoms: C_5  and  C_6
REMARK    2  A    between atoms: C_6  and  S_7
REMARK    3  A    between atoms: S_7  and  C_8
REMARK    4  A    between atoms: N_12  and  C_13
REMARK    5  A    between atoms: C_14  and  C_35
REMARK    6  A    between atoms: C_18  and  N_19
REMARK    7  A    between atoms: C_18  and  O_33
REMARK    8  A    between atoms: C_20  and  C_22
REMARK    9  A    between atoms: C_26  and  C_27
REMARK   10  A    between atoms: C_26  and  C_30
REMARK   11  A    between atoms: C_30  and  O_31
REMARK   12  A    between atoms: O_33  and  C_34
REMARK   13  A    between atoms: C_35  and  O_36
REMARK                            x       y       z     vdW  Elec       q    Type
REMARK                         _______ _______ _______ _____ _____    ______ ____
ROOT
ATOM      1  C   UNL     1       7.265   0.534  26.627  0.00  0.00    +0.199 C 
ATOM      2  C   UNL     1       5.725   0.334  26.958  0.00  0.00    +0.242 C 
ATOM      3  C   UNL     1       5.564   1.057  25.536  0.00  0.00    +0.275 C 
ATOM      4  O   UNL     1       4.689   1.550  24.861  0.00  0.00    -0.270 OA
ATOM      5  N   UNL     1       6.881   0.893  25.271  0.00  0.00    -0.244 N 
ATOM      6  C   UNL     1       7.763   1.063  24.234  0.00  0.00    +0.123 C 
ATOM      7  C   UNL     1       9.049   0.613  24.364  0.00  0.00    -0.021 C 
ATOM      8  C   UNL     1       9.580  -0.104  25.601  0.00  0.00    +0.104 C 
ATOM      9  S   UNL     1       8.305  -0.943  26.574  0.00  0.00    -0.128 S 
ENDROOT
BRANCH   2  10
ATOM     10  N   UNL     1       5.274  -1.081  27.080  0.00  0.00    -0.276 N 
ATOM     11  H   UNL     1       5.992  -1.788  27.203  0.00  0.00    +0.152 HD
ATOM     12  C   UNL     1       3.967  -1.531  26.960  0.00  0.00    +0.239 C 
ATOM     13  O   UNL     1       3.052  -0.735  26.734  0.00  0.00    -0.274 OA
BRANCH  12  14
ATOM     14  C   UNL     1       3.755  -3.086  27.099  0.00  0.00    +0.200 C 
ATOM     15  S   UNL     1       5.172  -3.899  27.925  0.00  0.00    -0.093 S 
ATOM     16  C   UNL     1       4.501  -5.145  26.887  0.00  0.00    +0.063 C 
ATOM     17  C   UNL     1       4.397  -6.490  27.005  0.00  0.00    +0.140 C 
ATOM     18  S   UNL     1       4.106  -4.047  25.571  0.00  0.00    -0.093 S 
BRANCH  17  19
ATOM     19  C   UNL     1       3.824  -7.318  25.906  0.00  0.00    +0.250 C 
ATOM     20  O   UNL     1       4.457  -7.474  24.861  0.00  0.00    -0.270 OA
ATOM     21  N   UNL     1       2.589  -7.857  26.017  0.00  0.00    -0.325 N 
ATOM     22  H   UNL     1       2.233  -8.415  25.250  0.00  0.00    +0.145 HD
ATOM     23  H   UNL     1       2.003  -7.752  26.837  0.00  0.00    +0.145 HD
ENDBRANCH  17  19
BRANCH  17  24
ATOM     24  C   UNL     1       4.828  -7.142  28.277  0.00  0.00    +0.343 C 
ATOM     25  O   UNL     1       5.982  -7.350  28.610  0.00  0.00    -0.245 OA
BRANCH  24  26
ATOM     26  O   UNL     1       3.813  -7.519  29.097  0.00  0.00    -0.477 OA
ATOM     27  H   UNL     1       3.360  -6.784  29.581  0.00  0.00    +0.295 HD
ENDBRANCH  24  26
ENDBRANCH  17  24
ENDBRANCH  12  14
ENDBRANCH   2  10
BRANCH   2  28
ATOM     28  O   UNL     1       5.256   1.129  28.085  0.00  0.00    -0.349 OA
ATOM     29  C   UNL     1       6.139   1.216  29.200  0.00  0.00    +0.197 C 
ENDBRANCH   2  28
BRANCH   6  30
ATOM     30  C   UNL     1       7.329   1.733  22.936  0.00  0.00    +0.351 C 
ATOM     31  O   UNL     1       7.785   2.798  22.539  0.00  0.00    -0.244 OA
BRANCH  30  32
ATOM     32  O   UNL     1       6.363   1.141  22.214  0.00  0.00    -0.476 OA
ATOM     33  H   UNL     1       6.364   0.162  22.131  0.00  0.00    +0.295 HD
ENDBRANCH  30  32
ENDBRANCH   6  30
BRANCH   7  34
ATOM     34  C   UNL     1      10.135   0.701  23.290  0.00  0.00    +0.111 C 
BRANCH  34  35
ATOM     35  S   UNL     1       9.811  -0.515  21.977  0.00  0.00    -0.080 S 
BRANCH  35  36
ATOM     36  C   UNL     1       9.548  -1.932  22.925  0.00  0.00    +0.209 A 
ATOM     37  N   UNL     1       8.347  -2.562  23.083  0.00  0.00    -0.223 N 
ATOM     38  C   UNL     1       7.039  -2.202  22.611  0.00  0.00    +0.177 C 
ATOM     39  N   UNL     1       8.522  -3.673  23.825  0.00  0.00    -0.043 NA
ATOM     40  N   UNL     1       9.819  -3.700  24.110  0.00  0.00    -0.022 NA
ATOM     41  N   UNL     1      10.468  -2.617  23.563  0.00  0.00    -0.102 NA
ENDBRANCH  35  36
ENDBRANCH  34  35
ENDBRANCH   7  34
TORSDOF 11
ENDMDL
MODEL 4
REMARK VINA RESULT:      -7.2      2.918      9.644
REMARK  Name = 
REMARK  13 active torsions:
REMARK  status: ('A' for Active; 'I' for Inactive)
REMARK    1  A    between atoms: C_5  and  C_6
REMARK    2  A    between atoms: C_6  and  S_7
REMARK    3  A    between atoms: S_7  and  C_8
REMARK    4  A    between atoms: N_12  and  C_13
REMARK    5  A    between atoms: C_14  and  C_35
REMARK    6  A    between atoms: C_18  and  N_19
REMARK    7  A    between atoms: C_18  and  O_33
REMARK    8  A    between atoms: C_20  and  C_22
REMARK    9  A    between atoms: C_26  and  C_27
REMARK   10  A    between atoms: C_26  and  C_30
REMARK   11  A    between atoms: C_30  and  O_31
REMARK   12  A    between atoms: O_33  and  C_34
REMARK   13  A    between atoms: C_35  and  O_36
REMARK                            x       y       z     vdW  Elec       q    Type
REMARK                         _______ _______ _______ _____ _____    ______ ____
ROOT
ATOM      1  C   UNL     1       9.200  -2.684  24.138  0.00  0.00    +0.199 C 
ATOM      2  C   UNL     1       8.569  -3.385  25.415  0.00  0.00    +0.242 C 
ATOM      3  C   UNL     1       8.637  -1.887  25.983  0.00  0.00    +0.275 C 
ATOM      4  O   UNL     1       8.500  -1.307  27.037  0.00  0.00    -0.270 OA
ATOM      5  N   UNL     1       8.894  -1.399  24.748  0.00  0.00    -0.244 N 
ATOM      6  C   UNL     1       9.010  -0.189  24.109  0.00  0.00    +0.123 C 
ATOM      7  C   UNL     1       9.147  -0.159  22.748  0.00  0.00    -0.021 C 
ATOM      8  C   UNL     1       9.158  -1.401  21.863  0.00  0.00    +0.104 C 
ATOM      9  S   UNL     1       8.299  -2.825  22.578  0.00  0.00    -0.128 S 
ENDROOT
BRANCH   2  10
ATOM     10  N   UNL     1       7.225  -3.997  25.212  0.00  0.00    -0.276 N 
ATOM     11  H   UNL     1       6.916  -4.130  24.255  0.00  0.00    +0.152 HD
ATOM     12  C   UNL     1       6.323  -4.328  26.212  0.00  0.00    +0.239 C 
ATOM     13  O   UNL     1       6.603  -4.121  27.397  0.00  0.00    -0.274 OA
BRANCH  12  14
ATOM     14  C   UNL     1       4.951  -4.936  25.733  0.00  0.00    +0.200 C 
ATOM     15  S   UNL     1       4.772  -6.691  26.222  0.00  0.00    -0.093 S 
ATOM     16  C   UNL     1       3.806  -6.544  24.764  0.00  0.00    +0.063 C 
ATOM     17  C   UNL     1       2.661  -7.138  24.350  0.00  0.00    +0.140 C 
ATOM     18  S   UNL     1       4.909  -5.432  23.963  0.00  0.00    -0.093 S 
BRANCH  17  19
ATOM     19  C   UNL     1       2.094  -6.859  23.001  0.00  0.00    +0.250 C 
ATOM     20  O   UNL     1       1.794  -5.707  22.685  0.00  0.00    -0.270 OA
ATOM     21  N   UNL     1       1.849  -7.866  22.132  0.00  0.00    -0.325 N 
ATOM     22  H   UNL     1       1.465  -7.640  21.222  0.00  0.00    +0.145 HD
ATOM     23  H   UNL     1       2.049  -8.840  22.330  0.00  0.00    +0.145 HD
ENDBRANCH  17  19
BRANCH  17  24
ATOM     24  C   UNL     1       1.941  -8.054  25.283  0.00  0.00    +0.343 C 
ATOM     25  O   UNL     1       1.132  -7.712  26.128  0.00  0.00    -0.245 OA
BRANCH  24  26
ATOM     26  O   UNL     1       2.250  -9.369  25.141  0.00  0.00    -0.477 OA
ATOM     27  H   UNL     1       2.384  -9.679  24.211  0.00  0.00    +0.295 HD
ENDBRANCH  24  26
ENDBRANCH  17  24
ENDBRANCH  12  14
ENDBRANCH   2  10
BRANCH   2  28
ATOM     28  O   UNL     1       9.470  -4.315  26.082  0.00  0.00    -0.349 OA
ATOM     29  C   UNL     1       9.753  -5.523  25.382  0.00  0.00    +0.197 C 
ENDBRANCH   2  28
BRANCH   6  30
ATOM     30  C   UNL     1       8.974   1.117  24.891  0.00  0.00    +0.351 C 
ATOM     31  O   UNL     1       7.978   1.531  25.473  0.00  0.00    -0.244 OA
BRANCH  30  32
ATOM     32  O   UNL     1      10.084   1.873  24.907  0.00  0.00    -0.476 OA
ATOM     33  H   UNL     1      10.847   1.587  25.456  0.00  0.00    +0.295 HD
ENDBRANCH  30  32
ENDBRANCH   6  30
BRANCH   7  34
ATOM     34  C   UNL     1       9.255   1.106  21.894  0.00  0.00    +0.111 C 
BRANCH  34  35
ATOM     35  S   UNL     1       7.594   1.752  21.526  0.00  0.00    -0.080 S 
BRANCH  35  36
ATOM     36  C   UNL     1       7.612   3.202  22.460  0.00  0.00    +0.209 A 
ATOM     37  N   UNL     1       6.505   3.875  22.892  0.00  0.00    -0.223 N 
ATOM     38  C   UNL     1       5.112   3.634  22.636  0.00  0.00    +0.177 C 
ATOM     39  N   UNL     1       6.887   4.917  23.655  0.00  0.00    -0.043 NA
ATOM     40  N   UNL     1       8.214   4.867  23.671  0.00  0.00    -0.022 NA
ATOM     41  N   UNL     1       8.679   3.809  22.926  0.00  0.00    -0.102 NA
ENDBRANCH  35  36
ENDBRANCH  34  35
ENDBRANCH   7  34
TORSDOF 11
ENDMDL
MODEL 5
REMARK VINA RESULT:      -7.2      3.106      9.377
REMARK  Name = 
REMARK  13 active torsions:
REMARK  status: ('A' for Active; 'I' for Inactive)
REMARK    1  A    between atoms: C_5  and  C_6
REMARK    2  A    between atoms: C_6  and  S_7
REMARK    3  A    between atoms: S_7  and  C_8
REMARK    4  A    between atoms: N_12  and  C_13
REMARK    5  A    between atoms: C_14  and  C_35
REMARK    6  A    between atoms: C_18  and  N_19
REMARK    7  A    between atoms: C_18  and  O_33
REMARK    8  A    between atoms: C_20  and  C_22
REMARK    9  A    between atoms: C_26  and  C_27
REMARK   10  A    between atoms: C_26  and  C_30
REMARK   11  A    between atoms: C_30  and  O_31
REMARK   12  A    between atoms: O_33  and  C_34
REMARK   13  A    between atoms: C_35  and  O_36
REMARK                            x       y       z     vdW  Elec       q    Type
REMARK                         _______ _______ _______ _____ _____    ______ ____
ROOT
ATOM      1  C   UNL     1       8.104   2.284  22.269  0.00  0.00    +0.199 C 
ATOM      2  C   UNL     1       9.107   1.148  22.742  0.00  0.00    +0.242 C 
ATOM      3  C   UNL     1       9.899   2.413  23.325  0.00  0.00    +0.275 C 
ATOM      4  O   UNL     1      10.981   2.665  23.807  0.00  0.00    -0.270 OA
ATOM      5  N   UNL     1       8.830   3.216  23.119  0.00  0.00    -0.244 N 
ATOM      6  C   UNL     1       8.419   4.496  23.394  0.00  0.00    +0.123 C 
ATOM      7  C   UNL     1       7.134   4.866  23.106  0.00  0.00    -0.021 C 
ATOM      8  C   UNL     1       6.090   3.930  22.508  0.00  0.00    +0.104 C 
ATOM      9  S   UNL     1       6.393   2.176  22.840  0.00  0.00    -0.128 S 
ENDROOT
BRANCH   2  10
ATOM     10  N   UNL     1       8.549   0.162  23.710  0.00  0.00    -0.276 N 
ATOM     11  H   UNL     1       7.546   0.007  23.688  0.00  0.00    +0.152 HD
ATOM     12  C   UNL     1       9.263  -0.503  24.695  0.00  0.00    +0.239 C 
ATOM     13  O   UNL     1      10.474  -0.304  24.829  0.00  0.00    -0.274 OA
BRANCH  12  14
ATOM     14  C   UNL     1       8.432  -1.475  25.616  0.00  0.00    +0.200 C 
ATOM     15  S   UNL     1       8.480  -3.201  25.011  0.00  0.00    -0.093 S 
ATOM     16  C   UNL     1       6.947  -3.079  25.856  0.00  0.00    +0.063 C 
ATOM     17  C   UNL     1       6.221  -3.960  26.586  0.00  0.00    +0.140 C 
ATOM     18  S   UNL     1       6.616  -1.433  25.331  0.00  0.00    -0.093 S 
BRANCH  17  19
ATOM     19  C   UNL     1       4.890  -3.586  27.142  0.00  0.00    +0.250 C 
ATOM     20  O   UNL     1       4.820  -2.862  28.136  0.00  0.00    -0.270 OA
ATOM     21  N   UNL     1       3.752  -4.078  26.603  0.00  0.00    -0.325 N 
ATOM     22  H   UNL     1       2.865  -3.801  27.005  0.00  0.00    +0.145 HD
ATOM     23  H   UNL     1       3.733  -4.696  25.799  0.00  0.00    +0.145 HD
ENDBRANCH  17  19
BRANCH  17  24
ATOM     24  C   UNL     1       6.789  -5.312  26.865  0.00  0.00    +0.343 C 
ATOM     25  O   UNL     1       7.814  -5.536  27.486  0.00  0.00    -0.245 OA
BRANCH  24  26
ATOM     26  O   UNL     1       6.068  -6.347  26.361  0.00  0.00    -0.477 OA
ATOM     27  H   UNL     1       6.135  -6.479  25.383  0.00  0.00    +0.295 HD
ENDBRANCH  24  26
ENDBRANCH  17  24
ENDBRANCH  12  14
ENDBRANCH   2  10
BRANCH   2  28
ATOM     28  O   UNL     1       9.790   0.472  21.646  0.00  0.00    -0.349 OA
ATOM     29  C   UNL     1       9.327  -0.839  21.333  0.00  0.00    +0.197 C 
ENDBRANCH   2  28
BRANCH   6  30
ATOM     30  C   UNL     1       9.369   5.505  24.027  0.00  0.00    +0.351 C 
ATOM     31  O   UNL     1      10.058   6.284  23.381  0.00  0.00    -0.244 OA
BRANCH  30  32
ATOM     32  O   UNL     1       9.485   5.507  25.366  0.00  0.00    -0.476 OA
ATOM     33  H   UNL     1      10.303   5.870  25.772  0.00  0.00    +0.295 HD
ENDBRANCH  30  32
ENDBRANCH   6  30
BRANCH   7  34
ATOM     34  C   UNL     1       6.522   6.241  23.383  0.00  0.00    +0.111 C 
BRANCH  34  35
ATOM     35  S   UNL     1       5.269   6.113  24.695  0.00  0.00    -0.080 S 
BRANCH  35  36
ATOM     36  C   UNL     1       6.279   5.792  26.057  0.00  0.00    +0.209 A 
ATOM     37  N   UNL     1       6.440   4.572  26.648  0.00  0.00    -0.223 N 
ATOM     38  C   UNL     1       5.794   3.317  26.381  0.00  0.00    +0.177 C 
ATOM     39  N   UNL     1       7.354   4.671  27.632  0.00  0.00    -0.043 NA
ATOM     40  N   UNL     1       7.730   5.945  27.629  0.00  0.00    -0.022 NA
ATOM     41  N   UNL     1       7.063   6.656  26.658  0.00  0.00    -0.102 NA
ENDBRANCH  35  36
ENDBRANCH  34  35
ENDBRANCH   7  34
TORSDOF 11
ENDMDL
MODEL 6
REMARK VINA RESULT:      -7.1      1.612      2.331
REMARK  Name = 
REMARK  13 active torsions:
REMARK  status: ('A' for Active; 'I' for Inactive)
REMARK    1  A    between atoms: C_5  and  C_6
REMARK    2  A    between atoms: C_6  and  S_7
REMARK    3  A    between atoms: S_7  and  C_8
REMARK    4  A    between atoms: N_12  and  C_13
REMARK    5  A    between atoms: C_14  and  C_35
REMARK    6  A    between atoms: C_18  and  N_19
REMARK    7  A    between atoms: C_18  and  O_33
REMARK    8  A    between atoms: C_20  and  C_22
REMARK    9  A    between atoms: C_26  and  C_27
REMARK   10  A    between atoms: C_26  and  C_30
REMARK   11  A    between atoms: C_30  and  O_31
REMARK   12  A    between atoms: O_33  and  C_34
REMARK   13  A    between atoms: C_35  and  O_36
REMARK                            x       y       z     vdW  Elec       q    Type
REMARK                         _______ _______ _______ _____ _____    ______ ____
ROOT
ATOM      1  C   UNL     1       7.871  -3.073  25.098  0.00  0.00    +0.199 C 
ATOM      2  C   UNL     1       8.511  -2.208  23.930  0.00  0.00    +0.242 C 
ATOM      3  C   UNL     1       7.541  -3.121  23.038  0.00  0.00    +0.275 C 
ATOM      4  O   UNL     1       7.349  -3.371  21.869  0.00  0.00    -0.270 OA
ATOM      5  N   UNL     1       6.890  -3.559  24.140  0.00  0.00    -0.244 N 
ATOM      6  C   UNL     1       5.785  -4.303  24.470  0.00  0.00    +0.123 C 
ATOM      7  C   UNL     1       5.395  -4.381  25.780  0.00  0.00    -0.021 C 
ATOM      8  C   UNL     1       6.102  -3.665  26.925  0.00  0.00    +0.104 C 
ATOM      9  S   UNL     1       7.017  -2.186  26.420  0.00  0.00    -0.128 S 
ENDROOT
BRANCH   2  10
ATOM     10  N   UNL     1       8.237  -0.745  23.992  0.00  0.00    -0.276 N 
ATOM     11  H   UNL     1       7.574  -0.368  23.322  0.00  0.00    +0.152 HD
ATOM     12  C   UNL     1       8.867   0.165  24.828  0.00  0.00    +0.239 C 
ATOM     13  O   UNL     1       9.740  -0.212  25.615  0.00  0.00    -0.274 OA
BRANCH  12  14
ATOM     14  C   UNL     1       8.419   1.668  24.677  0.00  0.00    +0.200 C 
ATOM     15  S   UNL     1       7.531   1.964  23.104  0.00  0.00    -0.093 S 
ATOM     16  C   UNL     1       8.271   3.509  23.483  0.00  0.00    +0.063 C 
ATOM     17  C   UNL     1       7.890   4.793  23.276  0.00  0.00    +0.140 C 
ATOM     18  S   UNL     1       9.750   2.813  24.132  0.00  0.00    -0.093 S 
BRANCH  17  19
ATOM     19  C   UNL     1       8.775   5.930  23.655  0.00  0.00    +0.250 C 
ATOM     20  O   UNL     1       8.399   6.750  24.493  0.00  0.00    -0.270 OA
ATOM     21  N   UNL     1       9.971   6.107  23.049  0.00  0.00    -0.325 N 
ATOM     22  H   UNL     1      10.548   6.890  23.333  0.00  0.00    +0.145 HD
ATOM     23  H   UNL     1      10.336   5.486  22.336  0.00  0.00    +0.145 HD
ENDBRANCH  17  19
BRANCH  17  24
ATOM     24  C   UNL     1       6.543   5.064  22.694  0.00  0.00    +0.343 C 
ATOM     25  O   UNL     1       5.484   4.652  23.136  0.00  0.00    -0.245 OA
BRANCH  24  26
ATOM     26  O   UNL     1       6.550   5.837  21.577  0.00  0.00    -0.477 OA
ATOM     27  H   UNL     1       6.791   6.786  21.716  0.00  0.00    +0.295 HD
ENDBRANCH  24  26
ENDBRANCH  17  24
ENDBRANCH  12  14
ENDBRANCH   2  10
BRANCH   2  28
ATOM     28  O   UNL     1       9.930  -2.464  23.717  0.00  0.00    -0.349 OA
ATOM     29  C   UNL     1      10.536  -1.766  22.632  0.00  0.00    +0.197 C 
ENDBRANCH   2  28
BRANCH   6  30
ATOM     30  C   UNL     1       4.982  -5.031  23.401  0.00  0.00    +0.351 C 
ATOM     31  O   UNL     1       3.977  -4.566  22.876  0.00  0.00    -0.244 OA
BRANCH  30  32
ATOM     32  O   UNL     1       5.376  -6.266  23.047  0.00  0.00    -0.476 OA
ATOM     33  H   UNL     1       5.847  -6.388  22.194  0.00  0.00    +0.295 HD
ENDBRANCH  30  32
ENDBRANCH   6  30
BRANCH   7  34
ATOM     34  C   UNL     1       4.173  -5.142  26.298  0.00  0.00    +0.111 C 
BRANCH  34  35
ATOM     35  S   UNL     1       4.604  -6.884  26.593  0.00  0.00    -0.080 S 
BRANCH  35  36
ATOM     36  C   UNL     1       5.138  -6.798  28.231  0.00  0.00    +0.209 A 
ATOM     37  N   UNL     1       4.326  -6.835  29.328  0.00  0.00    -0.223 N 
ATOM     38  C   UNL     1       2.893  -6.865  29.423  0.00  0.00    +0.177 C 
ATOM     39  N   UNL     1       5.083  -6.820  30.443  0.00  0.00    -0.043 NA
ATOM     40  N   UNL     1       6.337  -6.769  30.010  0.00  0.00    -0.022 NA
ATOM     41  N   UNL     1       6.386  -6.747  28.635  0.00  0.00    -0.102 NA
ENDBRANCH  35  36
ENDBRANCH  34  35
ENDBRANCH   7  34
TORSDOF 11
ENDMDL
MODEL 7
REMARK VINA RESULT:      -7.0      2.497      3.034
REMARK  Name = 
REMARK  13 active torsions:
REMARK  status: ('A' for Active; 'I' for Inactive)
REMARK    1  A    between atoms: C_5  and  C_6
REMARK    2  A    between atoms: C_6  and  S_7
REMARK    3  A    between atoms: S_7  and  C_8
REMARK    4  A    between atoms: N_12  and  C_13
REMARK    5  A    between atoms: C_14  and  C_35
REMARK    6  A    between atoms: C_18  and  N_19
REMARK    7  A    between atoms: C_18  and  O_33
REMARK    8  A    between atoms: C_20  and  C_22
REMARK    9  A    between atoms: C_26  and  C_27
REMARK   10  A    between atoms: C_26  and  C_30
REMARK   11  A    between atoms: C_30  and  O_31
REMARK   12  A    between atoms: O_33  and  C_34
REMARK   13  A    between atoms: C_35  and  O_36
REMARK                            x       y       z     vdW  Elec       q    Type
REMARK                         _______ _______ _______ _____ _____    ______ ____
ROOT
ATOM      1  C   UNL     1       6.980  -5.249  25.928  0.00  0.00    +0.199 C 
ATOM      2  C   UNL     1       7.615  -4.641  24.606  0.00  0.00    +0.242 C 
ATOM      3  C   UNL     1       6.408  -5.453  23.931  0.00  0.00    +0.275 C 
ATOM      4  O   UNL     1       6.042  -5.785  22.826  0.00  0.00    -0.270 OA
ATOM      5  N   UNL     1       5.826  -5.648  25.137  0.00  0.00    -0.244 N 
ATOM      6  C   UNL     1       4.658  -6.143  25.662  0.00  0.00    +0.123 C 
ATOM      7  C   UNL     1       4.416  -6.012  27.003  0.00  0.00    -0.021 C 
ATOM      8  C   UNL     1       5.361  -5.318  27.977  0.00  0.00    +0.104 C 
ATOM      9  S   UNL     1       6.446  -4.090  27.207  0.00  0.00    -0.128 S 
ENDROOT
BRANCH   2  10
ATOM     10  N   UNL     1       7.599  -3.154  24.513  0.00  0.00    -0.276 N 
ATOM     11  H   UNL     1       7.391  -2.638  25.362  0.00  0.00    +0.152 HD
ATOM     12  C   UNL     1       7.762  -2.410  23.354  0.00  0.00    +0.239 C 
ATOM     13  O   UNL     1       7.942  -2.975  22.271  0.00  0.00    -0.274 OA
BRANCH  12  14
ATOM     14  C   UNL     1       7.671  -0.846  23.516  0.00  0.00    +0.200 C 
ATOM     15  S   UNL     1       9.284  -0.032  23.222  0.00  0.00    -0.093 S 
ATOM     16  C   UNL     1       8.452   1.041  24.334  0.00  0.00    +0.063 C 
ATOM     17  C   UNL     1       8.450   2.386  24.493  0.00  0.00    +0.140 C 
ATOM     18  S   UNL     1       7.699  -0.253  25.257  0.00  0.00    -0.093 S 
BRANCH  17  19
ATOM     19  C   UNL     1       7.678   3.029  25.593  0.00  0.00    +0.250 C 
ATOM     20  O   UNL     1       7.165   4.135  25.420  0.00  0.00    -0.270 OA
ATOM     21  N   UNL     1       7.578   2.439  26.806  0.00  0.00    -0.325 N 
ATOM     22  H   UNL     1       7.043   2.904  27.530  0.00  0.00    +0.145 HD
ATOM     23  H   UNL     1       7.992   1.541  27.028  0.00  0.00    +0.145 HD
ENDBRANCH  17  19
BRANCH  17  24
ATOM     24  C   UNL     1       9.205   3.232  23.523  0.00  0.00    +0.343 C 
ATOM     25  O   UNL     1      10.309   3.713  23.711  0.00  0.00    -0.245 OA
BRANCH  24  26
ATOM     26  O   UNL     1       8.564   3.461  22.347  0.00  0.00    -0.477 OA
ATOM     27  H   UNL     1       7.873   4.168  22.367  0.00  0.00    +0.295 HD
ENDBRANCH  24  26
ENDBRANCH  17  24
ENDBRANCH  12  14
ENDBRANCH   2  10
BRANCH   2  28
ATOM     28  O   UNL     1       8.936  -5.168  24.290  0.00  0.00    -0.349 OA
ATOM     29  C   UNL     1       9.905  -5.095  25.332  0.00  0.00    +0.197 C 
ENDBRANCH   2  28
BRANCH   6  30
ATOM     30  C   UNL     1       3.625  -6.822  24.773  0.00  0.00    +0.351 C 
ATOM     31  O   UNL     1       3.581  -8.032  24.590  0.00  0.00    -0.244 OA
BRANCH  30  32
ATOM     32  O   UNL     1       2.742  -6.044  24.125  0.00  0.00    -0.476 OA
ATOM     33  H   UNL     1       1.812  -6.013  24.441  0.00  0.00    +0.295 HD
ENDBRANCH  30  32
ENDBRANCH   6  30
BRANCH   7  34
ATOM     34  C   UNL     1       3.152  -6.482  27.726  0.00  0.00    +0.111 C 
BRANCH  34  35
ATOM     35  S   UNL     1       2.235  -5.049  28.370  0.00  0.00    -0.080 S 
BRANCH  35  36
ATOM     36  C   UNL     1       1.643  -4.374  26.897  0.00  0.00    +0.209 A 
ATOM     37  N   UNL     1       2.135  -3.255  26.289  0.00  0.00    -0.223 N 
ATOM     38  C   UNL     1       3.155  -2.338  26.716  0.00  0.00    +0.177 C 
ATOM     39  N   UNL     1       1.488  -3.060  25.124  0.00  0.00    -0.043 NA
ATOM     40  N   UNL     1       0.612  -4.054  25.043  0.00  0.00    -0.022 NA
ATOM     41  N   UNL     1       0.692  -4.876  26.144  0.00  0.00    -0.102 NA
ENDBRANCH  35  36
ENDBRANCH  34  35
ENDBRANCH   7  34
TORSDOF 11
ENDMDL
MODEL 8
REMARK VINA RESULT:      -7.0      2.576      3.580
REMARK  Name = 
REMARK  13 active torsions:
REMARK  status: ('A' for Active; 'I' for Inactive)
REMARK    1  A    between atoms: C_5  and  C_6
REMARK    2  A    between atoms: C_6  and  S_7
REMARK    3  A    between atoms: S_7  and  C_8
REMARK    4  A    between atoms: N_12  and  C_13
REMARK    5  A    between atoms: C_14  and  C_35
REMARK    6  A    between atoms: C_18  and  N_19
REMARK    7  A    between atoms: C_18  and  O_33
REMARK    8  A    between atoms: C_20  and  C_22
REMARK    9  A    between atoms: C_26  and  C_27
REMARK   10  A    between atoms: C_26  and  C_30
REMARK   11  A    between atoms: C_30  and  O_31
REMARK   12  A    between atoms: O_33  and  C_34
REMARK   13  A    between atoms: C_35  and  O_36
REMARK                            x       y       z     vdW  Elec       q    Type
REMARK                         _______ _______ _______ _____ _____    ______ ____
ROOT
ATOM      1  C   UNL     1       5.936  -5.411  24.911  0.00  0.00    +0.199 C 
ATOM      2  C   UNL     1       6.006  -5.003  23.378  0.00  0.00    +0.242 C 
ATOM      3  C   UNL     1       4.430  -5.281  23.471  0.00  0.00    +0.275 C 
ATOM      4  O   UNL     1       3.482  -5.395  22.727  0.00  0.00    -0.270 OA
ATOM      5  N   UNL     1       4.486  -5.318  24.822  0.00  0.00    -0.244 N 
ATOM      6  C   UNL     1       3.637  -5.383  25.899  0.00  0.00    +0.123 C 
ATOM      7  C   UNL     1       4.144  -5.247  27.163  0.00  0.00    -0.021 C 
ATOM      8  C   UNL     1       5.617  -5.000  27.470  0.00  0.00    +0.104 C 
ATOM      9  S   UNL     1       6.531  -4.210  26.122  0.00  0.00    -0.128 S 
ENDROOT
BRANCH   2  10
ATOM     10  N   UNL     1       6.458  -3.609  23.106  0.00  0.00    -0.276 N 
ATOM     11  H   UNL     1       5.749  -2.937  22.832  0.00  0.00    +0.152 HD
ATOM     12  C   UNL     1       7.772  -3.165  23.114  0.00  0.00    +0.239 C 
ATOM     13  O   UNL     1       8.693  -3.948  23.364  0.00  0.00    -0.274 OA
BRANCH  12  14
ATOM     14  C   UNL     1       7.991  -1.645  22.760  0.00  0.00    +0.200 C 
ATOM     15  S   UNL     1       9.494  -0.967  23.553  0.00  0.00    -0.093 S 
ATOM     16  C   UNL     1       8.432   0.418  23.381  0.00  0.00    +0.063 C 
ATOM     17  C   UNL     1       8.658   1.733  23.145  0.00  0.00    +0.140 C 
ATOM     18  S   UNL     1       6.959  -0.476  23.735  0.00  0.00    -0.093 S 
BRANCH  17  19
ATOM     19  C   UNL     1       7.536   2.714  23.115  0.00  0.00    +0.250 C 
ATOM     20  O   UNL     1       7.209   3.306  24.144  0.00  0.00    -0.270 OA
ATOM     21  N   UNL     1       6.830   2.923  21.981  0.00  0.00    -0.325 N 
ATOM     22  H   UNL     1       6.075   3.598  21.997  0.00  0.00    +0.145 HD
ATOM     23  H   UNL     1       7.027   2.456  21.103  0.00  0.00    +0.145 HD
ENDBRANCH  17  19
BRANCH  17  24
ATOM     24  C   UNL     1      10.052   2.192  22.874  0.00  0.00    +0.343 C 
ATOM     25  O   UNL     1      10.897   2.430  23.719  0.00  0.00    -0.245 OA
BRANCH  24  26
ATOM     26  O   UNL     1      10.355   2.344  21.558  0.00  0.00    -0.477 OA
ATOM     27  H   UNL     1       9.618   2.669  20.984  0.00  0.00    +0.295 HD
ENDBRANCH  24  26
ENDBRANCH  17  24
ENDBRANCH  12  14
ENDBRANCH   2  10
BRANCH   2  28
ATOM     28  O   UNL     1       6.730  -5.956  22.547  0.00  0.00    -0.349 OA
ATOM     29  C   UNL     1       6.483  -5.881  21.146  0.00  0.00    +0.197 C 
ENDBRANCH   2  28
BRANCH   6  30
ATOM     30  C   UNL     1       2.141  -5.589  25.706  0.00  0.00    +0.351 C 
ATOM     31  O   UNL     1       1.607  -6.691  25.684  0.00  0.00    -0.244 OA
BRANCH  30  32
ATOM     32  O   UNL     1       1.375  -4.503  25.508  0.00  0.00    -0.476 OA
ATOM     33  H   UNL     1       1.219  -3.887  26.258  0.00  0.00    +0.295 HD
ENDBRANCH  30  32
ENDBRANCH   6  30
BRANCH   7  34
ATOM     34  C   UNL     1       3.324  -5.265  28.455  0.00  0.00    +0.111 C 
BRANCH  34  35
ATOM     35  S   UNL     1       3.508  -3.681  29.330  0.00  0.00    -0.080 S 
BRANCH  35  36
ATOM     36  C   UNL     1       2.893  -2.595  28.138  0.00  0.00    +0.209 A 
ATOM     37  N   UNL     1       3.616  -1.621  27.513  0.00  0.00    -0.223 N 
ATOM     38  C   UNL     1       4.972  -1.193  27.718  0.00  0.00    +0.177 C 
ATOM     39  N   UNL     1       2.843  -1.015  26.591  0.00  0.00    -0.043 NA
ATOM     40  N   UNL     1       1.666  -1.623  26.672  0.00  0.00    -0.022 NA
ATOM     41  N   UNL     1       1.680  -2.605  27.636  0.00  0.00    -0.102 NA
ENDBRANCH  35  36
ENDBRANCH  34  35
ENDBRANCH   7  34
TORSDOF 11
ENDMDL
MODEL 9
REMARK VINA RESULT:      -6.7      2.394      3.222
REMARK  Name = 
REMARK  13 active torsions:
REMARK  status: ('A' for Active; 'I' for Inactive)
REMARK    1  A    between atoms: C_5  and  C_6
REMARK    2  A    between atoms: C_6  and  S_7
REMARK    3  A    between atoms: S_7  and  C_8
REMARK    4  A    between atoms: N_12  and  C_13
REMARK    5  A    between atoms: C_14  and  C_35
REMARK    6  A    between atoms: C_18  and  N_19
REMARK    7  A    between atoms: C_18  and  O_33
REMARK    8  A    between atoms: C_20  and  C_22
REMARK    9  A    between atoms: C_26  and  C_27
REMARK   10  A    between atoms: C_26  and  C_30
REMARK   11  A    between atoms: C_30  and  O_31
REMARK   12  A    between atoms: O_33  and  C_34
REMARK   13  A    between atoms: C_35  and  O_36
REMARK                            x       y       z     vdW  Elec       q    Type
REMARK                         _______ _______ _______ _____ _____    ______ ____
ROOT
ATOM      1  C   UNL     1       7.105  -5.378  24.891  0.00  0.00    +0.199 C 
ATOM      2  C   UNL     1       6.897  -4.607  23.519  0.00  0.00    +0.242 C 
ATOM      3  C   UNL     1       5.388  -5.103  23.737  0.00  0.00    +0.275 C 
ATOM      4  O   UNL     1       4.350  -5.157  23.116  0.00  0.00    -0.270 OA
ATOM      5  N   UNL     1       5.658  -5.457  25.015  0.00  0.00    -0.244 N 
ATOM      6  C   UNL     1       4.997  -5.889  26.137  0.00  0.00    +0.123 C 
ATOM      7  C   UNL     1       5.680  -5.998  27.319  0.00  0.00    -0.021 C 
ATOM      8  C   UNL     1       7.152  -5.642  27.489  0.00  0.00    +0.104 C 
ATOM      9  S   UNL     1       7.766  -4.438  26.285  0.00  0.00    -0.128 S 
ENDROOT
BRANCH   2  10
ATOM     10  N   UNL     1       7.167  -3.142  23.560  0.00  0.00    -0.276 N 
ATOM     11  H   UNL     1       7.765  -2.801  24.306  0.00  0.00    +0.152 HD
ATOM     12  C   UNL     1       6.611  -2.189  22.720  0.00  0.00    +0.239 C 
ATOM     13  O   UNL     1       5.815  -2.525  21.838  0.00  0.00    -0.274 OA
BRANCH  12  14
ATOM     14  C   UNL     1       7.034  -0.696  22.990  0.00  0.00    +0.200 C 
ATOM     15  S   UNL     1       8.834  -0.537  23.284  0.00  0.00    -0.093 S 
ATOM     16  C   UNL     1       8.128   0.796  24.179  0.00  0.00    +0.063 C 
ATOM     17  C   UNL     1       8.552   2.054  24.453  0.00  0.00    +0.140 C 
ATOM     18  S   UNL     1       6.711  -0.105  24.700  0.00  0.00    -0.093 S 
BRANCH  17  19
ATOM     19  C   UNL     1       7.750   2.966  25.315  0.00  0.00    +0.250 C 
ATOM     20  O   UNL     1       7.286   4.006  24.847  0.00  0.00    -0.270 OA
ATOM     21  N   UNL     1       7.568   2.696  26.628  0.00  0.00    -0.325 N 
ATOM     22  H   UNL     1       7.015   3.337  27.184  0.00  0.00    +0.145 HD
ATOM     23  H   UNL     1       7.937   1.871  27.088  0.00  0.00    +0.145 HD
ENDBRANCH  17  19
BRANCH  17  24
ATOM     24  C   UNL     1       9.827   2.537  23.846  0.00  0.00    +0.343 C 
ATOM     25  O   UNL     1      10.936   2.080  24.067  0.00  0.00    -0.245 OA
BRANCH  24  26
ATOM     26  O   UNL     1       9.689   3.577  22.983  0.00  0.00    -0.477 OA
ATOM     27  H   UNL     1      10.150   4.412  23.244  0.00  0.00    +0.295 HD
ENDBRANCH  24  26
ENDBRANCH  17  24
ENDBRANCH  12  14
ENDBRANCH   2  10
BRANCH   2  28
ATOM     28  O   UNL     1       7.569  -5.229  22.386  0.00  0.00    -0.349 OA
ATOM     29  C   UNL     1       6.946  -6.392  21.849  0.00  0.00    +0.197 C 
ENDBRANCH   2  28
BRANCH   6  30
ATOM     30  C   UNL     1       3.515  -6.236  26.090  0.00  0.00    +0.351 C 
ATOM     31  O   UNL     1       3.086  -7.383  26.144  0.00  0.00    -0.244 OA
BRANCH  30  32
ATOM     32  O   UNL     1       2.636  -5.231  25.939  0.00  0.00    -0.476 OA
ATOM     33  H   UNL     1       2.681  -4.678  25.129  0.00  0.00    +0.295 HD
ENDBRANCH  30  32
ENDBRANCH   6  30
BRANCH   7  34
ATOM     34  C   UNL     1       5.077  -6.433  28.656  0.00  0.00    +0.111 C 
BRANCH  34  35
ATOM     35  S   UNL     1       4.942  -5.004  29.773  0.00  0.00    -0.080 S 
BRANCH  35  36
ATOM     36  C   UNL     1       3.640  -4.151  29.028  0.00  0.00    +0.209 A 
ATOM     37  N   UNL     1       3.774  -3.062  28.215  0.00  0.00    -0.223 N 
ATOM     38  C   UNL     1       4.945  -2.317  27.845  0.00  0.00    +0.177 C 
ATOM     39  N   UNL     1       2.562  -2.700  27.753  0.00  0.00    -0.043 NA
ATOM     40  N   UNL     1       1.712  -3.566  28.293  0.00  0.00    -0.022 NA
ATOM     41  N   UNL     1       2.369  -4.470  29.095  0.00  0.00    -0.102 NA
ENDBRANCH  35  36
ENDBRANCH  34  35
ENDBRANCH   7  34
TORSDOF 11
ENDMDL
