MODEL 1
REMARK VINA RESULT:      -6.2      0.000      0.000
REMARK  Name = 
REMARK  7 active torsions:
REMARK  status: ('A' for Active; 'I' for Inactive)
REMARK    1  A    between atoms: C_2  and  C_3
REMARK    2  A    between atoms: C_5  and  C_7
REMARK    3  A    between atoms: C_8  and  O_10
REMARK    4  A    between atoms: C_11  and  C_13
REMARK    5  A    between atoms: C_17  and  C_19
REMARK    6  A    between atoms: C_19  and  C_20
REMARK    7  A    between atoms: C_21  and  C_23
REMARK                            x       y       z     vdW  Elec       q    Type
REMARK                         _______ _______ _______ _____ _____    ______ ____
ROOT
ATOM      1  C   UNL     1       6.757   2.558  22.990  0.00  0.00    +0.057 C 
ATOM      2  C   UNL     1       6.235   1.691  24.160  0.00  0.00    +0.159 C 
ATOM      3  O   UNL     1       5.709   2.206  25.143  0.00  0.00    -0.292 OA
ATOM      4  C   UNL     1       6.329   0.212  24.040  0.00  0.00    +0.042 C 
ATOM      5  C   UNL     1       5.872  -0.667  24.940  0.00  0.00    -0.017 C 
ATOM      6  C   UNL     1       6.132  -2.174  24.914  0.00  0.00    +0.049 C 
ATOM      7  C   UNL     1       4.811  -2.898  24.630  0.00  0.00    +0.015 C 
ATOM      8  C   UNL     1       7.328  -2.693  24.024  0.00  0.00    +0.183 C 
ATOM      9  O   UNL     1       8.349  -1.669  24.109  0.00  0.00    -0.461 OA
ATOM     10  C   UNL     1       9.650  -1.947  23.876  0.00  0.00    +0.313 C 
ATOM     11  O   UNL     1      10.151  -3.063  23.948  0.00  0.00    -0.250 OA
ATOM     12  C   UNL     1      10.405  -0.676  23.523  0.00  0.00    +0.123 C 
ATOM     13  C   UNL     1      10.723   0.084  24.809  0.00  0.00    +0.022 C 
ATOM     14  C   UNL     1       9.776   0.159  22.350  0.00  0.00    +0.131 C 
ATOM     15  C   UNL     1       9.154   1.556  22.695  0.00  0.00    +0.016 C 
ATOM     16  C   UNL     1      10.186   2.625  22.281  0.00  0.00    +0.010 C 
ATOM     17  C   UNL     1       7.787   1.906  22.028  0.00  0.00    +0.017 C 
ATOM     18  C   UNL     1       5.520   3.003  22.204  0.00  0.00    +0.016 C 
ENDROOT
BRANCH   8  19
ATOM     19  C   UNL     1       6.934  -2.933  22.547  0.00  0.00    +0.042 C 
ATOM     20  C   UNL     1       7.018  -4.372  22.051  0.00  0.00    +0.007 C 
ENDBRANCH   8  19
BRANCH  14  21
ATOM     21  O   UNL     1       8.878  -0.630  21.581  0.00  0.00    -0.391 OA
ATOM     22  H   UNL     1       9.259  -1.520  21.477  0.00  0.00    +0.210 HD
ENDBRANCH  14  21
TORSDOF 2
ENDMDL
MODEL 2
REMARK VINA RESULT:      -6.1      3.482      5.606
REMARK  Name = 
REMARK  7 active torsions:
REMARK  status: ('A' for Active; 'I' for Inactive)
REMARK    1  A    between atoms: C_2  and  C_3
REMARK    2  A    between atoms: C_5  and  C_7
REMARK    3  A    between atoms: C_8  and  O_10
REMARK    4  A    between atoms: C_11  and  C_13
REMARK    5  A    between atoms: C_17  and  C_19
REMARK    6  A    between atoms: C_19  and  C_20
REMARK    7  A    between atoms: C_21  and  C_23
REMARK                            x       y       z     vdW  Elec       q    Type
REMARK                         _______ _______ _______ _____ _____    ______ ____
ROOT
ATOM      1  C   UNL     1       8.621  -2.464  25.580  0.00  0.00    +0.057 C 
ATOM      2  C   UNL     1       8.267  -3.808  26.260  0.00  0.00    +0.159 C 
ATOM      3  O   UNL     1       9.111  -4.439  26.891  0.00  0.00    -0.292 OA
ATOM      4  C   UNL     1       6.863  -4.290  26.183  0.00  0.00    +0.042 C 
ATOM      5  C   UNL     1       6.394  -5.402  26.765  0.00  0.00    -0.017 C 
ATOM      6  C   UNL     1       5.006  -6.001  26.536  0.00  0.00    +0.049 C 
ATOM      7  C   UNL     1       4.191  -5.867  27.826  0.00  0.00    +0.015 C 
ATOM      8  C   UNL     1       4.214  -5.538  25.250  0.00  0.00    +0.183 C 
ATOM      9  O   UNL     1       5.218  -5.337  24.226  0.00  0.00    -0.461 OA
ATOM     10  C   UNL     1       4.909  -5.390  22.913  0.00  0.00    +0.313 C 
ATOM     11  O   UNL     1       3.926  -5.954  22.448  0.00  0.00    -0.250 OA
ATOM     12  C   UNL     1       5.961  -4.660  22.094  0.00  0.00    +0.123 C 
ATOM     13  C   UNL     1       7.173  -5.573  21.919  0.00  0.00    +0.022 C 
ATOM     14  C   UNL     1       6.251  -3.188  22.557  0.00  0.00    +0.131 C 
ATOM     15  C   UNL     1       7.653  -2.878  23.186  0.00  0.00    +0.016 C 
ATOM     16  C   UNL     1       8.503  -2.205  22.089  0.00  0.00    +0.010 C 
ATOM     17  C   UNL     1       7.674  -1.967  24.455  0.00  0.00    +0.017 C 
ATOM     18  C   UNL     1       8.685  -1.423  26.702  0.00  0.00    +0.016 C 
ENDROOT
BRANCH   8  19
ATOM     19  C   UNL     1       3.403  -4.238  25.466  0.00  0.00    +0.042 C 
ATOM     20  C   UNL     1       1.983  -4.227  24.910  0.00  0.00    +0.007 C 
ENDBRANCH   8  19
BRANCH  14  21
ATOM     21  O   UNL     1       5.197  -2.687  23.371  0.00  0.00    -0.391 OA
ATOM     22  H   UNL     1       5.416  -2.864  24.302  0.00  0.00    +0.210 HD
ENDBRANCH  14  21
TORSDOF 2
ENDMDL
MODEL 3
REMARK VINA RESULT:      -5.8      1.536      5.717
REMARK  Name = 
REMARK  7 active torsions:
REMARK  status: ('A' for Active; 'I' for Inactive)
REMARK    1  A    between atoms: C_2  and  C_3
REMARK    2  A    between atoms: C_5  and  C_7
REMARK    3  A    between atoms: C_8  and  O_10
REMARK    4  A    between atoms: C_11  and  C_13
REMARK    5  A    between atoms: C_17  and  C_19
REMARK    6  A    between atoms: C_19  and  C_20
REMARK    7  A    between atoms: C_21  and  C_23
REMARK                            x       y       z     vdW  Elec       q    Type
REMARK                         _______ _______ _______ _____ _____    ______ ____
ROOT
ATOM      1  C   UNL     1       7.621  -3.454  24.063  0.00  0.00    +0.057 C 
ATOM      2  C   UNL     1       8.913  -2.616  23.925  0.00  0.00    +0.159 C 
ATOM      3  O   UNL     1      10.020  -3.136  24.043  0.00  0.00    -0.292 OA
ATOM      4  C   UNL     1       8.787  -1.174  23.583  0.00  0.00    +0.042 C 
ATOM      5  C   UNL     1       9.811  -0.336  23.377  0.00  0.00    -0.017 C 
ATOM      6  C   UNL     1       9.693   1.180  23.213  0.00  0.00    +0.049 C 
ATOM      7  C   UNL     1      10.060   1.551  21.773  0.00  0.00    +0.015 C 
ATOM      8  C   UNL     1       8.361   1.866  23.711  0.00  0.00    +0.183 C 
ATOM      9  O   UNL     1       7.950   1.116  24.880  0.00  0.00    -0.461 OA
ATOM     10  C   UNL     1       7.149   1.659  25.822  0.00  0.00    +0.313 C 
ATOM     11  O   UNL     1       7.001   2.860  26.007  0.00  0.00    -0.250 OA
ATOM     12  C   UNL     1       6.468   0.565  26.628  0.00  0.00    +0.123 C 
ATOM     13  C   UNL     1       7.450   0.031  27.668  0.00  0.00    +0.022 C 
ATOM     14  C   UNL     1       5.702  -0.505  25.769  0.00  0.00    +0.131 C 
ATOM     15  C   UNL     1       6.272  -1.966  25.738  0.00  0.00    +0.016 C 
ATOM     16  C   UNL     1       5.412  -2.807  26.703  0.00  0.00    +0.010 C 
ATOM     17  C   UNL     1       6.303  -2.684  24.352  0.00  0.00    +0.017 C 
ATOM     18  C   UNL     1       7.484  -4.245  22.759  0.00  0.00    +0.016 C 
ENDROOT
BRANCH   8  19
ATOM     19  C   UNL     1       7.235   1.860  22.649  0.00  0.00    +0.042 C 
ATOM     20  C   UNL     1       6.704   3.223  22.220  0.00  0.00    +0.007 C 
ENDBRANCH   8  19
BRANCH  14  21
ATOM     21  O   UNL     1       5.445  -0.024  24.456  0.00  0.00    -0.391 OA
ATOM     22  H   UNL     1       6.142   0.613  24.218  0.00  0.00    +0.210 HD
ENDBRANCH  14  21
TORSDOF 2
ENDMDL
MODEL 4
REMARK VINA RESULT:      -5.8      1.999      6.240
REMARK  Name = 
REMARK  7 active torsions:
REMARK  status: ('A' for Active; 'I' for Inactive)
REMARK    1  A    between atoms: C_2  and  C_3
REMARK    2  A    between atoms: C_5  and  C_7
REMARK    3  A    between atoms: C_8  and  O_10
REMARK    4  A    between atoms: C_11  and  C_13
REMARK    5  A    between atoms: C_17  and  C_19
REMARK    6  A    between atoms: C_19  and  C_20
REMARK    7  A    between atoms: C_21  and  C_23
REMARK                            x       y       z     vdW  Elec       q    Type
REMARK                         _______ _______ _______ _____ _____    ______ ____
ROOT
ATOM      1  C   UNL     1       6.859  -5.532  23.268  0.00  0.00    +0.057 C 
ATOM      2  C   UNL     1       8.164  -4.922  23.830  0.00  0.00    +0.159 C 
ATOM      3  O   UNL     1       9.105  -5.637  24.164  0.00  0.00    -0.292 OA
ATOM      4  C   UNL     1       8.278  -3.441  23.899  0.00  0.00    +0.042 C 
ATOM      5  C   UNL     1       9.361  -2.767  24.308  0.00  0.00    -0.017 C 
ATOM      6  C   UNL     1       9.421  -1.260  24.559  0.00  0.00    +0.049 C 
ATOM      7  C   UNL     1      10.329  -0.618  23.504  0.00  0.00    +0.015 C 
ATOM      8  C   UNL     1       8.051  -0.496  24.746  0.00  0.00    +0.183 C 
ATOM      9  O   UNL     1       7.179  -1.425  25.434  0.00  0.00    -0.461 OA
ATOM     10  C   UNL     1       6.123  -0.998  26.158  0.00  0.00    +0.313 C 
ATOM     11  O   UNL     1       6.001   0.130  26.620  0.00  0.00    -0.250 OA
ATOM     12  C   UNL     1       5.112  -2.121  26.329  0.00  0.00    +0.123 C 
ATOM     13  C   UNL     1       5.590  -3.052  27.440  0.00  0.00    +0.022 C 
ATOM     14  C   UNL     1       4.653  -2.802  24.989  0.00  0.00    +0.131 C 
ATOM     15  C   UNL     1       5.087  -4.287  24.734  0.00  0.00    +0.016 C 
ATOM     16  C   UNL     1       3.870  -5.176  25.059  0.00  0.00    +0.010 C 
ATOM     17  C   UNL     1       5.588  -4.641  23.298  0.00  0.00    +0.017 C 
ATOM     18  C   UNL     1       7.168  -5.948  21.827  0.00  0.00    +0.016 C 
ENDROOT
BRANCH   8  19
ATOM     19  C   UNL     1       7.411  -0.050  23.410  0.00  0.00    +0.042 C 
ATOM     20  C   UNL     1       6.980   1.410  23.321  0.00  0.00    +0.007 C 
ENDBRANCH   8  19
BRANCH  14  21
ATOM     21  O   UNL     1       4.945  -1.979  23.867  0.00  0.00    -0.391 OA
ATOM     22  H   UNL     1       5.904  -1.821  23.840  0.00  0.00    +0.210 HD
ENDBRANCH  14  21
TORSDOF 2
ENDMDL
MODEL 5
REMARK VINA RESULT:      -5.8      1.959      2.467
REMARK  Name = 
REMARK  7 active torsions:
REMARK  status: ('A' for Active; 'I' for Inactive)
REMARK    1  A    between atoms: C_2  and  C_3
REMARK    2  A    between atoms: C_5  and  C_7
REMARK    3  A    between atoms: C_8  and  O_10
REMARK    4  A    between atoms: C_11  and  C_13
REMARK    5  A    between atoms: C_17  and  C_19
REMARK    6  A    between atoms: C_19  and  C_20
REMARK    7  A    between atoms: C_21  and  C_23
REMARK                            x       y       z     vdW  Elec       q    Type
REMARK                         _______ _______ _______ _____ _____    ______ ____
ROOT
ATOM      1  C   UNL     1       6.739   1.728  26.387  0.00  0.00    +0.057 C 
ATOM      2  C   UNL     1       7.278   0.435  27.043  0.00  0.00    +0.159 C 
ATOM      3  O   UNL     1       7.482   0.378  28.253  0.00  0.00    -0.292 OA
ATOM      4  C   UNL     1       7.486  -0.760  26.183  0.00  0.00    +0.042 C 
ATOM      5  C   UNL     1       7.893  -1.961  26.614  0.00  0.00    -0.017 C 
ATOM      6  C   UNL     1       8.288  -3.134  25.716  0.00  0.00    +0.049 C 
ATOM      7  C   UNL     1       7.249  -4.249  25.874  0.00  0.00    +0.015 C 
ATOM      8  C   UNL     1       8.633  -2.815  24.208  0.00  0.00    +0.183 C 
ATOM      9  O   UNL     1       9.276  -1.518  24.222  0.00  0.00    -0.461 OA
ATOM     10  C   UNL     1      10.103  -1.129  23.227  0.00  0.00    +0.313 C 
ATOM     11  O   UNL     1      10.680  -1.888  22.460  0.00  0.00    -0.250 OA
ATOM     12  C   UNL     1      10.222   0.387  23.205  0.00  0.00    +0.123 C 
ATOM     13  C   UNL     1      11.205   0.822  24.289  0.00  0.00    +0.022 C 
ATOM     14  C   UNL     1       8.853   1.154  23.148  0.00  0.00    +0.131 C 
ATOM     15  C   UNL     1       8.426   1.989  24.405  0.00  0.00    +0.016 C 
ATOM     16  C   UNL     1       8.735   3.467  24.092  0.00  0.00    +0.010 C 
ATOM     17  C   UNL     1       6.934   1.880  24.854  0.00  0.00    +0.017 C 
ATOM     18  C   UNL     1       5.248   1.791  26.729  0.00  0.00    +0.016 C 
ENDROOT
BRANCH   8  19
ATOM     19  C   UNL     1       7.388  -2.785  23.289  0.00  0.00    +0.042 C 
ATOM     20  C   UNL     1       7.298  -3.885  22.237  0.00  0.00    +0.007 C 
ENDBRANCH   8  19
BRANCH  14  21
ATOM     21  O   UNL     1       7.801   0.300  22.715  0.00  0.00    -0.391 OA
ATOM     22  H   UNL     1       8.110  -0.202  21.940  0.00  0.00    +0.210 HD
ENDBRANCH  14  21
TORSDOF 2
ENDMDL
MODEL 6
REMARK VINA RESULT:      -5.8      1.686      4.596
REMARK  Name = 
REMARK  7 active torsions:
REMARK  status: ('A' for Active; 'I' for Inactive)
REMARK    1  A    between atoms: C_2  and  C_3
REMARK    2  A    between atoms: C_5  and  C_7
REMARK    3  A    between atoms: C_8  and  O_10
REMARK    4  A    between atoms: C_11  and  C_13
REMARK    5  A    between atoms: C_17  and  C_19
REMARK    6  A    between atoms: C_19  and  C_20
REMARK    7  A    between atoms: C_21  and  C_23
REMARK                            x       y       z     vdW  Elec       q    Type
REMARK                         _______ _______ _______ _____ _____    ______ ____
ROOT
ATOM      1  C   UNL     1       6.494  -0.514  27.044  0.00  0.00    +0.057 C 
ATOM      2  C   UNL     1       5.689   0.126  25.890  0.00  0.00    +0.159 C 
ATOM      3  O   UNL     1       4.461   0.148  25.910  0.00  0.00    -0.292 OA
ATOM      4  C   UNL     1       6.438   0.772  24.779  0.00  0.00    +0.042 C 
ATOM      5  C   UNL     1       5.883   1.413  23.742  0.00  0.00    -0.017 C 
ATOM      6  C   UNL     1       6.635   1.911  22.507  0.00  0.00    +0.049 C 
ATOM      7  C   UNL     1       6.627   3.444  22.509  0.00  0.00    +0.015 C 
ATOM      8  C   UNL     1       8.063   1.298  22.225  0.00  0.00    +0.183 C 
ATOM      9  O   UNL     1       7.986  -0.082  22.657  0.00  0.00    -0.461 OA
ATOM     10  C   UNL     1       8.822  -1.023  22.168  0.00  0.00    +0.313 C 
ATOM     11  O   UNL     1       9.430  -0.936  21.109  0.00  0.00    -0.250 OA
ATOM     12  C   UNL     1       8.891  -2.210  23.116  0.00  0.00    +0.123 C 
ATOM     13  C   UNL     1       7.660  -3.087  22.899  0.00  0.00    +0.022 C 
ATOM     14  C   UNL     1       9.242  -1.845  24.603  0.00  0.00    +0.131 C 
ATOM     15  C   UNL     1       8.128  -2.041  25.689  0.00  0.00    +0.016 C 
ATOM     16  C   UNL     1       8.444  -3.358  26.428  0.00  0.00    +0.010 C 
ATOM     17  C   UNL     1       7.967  -0.907  26.750  0.00  0.00    +0.017 C 
ATOM     18  C   UNL     1       6.445   0.485  28.204  0.00  0.00    +0.016 C 
ENDROOT
BRANCH   8  19
ATOM     19  C   UNL     1       9.203   2.030  22.973  0.00  0.00    +0.042 C 
ATOM     20  C   UNL     1      10.498   2.237  22.196  0.00  0.00    +0.007 C 
ENDBRANCH   8  19
BRANCH  14  21
ATOM     21  O   UNL     1       9.828  -0.553  24.692  0.00  0.00    -0.391 OA
ATOM     22  H   UNL     1      10.252  -0.465  25.563  0.00  0.00    +0.210 HD
ENDBRANCH  14  21
TORSDOF 2
ENDMDL
MODEL 7
REMARK VINA RESULT:      -5.7      2.542      3.827
REMARK  Name = 
REMARK  7 active torsions:
REMARK  status: ('A' for Active; 'I' for Inactive)
REMARK    1  A    between atoms: C_2  and  C_3
REMARK    2  A    between atoms: C_5  and  C_7
REMARK    3  A    between atoms: C_8  and  O_10
REMARK    4  A    between atoms: C_11  and  C_13
REMARK    5  A    between atoms: C_17  and  C_19
REMARK    6  A    between atoms: C_19  and  C_20
REMARK    7  A    between atoms: C_21  and  C_23
REMARK                            x       y       z     vdW  Elec       q    Type
REMARK                         _______ _______ _______ _____ _____    ______ ____
ROOT
ATOM      1  C   UNL     1       7.293   0.285  26.217  0.00  0.00    +0.057 C 
ATOM      2  C   UNL     1       8.147  -0.909  26.703  0.00  0.00    +0.159 C 
ATOM      3  O   UNL     1       9.139  -0.733  27.406  0.00  0.00    -0.292 OA
ATOM      4  C   UNL     1       7.705  -2.284  26.349  0.00  0.00    +0.042 C 
ATOM      5  C   UNL     1       8.306  -3.415  26.741  0.00  0.00    -0.017 C 
ATOM      6  C   UNL     1       7.971  -4.816  26.229  0.00  0.00    +0.049 C 
ATOM      7  C   UNL     1       7.346  -5.623  27.373  0.00  0.00    +0.015 C 
ATOM      8  C   UNL     1       7.162  -4.926  24.877  0.00  0.00    +0.183 C 
ATOM      9  O   UNL     1       7.623  -3.824  24.058  0.00  0.00    -0.461 OA
ATOM     10  C   UNL     1       7.517  -3.852  22.712  0.00  0.00    +0.313 C 
ATOM     11  O   UNL     1       7.400  -4.870  22.041  0.00  0.00    -0.250 OA
ATOM     12  C   UNL     1       7.575  -2.441  22.150  0.00  0.00    +0.123 C 
ATOM     13  C   UNL     1       9.032  -1.989  22.098  0.00  0.00    +0.022 C 
ATOM     14  C   UNL     1       6.549  -1.436  22.787  0.00  0.00    +0.131 C 
ATOM     15  C   UNL     1       7.115  -0.269  23.668  0.00  0.00    +0.016 C 
ATOM     16  C   UNL     1       7.107   1.002  22.793  0.00  0.00    +0.010 C 
ATOM     17  C   UNL     1       6.361   0.043  24.999  0.00  0.00    +0.017 C 
ATOM     18  C   UNL     1       6.464   0.736  27.423  0.00  0.00    +0.016 C 
ENDROOT
BRANCH   8  19
ATOM     19  C   UNL     1       5.629  -4.843  25.072  0.00  0.00    +0.042 C 
ATOM     20  C   UNL     1       4.802  -5.929  24.393  0.00  0.00    +0.007 C 
ENDBRANCH   8  19
BRANCH  14  21
ATOM     21  O   UNL     1       5.500  -2.126  23.456  0.00  0.00    -0.391 OA
ATOM     22  H   UNL     1       5.405  -3.007  23.054  0.00  0.00    +0.210 HD
ENDBRANCH  14  21
TORSDOF 2
ENDMDL
MODEL 8
REMARK VINA RESULT:      -5.7      2.459      5.673
REMARK  Name = 
REMARK  7 active torsions:
REMARK  status: ('A' for Active; 'I' for Inactive)
REMARK    1  A    between atoms: C_2  and  C_3
REMARK    2  A    between atoms: C_5  and  C_7
REMARK    3  A    between atoms: C_8  and  O_10
REMARK    4  A    between atoms: C_11  and  C_13
REMARK    5  A    between atoms: C_17  and  C_19
REMARK    6  A    between atoms: C_19  and  C_20
REMARK    7  A    between atoms: C_21  and  C_23
REMARK                            x       y       z     vdW  Elec       q    Type
REMARK                         _______ _______ _______ _____ _____    ______ ____
ROOT
ATOM      1  C   UNL     1       6.625  -5.210  26.323  0.00  0.00    +0.057 C 
ATOM      2  C   UNL     1       5.902  -3.905  26.732  0.00  0.00    +0.159 C 
ATOM      3  O   UNL     1       4.798  -3.935  27.269  0.00  0.00    -0.292 OA
ATOM      4  C   UNL     1       6.604  -2.612  26.516  0.00  0.00    +0.042 C 
ATOM      5  C   UNL     1       6.132  -1.408  26.867  0.00  0.00    -0.017 C 
ATOM      6  C   UNL     1       6.758  -0.068  26.481  0.00  0.00    +0.049 C 
ATOM      7  C   UNL     1       7.315   0.600  27.743  0.00  0.00    +0.015 C 
ATOM      8  C   UNL     1       7.775  -0.058  25.273  0.00  0.00    +0.183 C 
ATOM      9  O   UNL     1       7.282  -1.051  24.341  0.00  0.00    -0.461 OA
ATOM     10  C   UNL     1       7.601  -1.009  23.030  0.00  0.00    +0.313 C 
ATOM     11  O   UNL     1       7.979  -0.008  22.433  0.00  0.00    -0.250 OA
ATOM     12  C   UNL     1       7.412  -2.378  22.397  0.00  0.00    +0.123 C 
ATOM     13  C   UNL     1       5.928  -2.587  22.104  0.00  0.00    +0.022 C 
ATOM     14  C   UNL     1       8.156  -3.550  23.132  0.00  0.00    +0.131 C 
ATOM     15  C   UNL     1       7.284  -4.632  23.860  0.00  0.00    +0.016 C 
ATOM     16  C   UNL     1       7.231  -5.866  22.936  0.00  0.00    +0.010 C 
ATOM     17  C   UNL     1       7.762  -5.092  25.273  0.00  0.00    +0.017 C 
ATOM     18  C   UNL     1       7.174  -5.817  27.617  0.00  0.00    +0.016 C 
ENDROOT
BRANCH   8  19
ATOM     19  C   UNL     1       9.227  -0.392  25.692  0.00  0.00    +0.042 C 
ATOM     20  C   UNL     1      10.331   0.382  24.981  0.00  0.00    +0.007 C 
ENDBRANCH   8  19
BRANCH  14  21
ATOM     21  O   UNL     1       9.181  -3.056  23.984  0.00  0.00    -0.391 OA
ATOM     22  H   UNL     1       8.840  -2.279  24.460  0.00  0.00    +0.210 HD
ENDBRANCH  14  21
TORSDOF 2
ENDMDL
MODEL 9
REMARK VINA RESULT:      -5.5      1.922      5.522
REMARK  Name = 
REMARK  7 active torsions:
REMARK  status: ('A' for Active; 'I' for Inactive)
REMARK    1  A    between atoms: C_2  and  C_3
REMARK    2  A    between atoms: C_5  and  C_7
REMARK    3  A    between atoms: C_8  and  O_10
REMARK    4  A    between atoms: C_11  and  C_13
REMARK    5  A    between atoms: C_17  and  C_19
REMARK    6  A    between atoms: C_19  and  C_20
REMARK    7  A    between atoms: C_21  and  C_23
REMARK                            x       y       z     vdW  Elec       q    Type
REMARK                         _______ _______ _______ _____ _____    ______ ____
ROOT
ATOM      1  C   UNL     1       5.890  -3.811  25.076  0.00  0.00    +0.057 C 
ATOM      2  C   UNL     1       7.432  -3.696  25.035  0.00  0.00    +0.159 C 
ATOM      3  O   UNL     1       8.145  -4.577  25.509  0.00  0.00    -0.292 OA
ATOM      4  C   UNL     1       8.035  -2.522  24.350  0.00  0.00    +0.042 C 
ATOM      5  C   UNL     1       9.348  -2.313  24.186  0.00  0.00    -0.017 C 
ATOM      6  C   UNL     1       9.977  -1.024  23.654  0.00  0.00    +0.049 C 
ATOM      7  C   UNL     1      10.600  -1.308  22.283  0.00  0.00    +0.015 C 
ATOM      8  C   UNL     1       9.091   0.283  23.675  0.00  0.00    +0.183 C 
ATOM      9  O   UNL     1       8.275   0.181  24.867  0.00  0.00    -0.461 OA
ATOM     10  C   UNL     1       7.748   1.274  25.459  0.00  0.00    +0.313 C 
ATOM     11  O   UNL     1       8.172   2.415  25.324  0.00  0.00    -0.250 OA
ATOM     12  C   UNL     1       6.562   0.884  26.327  0.00  0.00    +0.123 C 
ATOM     13  C   UNL     1       7.080   0.327  27.651  0.00  0.00    +0.022 C 
ATOM     14  C   UNL     1       5.459   0.041  25.592  0.00  0.00    +0.131 C 
ATOM     15  C   UNL     1       5.268  -1.454  26.025  0.00  0.00    +0.016 C 
ATOM     16  C   UNL     1       4.032  -1.504  26.946  0.00  0.00    +0.010 C 
ATOM     17  C   UNL     1       5.076  -2.502  24.884  0.00  0.00    +0.017 C 
ATOM     18  C   UNL     1       5.508  -4.824  23.994  0.00  0.00    +0.016 C 
ENDROOT
BRANCH   8  19
ATOM     19  C   UNL     1       8.195   0.436  22.424  0.00  0.00    +0.042 C 
ATOM     20  C   UNL     1       8.229   1.794  21.730  0.00  0.00    +0.007 C 
ENDBRANCH   8  19
BRANCH  14  21
ATOM     21  O   UNL     1       5.577   0.158  24.180  0.00  0.00    -0.391 OA
ATOM     22  H   UNL     1       5.253   1.037  23.915  0.00  0.00    +0.210 HD
ENDBRANCH  14  21
TORSDOF 2
ENDMDL
