MODEL 1
REMARK VINA RESULT:      -7.3      0.000      0.000
REMARK  Name = 
REMARK  8 active torsions:
REMARK  status: ('A' for Active; 'I' for Inactive)
REMARK    1  A    between atoms: C_2  and  N_3
REMARK    2  A    between atoms: C_2  and  C_4
REMARK    3  A    between atoms: C_2  and  C_11
REMARK    4  A    between atoms: C_11  and  C_13
REMARK    5  A    between atoms: C_11  and  C_14
REMARK    6  A    between atoms: C_16  and  C_19
REMARK    7  A    between atoms: C_22  and  S_25
REMARK    8  A    between atoms: S_25  and  C_26
REMARK                            x       y       z     vdW  Elec       q    Type
REMARK                         _______ _______ _______ _____ _____    ______ ____
ROOT
ATOM      1  C   UNL     1       9.612  -0.440  22.837  0.00  0.00    +0.232 A 
ATOM      2  O   UNL     1      10.527  -1.453  22.784  0.00  0.00    -0.337 OA
ATOM      3  N   UNL     1       9.818  -2.640  22.835  0.00  0.00    -0.056 NA
ATOM      4  C   UNL     1       8.533  -2.255  22.912  0.00  0.00    +0.202 A 
ATOM      5  N   UNL     1       8.369  -0.877  22.921  0.00  0.00    -0.191 NA
ENDROOT
BRANCH   4   6
ATOM      6  C   UNL     1       7.435  -3.223  23.027  0.00  0.00    +0.023 A 
ATOM      7  C   UNL     1       7.619  -4.416  23.754  0.00  0.00    +0.013 A 
ATOM      8  C   UNL     1       6.571  -5.315  23.962  0.00  0.00    +0.027 A 
ATOM      9  C   UNL     1       5.314  -5.036  23.419  0.00  0.00    +0.088 A 
ATOM     10  C   UNL     1       5.112  -3.874  22.666  0.00  0.00    +0.027 A 
ATOM     11  C   UNL     1       6.173  -2.975  22.466  0.00  0.00    +0.013 A 
BRANCH   9  12
ATOM     12  S   UNL     1       3.937  -6.095  23.823  0.00  0.00    -0.006 S 
ATOM     13  O   UNL     1       4.486  -7.376  24.216  0.00  0.00    -0.170 OA
ATOM     14  O   UNL     1       2.983  -5.998  22.734  0.00  0.00    -0.170 OA
ATOM     15  C   UNL     1       3.215  -5.348  25.255  0.00  0.00    +0.200 C 
ENDBRANCH   9  12
ENDBRANCH   4   6
BRANCH   1  16
ATOM     16  C   UNL     1      10.198   0.938  22.726  0.00  0.00    +0.100 C 
ATOM     17  C   UNL     1       9.382   1.744  21.706  0.00  0.00    +0.019 C 
BRANCH  16  18
ATOM     18  C   UNL     1      10.388   1.619  24.107  0.00  0.00    +0.150 C 
BRANCH  18  19
ATOM     19  C   UNL     1       9.216   2.608  24.406  0.00  0.00    +0.233 C 
ATOM     20  N   UNL     1       9.493   3.966  24.363  0.00  0.00    -0.300 N 
ATOM     21  C   UNL     1      10.651   4.596  23.750  0.00  0.00    +0.108 C 
ATOM     22  C   UNL     1      10.242   6.045  23.499  0.00  0.00    +0.020 C 
ATOM     23  C   UNL     1       8.723   6.042  23.625  0.00  0.00    +0.020 C 
ATOM     24  C   UNL     1       8.464   4.954  24.650  0.00  0.00    +0.108 C 
ATOM     25  O   UNL     1       8.082   2.210  24.679  0.00  0.00    -0.274 OA
ENDBRANCH  18  19
BRANCH  18  26
ATOM     26  N   UNL     1      10.507   0.655  25.224  0.00  0.00    -0.319 NA
ATOM     27  H   UNL     1      11.346   0.090  25.078  0.00  0.00    +0.119 HD
ATOM     28  H   UNL     1      10.638   1.159  26.099  0.00  0.00    +0.119 HD
ENDBRANCH  18  26
ENDBRANCH  16  18
ENDBRANCH   1  16
TORSDOF 6
ENDMDL
MODEL 2
REMARK VINA RESULT:      -6.7      1.522      1.877
REMARK  Name = 
REMARK  8 active torsions:
REMARK  status: ('A' for Active; 'I' for Inactive)
REMARK    1  A    between atoms: C_2  and  N_3
REMARK    2  A    between atoms: C_2  and  C_4
REMARK    3  A    between atoms: C_2  and  C_11
REMARK    4  A    between atoms: C_11  and  C_13
REMARK    5  A    between atoms: C_11  and  C_14
REMARK    6  A    between atoms: C_16  and  C_19
REMARK    7  A    between atoms: C_22  and  S_25
REMARK    8  A    between atoms: S_25  and  C_26
REMARK                            x       y       z     vdW  Elec       q    Type
REMARK                         _______ _______ _______ _____ _____    ______ ____
ROOT
ATOM      1  C   UNL     1       8.788  -0.362  23.145  0.00  0.00    +0.232 A 
ATOM      2  O   UNL     1       7.602  -0.084  22.529  0.00  0.00    -0.337 OA
ATOM      3  N   UNL     1       6.700  -1.052  22.933  0.00  0.00    -0.056 NA
ATOM      4  C   UNL     1       7.407  -1.838  23.761  0.00  0.00    +0.202 A 
ATOM      5  N   UNL     1       8.727  -1.435  23.912  0.00  0.00    -0.191 NA
ENDROOT
BRANCH   4   6
ATOM      6  C   UNL     1       6.826  -3.030  24.390  0.00  0.00    +0.023 A 
ATOM      7  C   UNL     1       5.981  -2.897  25.510  0.00  0.00    +0.013 A 
ATOM      8  C   UNL     1       5.338  -3.999  26.077  0.00  0.00    +0.027 A 
ATOM      9  C   UNL     1       5.551  -5.268  25.533  0.00  0.00    +0.088 A 
ATOM     10  C   UNL     1       6.409  -5.433  24.440  0.00  0.00    +0.027 A 
ATOM     11  C   UNL     1       7.049  -4.317  23.876  0.00  0.00    +0.013 A 
BRANCH   9  12
ATOM     12  S   UNL     1       4.603  -6.648  26.148  0.00  0.00    -0.006 S 
ATOM     13  O   UNL     1       5.305  -7.166  27.304  0.00  0.00    -0.170 OA
ATOM     14  O   UNL     1       4.302  -7.504  25.016  0.00  0.00    -0.170 OA
ATOM     15  C   UNL     1       3.089  -5.925  26.708  0.00  0.00    +0.200 C 
ENDBRANCH   9  12
ENDBRANCH   4   6
BRANCH   1  16
ATOM     16  C   UNL     1       9.881   0.631  22.875  0.00  0.00    +0.100 C 
ATOM     17  C   UNL     1       9.488   1.485  21.662  0.00  0.00    +0.019 C 
BRANCH  16  18
ATOM     18  C   UNL     1      10.287   1.431  24.141  0.00  0.00    +0.150 C 
BRANCH  18  19
ATOM     19  C   UNL     1       9.294   2.608  24.401  0.00  0.00    +0.233 C 
ATOM     20  N   UNL     1       9.790   3.900  24.318  0.00  0.00    -0.300 N 
ATOM     21  C   UNL     1      11.037   4.312  23.696  0.00  0.00    +0.108 C 
ATOM     22  C   UNL     1      10.873   5.800  23.399  0.00  0.00    +0.020 C 
ATOM     23  C   UNL     1       9.374   6.051  23.511  0.00  0.00    +0.020 C 
ATOM     24  C   UNL     1       8.936   5.052  24.567  0.00  0.00    +0.108 C 
ATOM     25  O   UNL     1       8.108   2.410  24.675  0.00  0.00    -0.274 OA
ENDBRANCH  18  19
BRANCH  18  26
ATOM     26  N   UNL     1      10.377   0.594  25.360  0.00  0.00    -0.319 NA
ATOM     27  H   UNL     1       9.573  -0.038  25.379  0.00  0.00    +0.119 HD
ATOM     28  H   UNL     1      11.210   0.012  25.315  0.00  0.00    +0.119 HD
ENDBRANCH  18  26
ENDBRANCH  16  18
ENDBRANCH   1  16
TORSDOF 6
ENDMDL
MODEL 3
REMARK VINA RESULT:      -6.6      3.557      8.462
REMARK  Name = 
REMARK  8 active torsions:
REMARK  status: ('A' for Active; 'I' for Inactive)
REMARK    1  A    between atoms: C_2  and  N_3
REMARK    2  A    between atoms: C_2  and  C_4
REMARK    3  A    between atoms: C_2  and  C_11
REMARK    4  A    between atoms: C_11  and  C_13
REMARK    5  A    between atoms: C_11  and  C_14
REMARK    6  A    between atoms: C_16  and  C_19
REMARK    7  A    between atoms: C_22  and  S_25
REMARK    8  A    between atoms: S_25  and  C_26
REMARK                            x       y       z     vdW  Elec       q    Type
REMARK                         _______ _______ _______ _____ _____    ______ ____
ROOT
ATOM      1  C   UNL     1       9.099  -3.162  24.737  0.00  0.00    +0.232 A 
ATOM      2  O   UNL     1       9.957  -3.099  23.677  0.00  0.00    -0.337 OA
ATOM      3  N   UNL     1      10.202  -1.760  23.436  0.00  0.00    -0.056 NA
ATOM      4  C   UNL     1       9.479  -1.117  24.366  0.00  0.00    +0.202 A 
ATOM      5  N   UNL     1       8.767  -1.970  25.199  0.00  0.00    -0.191 NA
ENDROOT
BRANCH   4   6
ATOM      6  C   UNL     1       9.425   0.348  24.438  0.00  0.00    +0.023 A 
ATOM      7  C   UNL     1      10.438   1.122  23.836  0.00  0.00    +0.013 A 
ATOM      8  C   UNL     1      10.371   2.516  23.805  0.00  0.00    +0.027 A 
ATOM      9  C   UNL     1       9.285   3.163  24.400  0.00  0.00    +0.088 A 
ATOM     10  C   UNL     1       8.282   2.420  25.032  0.00  0.00    +0.027 A 
ATOM     11  C   UNL     1       8.357   1.017  25.055  0.00  0.00    +0.013 A 
BRANCH   9  12
ATOM     12  S   UNL     1       9.115   4.928  24.215  0.00  0.00    -0.006 S 
ATOM     13  O   UNL     1       8.827   5.468  25.527  0.00  0.00    -0.170 OA
ATOM     14  O   UNL     1       8.214   5.161  23.102  0.00  0.00    -0.170 OA
ATOM     15  C   UNL     1      10.729   5.477  23.741  0.00  0.00    +0.200 C 
ENDBRANCH   9  12
ENDBRANCH   4   6
BRANCH   1  16
ATOM     16  C   UNL     1       8.766  -4.554  25.191  0.00  0.00    +0.100 C 
ATOM     17  C   UNL     1      10.069  -5.287  25.541  0.00  0.00    +0.019 C 
BRANCH  16  18
ATOM     18  C   UNL     1       7.678  -4.578  26.297  0.00  0.00    +0.150 C 
BRANCH  18  19
ATOM     19  C   UNL     1       6.259  -4.789  25.679  0.00  0.00    +0.233 C 
ATOM     20  N   UNL     1       5.186  -4.171  26.303  0.00  0.00    -0.300 N 
ATOM     21  C   UNL     1       5.252  -3.081  27.262  0.00  0.00    +0.108 C 
ATOM     22  C   UNL     1       3.872  -2.428  27.233  0.00  0.00    +0.020 C 
ATOM     23  C   UNL     1       3.229  -2.948  25.953  0.00  0.00    +0.020 C 
ATOM     24  C   UNL     1       3.829  -4.334  25.804  0.00  0.00    +0.108 C 
ATOM     25  O   UNL     1       6.083  -5.484  24.676  0.00  0.00    -0.274 OA
ENDBRANCH  18  19
BRANCH  18  26
ATOM     26  N   UNL     1       7.916  -5.610  27.332  0.00  0.00    -0.319 NA
ATOM     27  H   UNL     1       8.721  -5.326  27.895  0.00  0.00    +0.119 HD
ATOM     28  H   UNL     1       7.117  -5.656  27.960  0.00  0.00    +0.119 HD
ENDBRANCH  18  26
ENDBRANCH  16  18
ENDBRANCH   1  16
TORSDOF 6
ENDMDL
MODEL 4
REMARK VINA RESULT:      -6.6      2.555      3.967
REMARK  Name = 
REMARK  8 active torsions:
REMARK  status: ('A' for Active; 'I' for Inactive)
REMARK    1  A    between atoms: C_2  and  N_3
REMARK    2  A    between atoms: C_2  and  C_4
REMARK    3  A    between atoms: C_2  and  C_11
REMARK    4  A    between atoms: C_11  and  C_13
REMARK    5  A    between atoms: C_11  and  C_14
REMARK    6  A    between atoms: C_16  and  C_19
REMARK    7  A    between atoms: C_22  and  S_25
REMARK    8  A    between atoms: S_25  and  C_26
REMARK                            x       y       z     vdW  Elec       q    Type
REMARK                         _______ _______ _______ _____ _____    ______ ____
ROOT
ATOM      1  C   UNL     1      10.423   2.789  23.414  0.00  0.00    +0.232 A 
ATOM      2  O   UNL     1      10.403   2.655  22.056  0.00  0.00    -0.337 OA
ATOM      3  N   UNL     1      10.019   1.353  21.785  0.00  0.00    -0.056 NA
ATOM      4  C   UNL     1       9.836   0.803  22.997  0.00  0.00    +0.202 A 
ATOM      5  N   UNL     1      10.087   1.679  24.044  0.00  0.00    -0.191 NA
ENDROOT
BRANCH   4   6
ATOM      6  C   UNL     1       9.456  -0.605  23.164  0.00  0.00    +0.023 A 
ATOM      7  C   UNL     1       9.824  -1.301  24.334  0.00  0.00    +0.013 A 
ATOM      8  C   UNL     1       9.402  -2.611  24.568  0.00  0.00    +0.027 A 
ATOM      9  C   UNL     1       8.613  -3.256  23.613  0.00  0.00    +0.088 A 
ATOM     10  C   UNL     1       8.259  -2.599  22.429  0.00  0.00    +0.027 A 
ATOM     11  C   UNL     1       8.687  -1.280  22.204  0.00  0.00    +0.013 A 
BRANCH   9  12
ATOM     12  S   UNL     1       7.936  -4.863  23.985  0.00  0.00    -0.006 S 
ATOM     13  O   UNL     1       6.841  -4.661  24.911  0.00  0.00    -0.170 OA
ATOM     14  O   UNL     1       9.048  -5.732  24.327  0.00  0.00    -0.170 OA
ATOM     15  C   UNL     1       7.257  -5.420  22.449  0.00  0.00    +0.200 C 
ENDBRANCH   9  12
ENDBRANCH   4   6
BRANCH   1  16
ATOM     16  C   UNL     1      10.757   4.170  23.901  0.00  0.00    +0.100 C 
ATOM     17  C   UNL     1      12.087   4.609  23.272  0.00  0.00    +0.019 C 
BRANCH  16  18
ATOM     18  C   UNL     1       9.582   5.167  23.723  0.00  0.00    +0.150 C 
BRANCH  18  19
ATOM     19  C   UNL     1       8.339   4.719  24.556  0.00  0.00    +0.233 C 
ATOM     20  N   UNL     1       7.204   4.330  23.861  0.00  0.00    -0.300 N 
ATOM     21  C   UNL     1       7.129   3.969  22.456  0.00  0.00    +0.108 C 
ATOM     22  C   UNL     1       5.855   3.139  22.315  0.00  0.00    +0.020 C 
ATOM     23  C   UNL     1       5.495   2.744  23.743  0.00  0.00    +0.020 C 
ATOM     24  C   UNL     1       5.996   3.920  24.561  0.00  0.00    +0.108 C 
ATOM     25  O   UNL     1       8.350   4.712  25.789  0.00  0.00    -0.274 OA
ENDBRANCH  18  19
BRANCH  18  26
ATOM     26  N   UNL     1       9.934   6.559  24.085  0.00  0.00    -0.319 NA
ATOM     27  H   UNL     1       9.069   7.089  24.213  0.00  0.00    +0.119 HD
ATOM     28  H   UNL     1      10.421   6.568  24.979  0.00  0.00    +0.119 HD
ENDBRANCH  18  26
ENDBRANCH  16  18
ENDBRANCH   1  16
TORSDOF 6
ENDMDL
MODEL 5
REMARK VINA RESULT:      -6.6      3.810      9.047
REMARK  Name = 
REMARK  8 active torsions:
REMARK  status: ('A' for Active; 'I' for Inactive)
REMARK    1  A    between atoms: C_2  and  N_3
REMARK    2  A    between atoms: C_2  and  C_4
REMARK    3  A    between atoms: C_2  and  C_11
REMARK    4  A    between atoms: C_11  and  C_13
REMARK    5  A    between atoms: C_11  and  C_14
REMARK    6  A    between atoms: C_16  and  C_19
REMARK    7  A    between atoms: C_22  and  S_25
REMARK    8  A    between atoms: S_25  and  C_26
REMARK                            x       y       z     vdW  Elec       q    Type
REMARK                         _______ _______ _______ _____ _____    ______ ____
ROOT
ATOM      1  C   UNL     1       4.168  -4.600  23.517  0.00  0.00    +0.232 A 
ATOM      2  O   UNL     1       4.555  -4.858  22.233  0.00  0.00    -0.337 OA
ATOM      3  N   UNL     1       5.551  -3.949  21.922  0.00  0.00    -0.056 NA
ATOM      4  C   UNL     1       5.691  -3.216  23.038  0.00  0.00    +0.202 A 
ATOM      5  N   UNL     1       4.831  -3.596  24.059  0.00  0.00    -0.191 NA
ENDROOT
BRANCH   4   6
ATOM      6  C   UNL     1       6.635  -2.094  23.121  0.00  0.00    +0.023 A 
ATOM      7  C   UNL     1       6.358  -1.000  23.966  0.00  0.00    +0.013 A 
ATOM      8  C   UNL     1       7.274   0.039  24.140  0.00  0.00    +0.027 A 
ATOM      9  C   UNL     1       8.486   0.005  23.446  0.00  0.00    +0.088 A 
ATOM     10  C   UNL     1       8.772  -1.053  22.577  0.00  0.00    +0.027 A 
ATOM     11  C   UNL     1       7.845  -2.095  22.411  0.00  0.00    +0.013 A 
BRANCH   9  12
ATOM     12  S   UNL     1       9.722   1.242  23.794  0.00  0.00    -0.006 S 
ATOM     13  O   UNL     1      10.895   0.546  24.281  0.00  0.00    -0.170 OA
ATOM     14  O   UNL     1       9.088   2.276  24.590  0.00  0.00    -0.170 OA
ATOM     15  C   UNL     1      10.114   1.929  22.211  0.00  0.00    +0.200 C 
ENDBRANCH   9  12
ENDBRANCH   4   6
BRANCH   1  16
ATOM     16  C   UNL     1       3.129  -5.540  24.057  0.00  0.00    +0.100 C 
ATOM     17  C   UNL     1       2.022  -5.711  23.008  0.00  0.00    +0.019 C 
BRANCH  16  18
ATOM     18  C   UNL     1       3.740  -6.861  24.593  0.00  0.00    +0.150 C 
BRANCH  18  19
ATOM     19  C   UNL     1       3.699  -6.902  26.154  0.00  0.00    +0.233 C 
ATOM     20  N   UNL     1       4.876  -6.635  26.837  0.00  0.00    -0.300 N 
ATOM     21  C   UNL     1       6.064  -5.996  26.298  0.00  0.00    +0.108 C 
ATOM     22  C   UNL     1       6.827  -5.465  27.509  0.00  0.00    +0.020 C 
ATOM     23  C   UNL     1       5.809  -5.489  28.644  0.00  0.00    +0.020 C 
ATOM     24  C   UNL     1       4.928  -6.674  28.290  0.00  0.00    +0.108 C 
ATOM     25  O   UNL     1       2.664  -7.167  26.771  0.00  0.00    -0.274 OA
ENDBRANCH  18  19
BRANCH  18  26
ATOM     26  N   UNL     1       3.077  -8.073  24.058  0.00  0.00    -0.319 NA
ATOM     27  H   UNL     1       2.194  -8.207  24.556  0.00  0.00    +0.119 HD
ATOM     28  H   UNL     1       2.846  -7.932  23.077  0.00  0.00    +0.119 HD
ENDBRANCH  18  26
ENDBRANCH  16  18
ENDBRANCH   1  16
TORSDOF 6
ENDMDL
MODEL 6
REMARK VINA RESULT:      -6.5      1.399      2.066
REMARK  Name = 
REMARK  8 active torsions:
REMARK  status: ('A' for Active; 'I' for Inactive)
REMARK    1  A    between atoms: C_2  and  N_3
REMARK    2  A    between atoms: C_2  and  C_4
REMARK    3  A    between atoms: C_2  and  C_11
REMARK    4  A    between atoms: C_11  and  C_13
REMARK    5  A    between atoms: C_11  and  C_14
REMARK    6  A    between atoms: C_16  and  C_19
REMARK    7  A    between atoms: C_22  and  S_25
REMARK    8  A    between atoms: S_25  and  C_26
REMARK                            x       y       z     vdW  Elec       q    Type
REMARK                         _______ _______ _______ _____ _____    ______ ____
ROOT
ATOM      1  C   UNL     1       9.243  -0.139  23.943  0.00  0.00    +0.232 A 
ATOM      2  O   UNL     1       9.826  -0.873  22.950  0.00  0.00    -0.337 OA
ATOM      3  N   UNL     1       9.056  -2.010  22.783  0.00  0.00    -0.056 NA
ATOM      4  C   UNL     1       8.068  -1.877  23.683  0.00  0.00    +0.202 A 
ATOM      5  N   UNL     1       8.159  -0.713  24.433  0.00  0.00    -0.191 NA
ENDROOT
BRANCH   4   6
ATOM      6  C   UNL     1       7.036  -2.904  23.866  0.00  0.00    +0.023 A 
ATOM      7  C   UNL     1       5.706  -2.647  23.477  0.00  0.00    +0.013 A 
ATOM      8  C   UNL     1       4.719  -3.631  23.551  0.00  0.00    +0.027 A 
ATOM      9  C   UNL     1       5.051  -4.896  24.041  0.00  0.00    +0.088 A 
ATOM     10  C   UNL     1       6.356  -5.170  24.464  0.00  0.00    +0.027 A 
ATOM     11  C   UNL     1       7.343  -4.173  24.382  0.00  0.00    +0.013 A 
BRANCH   9  12
ATOM     12  S   UNL     1       3.835  -6.199  23.979  0.00  0.00    -0.006 S 
ATOM     13  O   UNL     1       4.509  -7.428  24.345  0.00  0.00    -0.170 OA
ATOM     14  O   UNL     1       3.140  -6.083  22.711  0.00  0.00    -0.170 OA
ATOM     15  C   UNL     1       2.695  -5.797  25.270  0.00  0.00    +0.200 C 
ENDBRANCH   9  12
ENDBRANCH   4   6
BRANCH   1  16
ATOM     16  C   UNL     1       9.909   1.177  24.222  0.00  0.00    +0.100 C 
ATOM     17  C   UNL     1      11.408   0.936  24.446  0.00  0.00    +0.019 C 
BRANCH  16  18
ATOM     18  C   UNL     1       9.565   2.257  23.162  0.00  0.00    +0.150 C 
BRANCH  18  19
ATOM     19  C   UNL     1      10.148   3.647  23.572  0.00  0.00    +0.233 C 
ATOM     20  N   UNL     1       9.288   4.554  24.172  0.00  0.00    -0.300 N 
ATOM     21  C   UNL     1       7.998   4.260  24.771  0.00  0.00    +0.108 C 
ATOM     22  C   UNL     1       7.716   5.419  25.724  0.00  0.00    +0.020 C 
ATOM     23  C   UNL     1       9.065   6.106  25.902  0.00  0.00    +0.020 C 
ATOM     24  C   UNL     1       9.746   5.878  24.565  0.00  0.00    +0.108 C 
ATOM     25  O   UNL     1      11.328   3.943  23.370  0.00  0.00    -0.274 OA
ENDBRANCH  18  19
BRANCH  18  26
ATOM     26  N   UNL     1      10.038   1.914  21.801  0.00  0.00    -0.319 NA
ATOM     27  H   UNL     1      10.978   1.520  21.874  0.00  0.00    +0.119 HD
ATOM     28  H   UNL     1       9.443   1.190  21.404  0.00  0.00    +0.119 HD
ENDBRANCH  18  26
ENDBRANCH  16  18
ENDBRANCH   1  16
TORSDOF 6
ENDMDL
MODEL 7
REMARK VINA RESULT:      -6.5      3.703      9.280
REMARK  Name = 
REMARK  8 active torsions:
REMARK  status: ('A' for Active; 'I' for Inactive)
REMARK    1  A    between atoms: C_2  and  N_3
REMARK    2  A    between atoms: C_2  and  C_4
REMARK    3  A    between atoms: C_2  and  C_11
REMARK    4  A    between atoms: C_11  and  C_13
REMARK    5  A    between atoms: C_11  and  C_14
REMARK    6  A    between atoms: C_16  and  C_19
REMARK    7  A    between atoms: C_22  and  S_25
REMARK    8  A    between atoms: S_25  and  C_26
REMARK                            x       y       z     vdW  Elec       q    Type
REMARK                         _______ _______ _______ _____ _____    ______ ____
ROOT
ATOM      1  C   UNL     1       7.966  -1.878  24.158  0.00  0.00    +0.232 A 
ATOM      2  O   UNL     1       8.887  -2.049  25.151  0.00  0.00    -0.337 OA
ATOM      3  N   UNL     1       9.443  -0.808  25.404  0.00  0.00    -0.056 NA
ATOM      4  C   UNL     1       8.816   0.017  24.549  0.00  0.00    +0.202 A 
ATOM      5  N   UNL     1       7.884  -0.626  23.746  0.00  0.00    -0.191 NA
ENDROOT
BRANCH   4   6
ATOM      6  C   UNL     1       9.144   1.445  24.460  0.00  0.00    +0.023 A 
ATOM      7  C   UNL     1      10.284   1.864  23.744  0.00  0.00    +0.013 A 
ATOM      8  C   UNL     1      10.575   3.217  23.560  0.00  0.00    +0.027 A 
ATOM      9  C   UNL     1       9.729   4.180  24.116  0.00  0.00    +0.088 A 
ATOM     10  C   UNL     1       8.608   3.791  24.858  0.00  0.00    +0.027 A 
ATOM     11  C   UNL     1       8.322   2.427  25.034  0.00  0.00    +0.013 A 
BRANCH   9  12
ATOM     12  S   UNL     1      10.006   5.901  23.743  0.00  0.00    -0.006 S 
ATOM     13  O   UNL     1       8.870   6.358  22.970  0.00  0.00    -0.170 OA
ATOM     14  O   UNL     1      11.355   6.019  23.220  0.00  0.00    -0.170 OA
ATOM     15  C   UNL     1       9.955   6.705  25.317  0.00  0.00    +0.200 C 
ENDBRANCH   9  12
ENDBRANCH   4   6
BRANCH   1  16
ATOM     16  C   UNL     1       7.204  -3.119  23.791  0.00  0.00    +0.100 C 
ATOM     17  C   UNL     1       7.307  -3.334  22.275  0.00  0.00    +0.019 C 
BRANCH  16  18
ATOM     18  C   UNL     1       7.602  -4.342  24.659  0.00  0.00    +0.150 C 
BRANCH  18  19
ATOM     19  C   UNL     1       6.368  -5.263  24.924  0.00  0.00    +0.233 C 
ATOM     20  N   UNL     1       6.195  -5.753  26.210  0.00  0.00    -0.300 N 
ATOM     21  C   UNL     1       6.824  -5.253  27.420  0.00  0.00    +0.108 C 
ATOM     22  C   UNL     1       5.942  -5.736  28.568  0.00  0.00    +0.020 C 
ATOM     23  C   UNL     1       4.635  -6.147  27.901  0.00  0.00    +0.020 C 
ATOM     24  C   UNL     1       5.084  -6.634  26.535  0.00  0.00    +0.108 C 
ATOM     25  O   UNL     1       5.572  -5.557  24.030  0.00  0.00    -0.274 OA
ENDBRANCH  18  19
BRANCH  18  26
ATOM     26  N   UNL     1       8.693  -5.150  24.069  0.00  0.00    -0.319 NA
ATOM     27  H   UNL     1       8.785  -4.900  23.082  0.00  0.00    +0.119 HD
ATOM     28  H   UNL     1       9.576  -4.914  24.518  0.00  0.00    +0.119 HD
ENDBRANCH  18  26
ENDBRANCH  16  18
ENDBRANCH   1  16
TORSDOF 6
ENDMDL
MODEL 8
REMARK VINA RESULT:      -6.4      3.430      8.867
REMARK  Name = 
REMARK  8 active torsions:
REMARK  status: ('A' for Active; 'I' for Inactive)
REMARK    1  A    between atoms: C_2  and  N_3
REMARK    2  A    between atoms: C_2  and  C_4
REMARK    3  A    between atoms: C_2  and  C_11
REMARK    4  A    between atoms: C_11  and  C_13
REMARK    5  A    between atoms: C_11  and  C_14
REMARK    6  A    between atoms: C_16  and  C_19
REMARK    7  A    between atoms: C_22  and  S_25
REMARK    8  A    between atoms: S_25  and  C_26
REMARK                            x       y       z     vdW  Elec       q    Type
REMARK                         _______ _______ _______ _____ _____    ______ ____
ROOT
ATOM      1  C   UNL     1       9.125  -2.700  24.147  0.00  0.00    +0.232 A 
ATOM      2  O   UNL     1      10.033  -2.632  23.130  0.00  0.00    -0.337 OA
ATOM      3  N   UNL     1      10.358  -1.297  22.968  0.00  0.00    -0.056 NA
ATOM      4  C   UNL     1       9.626  -0.662  23.897  0.00  0.00    +0.202 A 
ATOM      5  N   UNL     1       8.834  -1.515  24.653  0.00  0.00    -0.191 NA
ENDROOT
BRANCH   4   6
ATOM      6  C   UNL     1       9.644   0.799  24.040  0.00  0.00    +0.023 A 
ATOM      7  C   UNL     1      10.584   1.567  23.322  0.00  0.00    +0.013 A 
ATOM      8  C   UNL     1      10.571   2.962  23.362  0.00  0.00    +0.027 A 
ATOM      9  C   UNL     1       9.617   3.614  24.148  0.00  0.00    +0.088 A 
ATOM     10  C   UNL     1       8.693   2.876  24.894  0.00  0.00    +0.027 A 
ATOM     11  C   UNL     1       8.713   1.472  24.845  0.00  0.00    +0.013 A 
BRANCH   9  12
ATOM     12  S   UNL     1       9.493   5.392  24.069  0.00  0.00    -0.006 S 
ATOM     13  O   UNL     1      10.672   5.870  23.376  0.00  0.00    -0.170 OA
ATOM     14  O   UNL     1       9.173   5.863  25.403  0.00  0.00    -0.170 OA
ATOM     15  C   UNL     1       8.092   5.688  23.030  0.00  0.00    +0.200 C 
ENDBRANCH   9  12
ENDBRANCH   4   6
BRANCH   1  16
ATOM     16  C   UNL     1       8.700  -4.092  24.514  0.00  0.00    +0.100 C 
ATOM     17  C   UNL     1       8.624  -4.200  26.043  0.00  0.00    +0.019 C 
BRANCH  16  18
ATOM     18  C   UNL     1       7.426  -4.547  23.756  0.00  0.00    +0.150 C 
BRANCH  18  19
ATOM     19  C   UNL     1       6.138  -3.998  24.449  0.00  0.00    +0.233 C 
ATOM     20  N   UNL     1       5.327  -4.906  25.113  0.00  0.00    -0.300 N 
ATOM     21  C   UNL     1       5.691  -6.249  25.532  0.00  0.00    +0.108 C 
ATOM     22  C   UNL     1       4.704  -6.614  26.638  0.00  0.00    +0.020 C 
ATOM     23  C   UNL     1       4.086  -5.284  27.054  0.00  0.00    +0.020 C 
ATOM     24  C   UNL     1       4.098  -4.480  25.766  0.00  0.00    +0.108 C 
ATOM     25  O   UNL     1       5.837  -2.803  24.409  0.00  0.00    -0.274 OA
ENDBRANCH  18  19
BRANCH  18  26
ATOM     26  N   UNL     1       7.418  -4.147  22.330  0.00  0.00    -0.319 NA
ATOM     27  H   UNL     1       8.358  -3.838  22.074  0.00  0.00    +0.119 HD
ATOM     28  H   UNL     1       7.203  -4.955  21.749  0.00  0.00    +0.119 HD
ENDBRANCH  18  26
ENDBRANCH  16  18
ENDBRANCH   1  16
TORSDOF 6
ENDMDL
MODEL 9
REMARK VINA RESULT:      -6.4      3.559      9.135
REMARK  Name = 
REMARK  8 active torsions:
REMARK  status: ('A' for Active; 'I' for Inactive)
REMARK    1  A    between atoms: C_2  and  N_3
REMARK    2  A    between atoms: C_2  and  C_4
REMARK    3  A    between atoms: C_2  and  C_11
REMARK    4  A    between atoms: C_11  and  C_13
REMARK    5  A    between atoms: C_11  and  C_14
REMARK    6  A    between atoms: C_16  and  C_19
REMARK    7  A    between atoms: C_22  and  S_25
REMARK    8  A    between atoms: S_25  and  C_26
REMARK                            x       y       z     vdW  Elec       q    Type
REMARK                         _______ _______ _______ _____ _____    ______ ____
ROOT
ATOM      1  C   UNL     1       8.874  -2.464  24.334  0.00  0.00    +0.232 A 
ATOM      2  O   UNL     1       9.903  -2.483  23.437  0.00  0.00    -0.337 OA
ATOM      3  N   UNL     1      10.299  -1.171  23.249  0.00  0.00    -0.056 NA
ATOM      4  C   UNL     1       9.483  -0.461  24.046  0.00  0.00    +0.202 A 
ATOM      5  N   UNL     1       8.570  -1.244  24.738  0.00  0.00    -0.191 NA
ENDROOT
BRANCH   4   6
ATOM      6  C   UNL     1       9.543   1.004  24.116  0.00  0.00    +0.023 A 
ATOM      7  C   UNL     1      10.533   1.705  23.399  0.00  0.00    +0.013 A 
ATOM      8  C   UNL     1      10.563   3.100  23.368  0.00  0.00    +0.027 A 
ATOM      9  C   UNL     1       9.601   3.821  24.080  0.00  0.00    +0.088 A 
ATOM     10  C   UNL     1       8.625   3.149  24.826  0.00  0.00    +0.027 A 
ATOM     11  C   UNL     1       8.602   1.745  24.848  0.00  0.00    +0.013 A 
BRANCH   9  12
ATOM     12  S   UNL     1       9.537   5.594  23.907  0.00  0.00    -0.006 S 
ATOM     13  O   UNL     1       8.444   5.895  23.005  0.00  0.00    -0.170 OA
ATOM     14  O   UNL     1      10.884   6.050  23.620  0.00  0.00    -0.170 OA
ATOM     15  C   UNL     1       9.090   6.177  25.517  0.00  0.00    +0.200 C 
ENDBRANCH   9  12
ENDBRANCH   4   6
BRANCH   1  16
ATOM     16  C   UNL     1       8.351  -3.819  24.715  0.00  0.00    +0.100 C 
ATOM     17  C   UNL     1       9.499  -4.643  25.314  0.00  0.00    +0.019 C 
BRANCH  16  18
ATOM     18  C   UNL     1       7.070  -3.741  25.587  0.00  0.00    +0.150 C 
BRANCH  18  19
ATOM     19  C   UNL     1       6.490  -5.166  25.857  0.00  0.00    +0.233 C 
ATOM     20  N   UNL     1       5.239  -5.462  25.338  0.00  0.00    -0.300 N 
ATOM     21  C   UNL     1       4.538  -4.731  24.296  0.00  0.00    +0.108 C 
ATOM     22  C   UNL     1       3.512  -5.711  23.730  0.00  0.00    +0.020 C 
ATOM     23  C   UNL     1       3.973  -7.077  24.226  0.00  0.00    +0.020 C 
ATOM     24  C   UNL     1       4.618  -6.759  25.562  0.00  0.00    +0.108 C 
ATOM     25  O   UNL     1       7.111  -6.008  26.511  0.00  0.00    -0.274 OA
ENDBRANCH  18  19
BRANCH  18  26
ATOM     26  N   UNL     1       7.282  -3.050  26.880  0.00  0.00    -0.319 NA
ATOM     27  H   UNL     1       8.053  -2.388  26.771  0.00  0.00    +0.119 HD
ATOM     28  H   UNL     1       6.455  -2.506  27.117  0.00  0.00    +0.119 HD
ENDBRANCH  18  26
ENDBRANCH  16  18
ENDBRANCH   1  16
TORSDOF 6
ENDMDL
