MODEL 1
REMARK VINA RESULT:      -8.2      0.000      0.000
REMARK  Name = 
REMARK  9 active torsions:
REMARK  status: ('A' for Active; 'I' for Inactive)
REMARK    1  A    between atoms: N_14  and  C_17
REMARK    2  A    between atoms: C_20  and  C_23
REMARK    3  A    between atoms: N_25  and  CA_26
REMARK    4  A    between atoms: CA_26  and  CB_28
REMARK    5  A    between atoms: CA_26  and  C_33
REMARK    6  A    between atoms: CB_28  and  CG_29
REMARK    7  A    between atoms: CG_29  and  CD_30
REMARK    8  A    between atoms: CD_30  and  OE1_31
REMARK    9  A    between atoms: C_33  and  O_34
REMARK                            x       y       z     vdW  Elec       q    Type
REMARK                         _______ _______ _______ _____ _____    ______ ____
ROOT
ATOM      1  C   UNK A   0       8.414  -2.079  24.474  0.00  0.00    +0.031 A 
ATOM      2  C   UNK A   0       8.318  -1.703  23.124  0.00  0.00    +0.024 A 
ATOM      3  C   UNK A   0       8.764  -0.459  22.658  0.00  0.00    +0.015 A 
ATOM      4  C   UNK A   0       9.336   0.466  23.533  0.00  0.00    +0.037 A 
ATOM      5  C   UNK A   0       9.472   0.111  24.877  0.00  0.00    +0.015 A 
ATOM      6  C   UNK A   0       9.020  -1.146  25.330  0.00  0.00    +0.024 A 
ENDROOT
BRANCH   1  19
ATOM      7  N   UNK A   0       2.492  -8.675  25.406  0.00  0.00    -0.329 N 
ATOM      8  H   UNK A   0       1.977  -8.813  26.266  0.00  0.00    +0.145 HD
ATOM      9  H   UNK A   0       1.887  -8.727  24.591  0.00  0.00    +0.145 HD
ATOM     10  C   UNK A   0       3.283  -7.572  25.361  0.00  0.00    +0.195 A 
ATOM     11  N   UNK A   0       3.953  -7.331  26.516  0.00  0.00    -0.311 N 
ATOM     12  H   UNK A   0       4.010  -8.048  27.226  0.00  0.00    +0.170 HD
ATOM     13  C   UNK A   0       5.015  -6.462  26.539  0.00  0.00    +0.160 A 
ATOM     14  N   UNK A   0       5.845  -6.379  27.659  0.00  0.00    -0.238 NA
ATOM     15  C   UNK A   0       6.985  -5.752  27.513  0.00  0.00    +0.110 C 
ATOM     16  C   UNK A   0       7.513  -5.233  26.185  0.00  0.00    +0.134 C 
ATOM     17  N   UNK A   0       6.373  -4.903  25.352  0.00  0.00    -0.297 N 
ATOM     18  C   UNK A   0       6.717  -3.894  24.383  0.00  0.00    +0.214 C 
ATOM     19  N   UNK A   0       7.962  -3.305  24.911  0.00  0.00    -0.312 N 
ATOM     20  C   UNK A   0       8.332  -3.945  26.184  0.00  0.00    +0.134 C 
ATOM     21  C   UNK A   0       5.241  -5.701  25.435  0.00  0.00    +0.141 A 
ATOM     22  C   UNK A   0       4.229  -5.785  24.307  0.00  0.00    +0.298 A 
ATOM     23  O   UNK A   0       4.236  -4.935  23.415  0.00  0.00    -0.264 OA
ATOM     24  N   UNK A   0       3.376  -6.870  24.284  0.00  0.00    -0.176 NA
ENDBRANCH   1  19
BRANCH   4  25
ATOM     25  C   UNK A   0       9.795   1.770  22.963  0.00  0.00    +0.245 C 
ATOM     26  N   GLU A   1       9.727   2.892  23.771  0.00  0.00    -0.298 N 
ATOM     27  H   GLU A   1       9.507   2.803  24.755  0.00  0.00    +0.150 HD
ATOM     28  O   UNK A   0      10.201   1.825  21.810  0.00  0.00    -0.270 OA
BRANCH  26  29
ATOM     29  CA  GLU A   1      10.189   4.211  23.288  0.00  0.00    +0.182 C 
BRANCH  29  30
ATOM     30  C   GLU A   1       9.244   5.312  23.805  0.00  0.00    +0.325 C 
ATOM     31  OXT GLU A   1       9.021   5.550  24.982  0.00  0.00    -0.249 OA
BRANCH  30  32
ATOM     32  O   GLU A   1       8.713   6.063  22.806  0.00  0.00    -0.479 OA
ATOM     33  H   GLU A   1       7.856   6.440  23.088  0.00  0.00    +0.295 HD
ENDBRANCH  30  32
ENDBRANCH  29  30
BRANCH  29  34
ATOM     34  CB  GLU A   1      11.633   4.517  23.704  0.00  0.00    +0.045 C 
BRANCH  34  35
ATOM     35  CG  GLU A   1      12.175   5.827  23.133  0.00  0.00    +0.123 C 
BRANCH  35  36
ATOM     36  CD  GLU A   1      13.543   5.640  22.515  0.00  0.00    +0.305 C 
ATOM     37  OE2 GLU A   1      13.906   6.110  21.450  0.00  0.00    -0.251 OA
BRANCH  36  38
ATOM     38  OE1 GLU A   1      14.361   4.900  23.298  0.00  0.00    -0.481 OA
ATOM     39  HE1 GLU A   1      15.300   4.931  23.028  0.00  0.00    +0.295 HD
ENDBRANCH  36  38
ENDBRANCH  35  36
ENDBRANCH  34  35
ENDBRANCH  29  34
ENDBRANCH  26  29
ENDBRANCH   4  25
TORSDOF 9
ENDMDL
MODEL 2
REMARK VINA RESULT:      -7.9      1.252      1.509
REMARK  Name = 
REMARK  9 active torsions:
REMARK  status: ('A' for Active; 'I' for Inactive)
REMARK    1  A    between atoms: N_14  and  C_17
REMARK    2  A    between atoms: C_20  and  C_23
REMARK    3  A    between atoms: N_25  and  CA_26
REMARK    4  A    between atoms: CA_26  and  CB_28
REMARK    5  A    between atoms: CA_26  and  C_33
REMARK    6  A    between atoms: CB_28  and  CG_29
REMARK    7  A    between atoms: CG_29  and  CD_30
REMARK    8  A    between atoms: CD_30  and  OE1_31
REMARK    9  A    between atoms: C_33  and  O_34
REMARK                            x       y       z     vdW  Elec       q    Type
REMARK                         _______ _______ _______ _____ _____    ______ ____
ROOT
ATOM      1  C   UNK A   0       7.976  -0.944  24.258  0.00  0.00    +0.031 A 
ATOM      2  C   UNK A   0       6.925  -0.093  23.880  0.00  0.00    +0.024 A 
ATOM      3  C   UNK A   0       7.120   1.270  23.617  0.00  0.00    +0.015 A 
ATOM      4  C   UNK A   0       8.391   1.838  23.716  0.00  0.00    +0.037 A 
ATOM      5  C   UNK A   0       9.462   1.012  24.062  0.00  0.00    +0.015 A 
ATOM      6  C   UNK A   0       9.249  -0.358  24.321  0.00  0.00    +0.024 A 
ENDROOT
BRANCH   1  19
ATOM      7  N   UNK A   0       3.041  -8.258  25.523  0.00  0.00    -0.329 N 
ATOM      8  H   UNK A   0       2.866  -8.631  26.447  0.00  0.00    +0.145 HD
ATOM      9  H   UNK A   0       2.191  -8.214  24.967  0.00  0.00    +0.145 HD
ATOM     10  C   UNK A   0       3.718  -7.083  25.479  0.00  0.00    +0.195 A 
ATOM     11  N   UNK A   0       4.739  -7.005  26.369  0.00  0.00    -0.311 N 
ATOM     12  H   UNK A   0       5.072  -7.840  26.831  0.00  0.00    +0.170 HD
ATOM     13  C   UNK A   0       5.705  -6.037  26.242  0.00  0.00    +0.160 A 
ATOM     14  N   UNK A   0       6.870  -6.086  27.010  0.00  0.00    -0.238 NA
ATOM     15  C   UNK A   0       7.858  -5.309  26.646  0.00  0.00    +0.110 C 
ATOM     16  C   UNK A   0       7.866  -4.469  25.379  0.00  0.00    +0.134 C 
ATOM     17  N   UNK A   0       6.493  -4.114  25.073  0.00  0.00    -0.297 N 
ATOM     18  C   UNK A   0       6.433  -2.894  24.310  0.00  0.00    +0.214 C 
ATOM     19  N   UNK A   0       7.757  -2.280  24.519  0.00  0.00    -0.312 N 
ATOM     20  C   UNK A   0       8.577  -3.118  25.410  0.00  0.00    +0.134 C 
ATOM     21  C   UNK A   0       5.497  -5.043  25.337  0.00  0.00    +0.141 A 
ATOM     22  C   UNK A   0       4.158  -5.015  24.622  0.00  0.00    +0.298 A 
ATOM     23  O   UNK A   0       3.817  -4.006  24.004  0.00  0.00    -0.264 OA
ATOM     24  N   UNK A   0       3.398  -6.168  24.628  0.00  0.00    -0.176 NA
ENDBRANCH   1  19
BRANCH   4  25
ATOM     25  C   UNK A   0       8.526   3.297  23.415  0.00  0.00    +0.245 C 
ATOM     26  N   GLU A   1       9.362   4.052  24.218  0.00  0.00    -0.298 N 
ATOM     27  H   GLU A   1       9.967   3.604  24.894  0.00  0.00    +0.150 HD
ATOM     28  O   UNK A   0       7.894   3.791  22.490  0.00  0.00    -0.270 OA
BRANCH  26  29
ATOM     29  CA  GLU A   1       9.568   5.494  23.965  0.00  0.00    +0.182 C 
BRANCH  29  30
ATOM     30  C   GLU A   1       8.898   6.318  25.080  0.00  0.00    +0.325 C 
ATOM     31  OXT GLU A   1       7.867   6.962  24.955  0.00  0.00    -0.249 OA
BRANCH  30  32
ATOM     32  O   GLU A   1       9.536   6.208  26.274  0.00  0.00    -0.479 OA
ATOM     33  H   GLU A   1       9.975   7.052  26.499  0.00  0.00    +0.295 HD
ENDBRANCH  30  32
ENDBRANCH  29  30
BRANCH  29  34
ATOM     34  CB  GLU A   1      11.052   5.866  23.853  0.00  0.00    +0.045 C 
BRANCH  34  35
ATOM     35  CG  GLU A   1      11.945   4.709  23.403  0.00  0.00    +0.123 C 
BRANCH  35  36
ATOM     36  CD  GLU A   1      13.170   5.207  22.669  0.00  0.00    +0.305 C 
ATOM     37  OE2 GLU A   1      13.159   5.858  21.638  0.00  0.00    -0.251 OA
BRANCH  36  38
ATOM     38  OE1 GLU A   1      14.318   4.875  23.305  0.00  0.00    -0.481 OA
ATOM     39  HE1 GLU A   1      14.267   4.033  23.796  0.00  0.00    +0.295 HD
ENDBRANCH  36  38
ENDBRANCH  35  36
ENDBRANCH  34  35
ENDBRANCH  29  34
ENDBRANCH  26  29
ENDBRANCH   4  25
TORSDOF 9
ENDMDL
MODEL 3
REMARK VINA RESULT:      -7.9      1.185      1.400
REMARK  Name = 
REMARK  9 active torsions:
REMARK  status: ('A' for Active; 'I' for Inactive)
REMARK    1  A    between atoms: N_14  and  C_17
REMARK    2  A    between atoms: C_20  and  C_23
REMARK    3  A    between atoms: N_25  and  CA_26
REMARK    4  A    between atoms: CA_26  and  CB_28
REMARK    5  A    between atoms: CA_26  and  C_33
REMARK    6  A    between atoms: CB_28  and  CG_29
REMARK    7  A    between atoms: CG_29  and  CD_30
REMARK    8  A    between atoms: CD_30  and  OE1_31
REMARK    9  A    between atoms: C_33  and  O_34
REMARK                            x       y       z     vdW  Elec       q    Type
REMARK                         _______ _______ _______ _____ _____    ______ ____
ROOT
ATOM      1  C   UNK A   0       8.172  -1.893  24.465  0.00  0.00    +0.031 A 
ATOM      2  C   UNK A   0       7.252  -0.958  23.961  0.00  0.00    +0.024 A 
ATOM      3  C   UNK A   0       7.635   0.326  23.549  0.00  0.00    +0.015 A 
ATOM      4  C   UNK A   0       8.970   0.726  23.620  0.00  0.00    +0.037 A 
ATOM      5  C   UNK A   0       9.914  -0.190  24.089  0.00  0.00    +0.015 A 
ATOM      6  C   UNK A   0       9.512  -1.479  24.497  0.00  0.00    +0.024 A 
ENDROOT
BRANCH   1  19
ATOM      7  N   UNK A   0       2.492  -8.710  25.306  0.00  0.00    -0.329 N 
ATOM      8  H   UNK A   0       2.000  -8.892  26.172  0.00  0.00    +0.145 HD
ATOM      9  H   UNK A   0       1.871  -8.756  24.503  0.00  0.00    +0.145 HD
ATOM     10  C   UNK A   0       3.245  -7.581  25.281  0.00  0.00    +0.195 A 
ATOM     11  N   UNK A   0       3.931  -7.353  26.428  0.00  0.00    -0.311 N 
ATOM     12  H   UNK A   0       4.028  -8.090  27.114  0.00  0.00    +0.170 HD
ATOM     13  C   UNK A   0       4.965  -6.450  26.458  0.00  0.00    +0.160 A 
ATOM     14  N   UNK A   0       5.815  -6.375  27.562  0.00  0.00    -0.238 NA
ATOM     15  C   UNK A   0       6.930  -5.705  27.413  0.00  0.00    +0.110 C 
ATOM     16  C   UNK A   0       7.412  -5.128  26.092  0.00  0.00    +0.134 C 
ATOM     17  N   UNK A   0       6.244  -4.810  25.293  0.00  0.00    -0.297 N 
ATOM     18  C   UNK A   0       6.534  -3.760  24.350  0.00  0.00    +0.214 C 
ATOM     19  N   UNK A   0       7.770  -3.147  24.871  0.00  0.00    -0.312 N 
ATOM     20  C   UNK A   0       8.188  -3.813  26.115  0.00  0.00    +0.134 C 
ATOM     21  C   UNK A   0       5.141  -5.648  25.375  0.00  0.00    +0.141 A 
ATOM     22  C   UNK A   0       4.108  -5.730  24.265  0.00  0.00    +0.298 A 
ATOM     23  O   UNK A   0       4.068  -4.853  23.401  0.00  0.00    -0.264 OA
ATOM     24  N   UNK A   0       3.291  -6.842  24.224  0.00  0.00    -0.176 NA
ENDBRANCH   1  19
BRANCH   4  25
ATOM     25  C   UNK A   0       9.307   2.108  23.156  0.00  0.00    +0.245 C 
ATOM     26  N   GLU A   1       8.390   3.116  23.400  0.00  0.00    -0.298 N 
ATOM     27  H   GLU A   1       7.588   2.948  23.994  0.00  0.00    +0.150 HD
ATOM     28  O   UNK A   0      10.359   2.317  22.568  0.00  0.00    -0.270 OA
BRANCH  26  29
ATOM     29  CA  GLU A   1       8.664   4.512  22.998  0.00  0.00    +0.182 C 
BRANCH  29  30
ATOM     30  C   GLU A   1       7.357   5.185  22.537  0.00  0.00    +0.325 C 
ATOM     31  OXT GLU A   1       6.287   5.114  23.122  0.00  0.00    -0.249 OA
BRANCH  30  32
ATOM     32  O   GLU A   1       7.519   5.943  21.422  0.00  0.00    -0.479 OA
ATOM     33  H   GLU A   1       7.138   6.832  21.563  0.00  0.00    +0.295 HD
ENDBRANCH  30  32
ENDBRANCH  29  30
BRANCH  29  34
ATOM     34  CB  GLU A   1       9.312   5.331  24.121  0.00  0.00    +0.045 C 
BRANCH  34  35
ATOM     35  CG  GLU A   1      10.388   6.303  23.634  0.00  0.00    +0.123 C 
BRANCH  35  36
ATOM     36  CD  GLU A   1      11.763   5.675  23.677  0.00  0.00    +0.305 C 
ATOM     37  OE2 GLU A   1      12.630   5.933  24.495  0.00  0.00    -0.251 OA
BRANCH  36  38
ATOM     38  OE1 GLU A   1      11.934   4.748  22.706  0.00  0.00    -0.481 OA
ATOM     39  HE1 GLU A   1      12.717   4.180  22.837  0.00  0.00    +0.295 HD
ENDBRANCH  36  38
ENDBRANCH  35  36
ENDBRANCH  34  35
ENDBRANCH  29  34
ENDBRANCH  26  29
ENDBRANCH   4  25
TORSDOF 9
ENDMDL
MODEL 4
REMARK VINA RESULT:      -7.3      3.078     11.238
REMARK  Name = 
REMARK  9 active torsions:
REMARK  status: ('A' for Active; 'I' for Inactive)
REMARK    1  A    between atoms: N_14  and  C_17
REMARK    2  A    between atoms: C_20  and  C_23
REMARK    3  A    between atoms: N_25  and  CA_26
REMARK    4  A    between atoms: CA_26  and  CB_28
REMARK    5  A    between atoms: CA_26  and  C_33
REMARK    6  A    between atoms: CB_28  and  CG_29
REMARK    7  A    between atoms: CG_29  and  CD_30
REMARK    8  A    between atoms: CD_30  and  OE1_31
REMARK    9  A    between atoms: C_33  and  O_34
REMARK                            x       y       z     vdW  Elec       q    Type
REMARK                         _______ _______ _______ _____ _____    ______ ____
ROOT
ATOM      1  C   UNK A   0       7.805  -3.153  25.597  0.00  0.00    +0.031 A 
ATOM      2  C   UNK A   0       6.409  -3.177  25.440  0.00  0.00    +0.024 A 
ATOM      3  C   UNK A   0       5.608  -4.180  26.003  0.00  0.00    +0.015 A 
ATOM      4  C   UNK A   0       6.178  -5.205  26.759  0.00  0.00    +0.037 A 
ATOM      5  C   UNK A   0       7.560  -5.194  26.957  0.00  0.00    +0.015 A 
ATOM      6  C   UNK A   0       8.352  -4.176  26.386  0.00  0.00    +0.024 A 
ENDROOT
BRANCH   1  19
ATOM      7  N   UNK A   0       9.912   5.231  23.426  0.00  0.00    -0.329 N 
ATOM      8  H   UNK A   0       9.762   5.595  22.494  0.00  0.00    +0.145 HD
ATOM      9  H   UNK A   0       9.584   5.876  24.140  0.00  0.00    +0.145 HD
ATOM     10  C   UNK A   0       9.450   3.974  23.650  0.00  0.00    +0.195 A 
ATOM     11  N   UNK A   0       9.670   3.118  22.621  0.00  0.00    -0.311 N 
ATOM     12  H   UNK A   0      10.317   3.367  21.885  0.00  0.00    +0.170 HD
ATOM     13  C   UNK A   0       9.558   1.762  22.804  0.00  0.00    +0.160 A 
ATOM     14  N   UNK A   0       9.997   0.871  21.823  0.00  0.00    -0.238 NA
ATOM     15  C   UNK A   0      10.121  -0.386  22.170  0.00  0.00    +0.110 C 
ATOM     16  C   UNK A   0       9.949  -0.903  23.589  0.00  0.00    +0.134 C 
ATOM     17  N   UNK A   0       9.003  -0.038  24.266  0.00  0.00    -0.297 N 
ATOM     18  C   UNK A   0       8.335  -0.738  25.333  0.00  0.00    +0.214 C 
ATOM     19  N   UNK A   0       8.573  -2.161  25.027  0.00  0.00    -0.312 N 
ATOM     20  C   UNK A   0       9.352  -2.295  23.785  0.00  0.00    +0.134 C 
ATOM     21  C   UNK A   0       9.022   1.318  23.972  0.00  0.00    +0.141 A 
ATOM     22  C   UNK A   0       8.479   2.359  24.935  0.00  0.00    +0.298 A 
ATOM     23  O   UNK A   0       7.754   2.010  25.867  0.00  0.00    -0.264 OA
ATOM     24  N   UNK A   0       8.889   3.667  24.770  0.00  0.00    -0.176 NA
ENDBRANCH   1  19
BRANCH   4  25
ATOM     25  C   UNK A   0       5.260  -6.237  27.334  0.00  0.00    +0.245 C 
ATOM     26  N   GLU A   1       3.898  -6.005  27.266  0.00  0.00    -0.298 N 
ATOM     27  H   GLU A   1       3.535  -5.233  26.721  0.00  0.00    +0.150 HD
ATOM     28  O   UNK A   0       5.722  -7.242  27.858  0.00  0.00    -0.270 OA
BRANCH  26  29
ATOM     29  CA  GLU A   1       2.927  -6.991  27.786  0.00  0.00    +0.182 C 
BRANCH  29  30
ATOM     30  C   GLU A   1       2.566  -6.644  29.243  0.00  0.00    +0.325 C 
ATOM     31  OXT GLU A   1       2.447  -7.456  30.149  0.00  0.00    -0.249 OA
BRANCH  30  32
ATOM     32  O   GLU A   1       2.453  -5.308  29.455  0.00  0.00    -0.479 OA
ATOM     33  H   GLU A   1       3.311  -4.869  29.292  0.00  0.00    +0.295 HD
ENDBRANCH  30  32
ENDBRANCH  29  30
BRANCH  29  34
ATOM     34  CB  GLU A   1       1.656  -7.073  26.932  0.00  0.00    +0.045 C 
BRANCH  34  35
ATOM     35  CG  GLU A   1       1.907  -6.904  25.434  0.00  0.00    +0.123 C 
BRANCH  35  36
ATOM     36  CD  GLU A   1       2.674  -8.076  24.863  0.00  0.00    +0.305 C 
ATOM     37  OE2 GLU A   1       2.260  -9.220  24.786  0.00  0.00    -0.251 OA
BRANCH  36  38
ATOM     38  OE1 GLU A   1       3.895  -7.714  24.404  0.00  0.00    -0.481 OA
ATOM     39  HE1 GLU A   1       4.552  -8.436  24.419  0.00  0.00    +0.295 HD
ENDBRANCH  36  38
ENDBRANCH  35  36
ENDBRANCH  34  35
ENDBRANCH  29  34
ENDBRANCH  26  29
ENDBRANCH   4  25
TORSDOF 9
ENDMDL
MODEL 5
REMARK VINA RESULT:      -7.3      1.582      3.067
REMARK  Name = 
REMARK  9 active torsions:
REMARK  status: ('A' for Active; 'I' for Inactive)
REMARK    1  A    between atoms: N_14  and  C_17
REMARK    2  A    between atoms: C_20  and  C_23
REMARK    3  A    between atoms: N_25  and  CA_26
REMARK    4  A    between atoms: CA_26  and  CB_28
REMARK    5  A    between atoms: CA_26  and  C_33
REMARK    6  A    between atoms: CB_28  and  CG_29
REMARK    7  A    between atoms: CG_29  and  CD_30
REMARK    8  A    between atoms: CD_30  and  OE1_31
REMARK    9  A    between atoms: C_33  and  O_34
REMARK                            x       y       z     vdW  Elec       q    Type
REMARK                         _______ _______ _______ _____ _____    ______ ____
ROOT
ATOM      1  C   UNK A   0       8.205  -0.811  24.959  0.00  0.00    +0.031 A 
ATOM      2  C   UNK A   0       7.194   0.157  25.077  0.00  0.00    +0.024 A 
ATOM      3  C   UNK A   0       7.463   1.532  25.038  0.00  0.00    +0.015 A 
ATOM      4  C   UNK A   0       8.768   1.997  24.869  0.00  0.00    +0.037 A 
ATOM      5  C   UNK A   0       9.792   1.060  24.720  0.00  0.00    +0.015 A 
ATOM      6  C   UNK A   0       9.504  -0.321  24.760  0.00  0.00    +0.024 A 
ENDROOT
BRANCH   1  19
ATOM      7  N   UNK A   0       3.079  -8.045  24.043  0.00  0.00    -0.329 N 
ATOM      8  H   UNK A   0       2.652  -8.502  24.839  0.00  0.00    +0.145 HD
ATOM      9  H   UNK A   0       2.417  -7.917  23.282  0.00  0.00    +0.145 HD
ATOM     10  C   UNK A   0       3.747  -6.894  24.311  0.00  0.00    +0.195 A 
ATOM     11  N   UNK A   0       4.481  -6.939  25.450  0.00  0.00    -0.311 N 
ATOM     12  H   UNK A   0       4.669  -7.827  25.896  0.00  0.00    +0.170 HD
ATOM     13  C   UNK A   0       5.449  -5.996  25.696  0.00  0.00    +0.160 A 
ATOM     14  N   UNK A   0       6.354  -6.161  26.746  0.00  0.00    -0.238 NA
ATOM     15  C   UNK A   0       7.409  -5.384  26.752  0.00  0.00    +0.110 C 
ATOM     16  C   UNK A   0       7.771  -4.423  25.632  0.00  0.00    +0.134 C 
ATOM     17  N   UNK A   0       6.539  -3.994  24.998  0.00  0.00    -0.297 N 
ATOM     18  C   UNK A   0       6.699  -2.703  24.380  0.00  0.00    +0.214 C 
ATOM     19  N   UNK A   0       7.916  -2.158  25.008  0.00  0.00    -0.312 N 
ATOM     20  C   UNK A   0       8.452  -3.107  25.998  0.00  0.00    +0.134 C 
ATOM     21  C   UNK A   0       5.505  -4.912  24.879  0.00  0.00    +0.141 A 
ATOM     22  C   UNK A   0       4.417  -4.768  23.829  0.00  0.00    +0.298 A 
ATOM     23  O   UNK A   0       4.266  -3.691  23.250  0.00  0.00    -0.264 OA
ATOM     24  N   UNK A   0       3.680  -5.889  23.505  0.00  0.00    -0.176 NA
ENDBRANCH   1  19
BRANCH   4  25
ATOM     25  C   UNK A   0       8.979   3.477  24.831  0.00  0.00    +0.245 C 
ATOM     26  N   GLU A   1       9.985   3.969  24.018  0.00  0.00    -0.298 N 
ATOM     27  H   GLU A   1      10.464   3.359  23.368  0.00  0.00    +0.150 HD
ATOM     28  O   UNK A   0       8.282   4.213  25.517  0.00  0.00    -0.270 OA
BRANCH  26  29
ATOM     29  CA  GLU A   1      10.235   5.422  23.904  0.00  0.00    +0.182 C 
BRANCH  29  30
ATOM     30  C   GLU A   1      11.735   5.672  23.660  0.00  0.00    +0.325 C 
ATOM     31  OXT GLU A   1      12.531   6.048  24.507  0.00  0.00    -0.249 OA
BRANCH  30  32
ATOM     32  O   GLU A   1      12.122   5.365  22.395  0.00  0.00    -0.479 OA
ATOM     33  H   GLU A   1      12.846   4.709  22.416  0.00  0.00    +0.295 HD
ENDBRANCH  30  32
ENDBRANCH  29  30
BRANCH  29  34
ATOM     34  CB  GLU A   1       9.402   6.078  22.796  0.00  0.00    +0.045 C 
BRANCH  34  35
ATOM     35  CG  GLU A   1       8.142   6.778  23.303  0.00  0.00    +0.123 C 
BRANCH  35  36
ATOM     36  CD  GLU A   1       6.927   6.398  22.486  0.00  0.00    +0.305 C 
ATOM     37  OE2 GLU A   1       5.937   5.831  22.916  0.00  0.00    -0.251 OA
BRANCH  36  38
ATOM     38  OE1 GLU A   1       7.038   6.787  21.194  0.00  0.00    -0.481 OA
ATOM     39  HE1 GLU A   1       7.683   7.506  21.052  0.00  0.00    +0.295 HD
ENDBRANCH  36  38
ENDBRANCH  35  36
ENDBRANCH  34  35
ENDBRANCH  29  34
ENDBRANCH  26  29
ENDBRANCH   4  25
TORSDOF 9
ENDMDL
MODEL 6
REMARK VINA RESULT:      -7.3      1.926      2.914
REMARK  Name = 
REMARK  9 active torsions:
REMARK  status: ('A' for Active; 'I' for Inactive)
REMARK    1  A    between atoms: N_14  and  C_17
REMARK    2  A    between atoms: C_20  and  C_23
REMARK    3  A    between atoms: N_25  and  CA_26
REMARK    4  A    between atoms: CA_26  and  CB_28
REMARK    5  A    between atoms: CA_26  and  C_33
REMARK    6  A    between atoms: CB_28  and  CG_29
REMARK    7  A    between atoms: CG_29  and  CD_30
REMARK    8  A    between atoms: CD_30  and  OE1_31
REMARK    9  A    between atoms: C_33  and  O_34
REMARK                            x       y       z     vdW  Elec       q    Type
REMARK                         _______ _______ _______ _____ _____    ______ ____
ROOT
ATOM      1  C   UNK A   0       8.540  -1.396  24.292  0.00  0.00    +0.031 A 
ATOM      2  C   UNK A   0       7.637  -0.324  24.198  0.00  0.00    +0.024 A 
ATOM      3  C   UNK A   0       8.060   0.999  24.012  0.00  0.00    +0.015 A 
ATOM      4  C   UNK A   0       9.417   1.304  23.905  0.00  0.00    +0.037 A 
ATOM      5  C   UNK A   0      10.339   0.257  23.966  0.00  0.00    +0.015 A 
ATOM      6  C   UNK A   0       9.898  -1.070  24.151  0.00  0.00    +0.024 A 
ENDROOT
BRANCH   1  19
ATOM      7  N   UNK A   0       2.686  -8.107  23.930  0.00  0.00    -0.329 N 
ATOM      8  H   UNK A   0       2.175  -8.415  24.748  0.00  0.00    +0.145 HD
ATOM      9  H   UNK A   0       2.079  -8.006  23.121  0.00  0.00    +0.145 HD
ATOM     10  C   UNK A   0       3.466  -7.009  24.100  0.00  0.00    +0.195 A 
ATOM     11  N   UNK A   0       4.136  -6.990  25.279  0.00  0.00    -0.311 N 
ATOM     12  H   UNK A   0       4.203  -7.831  25.837  0.00  0.00    +0.170 HD
ATOM     13  C   UNK A   0       5.190  -6.131  25.469  0.00  0.00    +0.160 A 
ATOM     14  N   UNK A   0       6.022  -6.259  26.584  0.00  0.00    -0.238 NA
ATOM     15  C   UNK A   0       7.155  -5.603  26.561  0.00  0.00    +0.110 C 
ATOM     16  C   UNK A   0       7.675  -4.832  25.359  0.00  0.00    +0.134 C 
ATOM     17  N   UNK A   0       6.529  -4.357  24.606  0.00  0.00    -0.297 N 
ATOM     18  C   UNK A   0       6.861  -3.176  23.851  0.00  0.00    +0.214 C 
ATOM     19  N   UNK A   0       8.101  -2.689  24.482  0.00  0.00    -0.312 N 
ATOM     20  C   UNK A   0       8.481  -3.559  25.607  0.00  0.00    +0.134 C 
ATOM     21  C   UNK A   0       5.406  -5.168  24.534  0.00  0.00    +0.141 A 
ATOM     22  C   UNK A   0       4.391  -5.042  23.412  0.00  0.00    +0.298 A 
ATOM     23  O   UNK A   0       4.388  -4.035  22.702  0.00  0.00    -0.264 OA
ATOM     24  N   UNK A   0       3.549  -6.111  23.179  0.00  0.00    -0.176 NA
ENDBRANCH   1  19
BRANCH   4  25
ATOM     25  C   UNK A   0       9.794   2.737  23.701  0.00  0.00    +0.245 C 
ATOM     26  N   GLU A   1       8.789   3.687  23.755  0.00  0.00    -0.298 N 
ATOM     27  H   GLU A   1       7.858   3.432  24.062  0.00  0.00    +0.150 HD
ATOM     28  O   UNK A   0      10.959   3.038  23.479  0.00  0.00    -0.270 OA
BRANCH  26  29
ATOM     29  CA  GLU A   1       9.087   5.126  23.593  0.00  0.00    +0.182 C 
BRANCH  29  30
ATOM     30  C   GLU A   1       7.988   5.790  22.742  0.00  0.00    +0.325 C 
ATOM     31  OXT GLU A   1       7.676   6.970  22.795  0.00  0.00    -0.249 OA
BRANCH  30  32
ATOM     32  O   GLU A   1       7.423   4.936  21.849  0.00  0.00    -0.479 OA
ATOM     33  H   GLU A   1       6.603   4.556  22.221  0.00  0.00    +0.295 HD
ENDBRANCH  30  32
ENDBRANCH  29  30
BRANCH  29  34
ATOM     34  CB  GLU A   1       9.227   5.853  24.935  0.00  0.00    +0.045 C 
BRANCH  34  35
ATOM     35  CG  GLU A   1       8.256   5.361  26.009  0.00  0.00    +0.123 C 
BRANCH  35  36
ATOM     36  CD  GLU A   1       7.826   6.484  26.925  0.00  0.00    +0.305 C 
ATOM     37  OE2 GLU A   1       6.782   7.108  26.835  0.00  0.00    -0.251 OA
BRANCH  36  38
ATOM     38  OE1 GLU A   1       8.728   6.718  27.907  0.00  0.00    -0.481 OA
ATOM     39  HE1 GLU A   1       9.652   6.541  27.643  0.00  0.00    +0.295 HD
ENDBRANCH  36  38
ENDBRANCH  35  36
ENDBRANCH  34  35
ENDBRANCH  29  34
ENDBRANCH  26  29
ENDBRANCH   4  25
TORSDOF 9
ENDMDL
MODEL 7
REMARK VINA RESULT:      -7.2      2.619     11.435
REMARK  Name = 
REMARK  9 active torsions:
REMARK  status: ('A' for Active; 'I' for Inactive)
REMARK    1  A    between atoms: N_14  and  C_17
REMARK    2  A    between atoms: C_20  and  C_23
REMARK    3  A    between atoms: N_25  and  CA_26
REMARK    4  A    between atoms: CA_26  and  CB_28
REMARK    5  A    between atoms: CA_26  and  C_33
REMARK    6  A    between atoms: CB_28  and  CG_29
REMARK    7  A    between atoms: CG_29  and  CD_30
REMARK    8  A    between atoms: CD_30  and  OE1_31
REMARK    9  A    between atoms: C_33  and  O_34
REMARK                            x       y       z     vdW  Elec       q    Type
REMARK                         _______ _______ _______ _____ _____    ______ ____
ROOT
ATOM      1  C   UNK A   0       6.937  -1.198  23.298  0.00  0.00    +0.031 A 
ATOM      2  C   UNK A   0       6.047  -1.410  24.365  0.00  0.00    +0.024 A 
ATOM      3  C   UNK A   0       5.640  -2.692  24.759  0.00  0.00    +0.015 A 
ATOM      4  C   UNK A   0       6.119  -3.825  24.099  0.00  0.00    +0.037 A 
ATOM      5  C   UNK A   0       7.026  -3.649  23.053  0.00  0.00    +0.015 A 
ATOM      6  C   UNK A   0       7.428  -2.353  22.669  0.00  0.00    +0.024 A 
ENDROOT
BRANCH   1  19
ATOM      7  N   UNK A   0      12.112   6.058  23.328  0.00  0.00    -0.329 N 
ATOM      8  H   UNK A   0      11.855   6.896  23.834  0.00  0.00    +0.145 HD
ATOM      9  H   UNK A   0      13.082   5.802  23.491  0.00  0.00    +0.145 HD
ATOM     10  C   UNK A   0      11.288   4.992  23.492  0.00  0.00    +0.195 A 
ATOM     11  N   UNK A   0       9.971   5.314  23.503  0.00  0.00    -0.311 N 
ATOM     12  H   UNK A   0       9.671   6.226  23.185  0.00  0.00    +0.170 HD
ATOM     13  C   UNK A   0       9.013   4.344  23.342  0.00  0.00    +0.160 A 
ATOM     14  N   UNK A   0       7.677   4.689  23.127  0.00  0.00    -0.238 NA
ATOM     15  C   UNK A   0       6.876   3.743  22.706  0.00  0.00    +0.110 C 
ATOM     16  C   UNK A   0       7.332   2.346  22.314  0.00  0.00    +0.134 C 
ATOM     17  N   UNK A   0       8.509   2.027  23.098  0.00  0.00    -0.297 N 
ATOM     18  C   UNK A   0       8.651   0.602  23.257  0.00  0.00    +0.214 C 
ATOM     19  N   UNK A   0       7.317   0.073  22.923  0.00  0.00    -0.312 N 
ATOM     20  C   UNK A   0       6.396   1.174  22.594  0.00  0.00    +0.134 C 
ATOM     21  C   UNK A   0       9.408   3.044  23.383  0.00  0.00    +0.141 A 
ATOM     22  C   UNK A   0      10.861   2.763  23.723  0.00  0.00    +0.298 A 
ATOM     23  O   UNK A   0      11.207   1.623  24.033  0.00  0.00    -0.264 OA
ATOM     24  N   UNK A   0      11.766   3.799  23.594  0.00  0.00    -0.176 NA
ENDBRANCH   1  19
BRANCH   4  25
ATOM     25  C   UNK A   0       5.646  -5.160  24.579  0.00  0.00    +0.245 C 
ATOM     26  N   GLU A   1       5.126  -5.244  25.858  0.00  0.00    -0.298 N 
ATOM     27  H   GLU A   1       4.943  -4.404  26.394  0.00  0.00    +0.150 HD
ATOM     28  O   UNK A   0       5.739  -6.140  23.852  0.00  0.00    -0.270 OA
BRANCH  26  29
ATOM     29  CA  GLU A   1       4.612  -6.523  26.393  0.00  0.00    +0.182 C 
BRANCH  29  30
ATOM     30  C   GLU A   1       5.307  -6.843  27.730  0.00  0.00    +0.325 C 
ATOM     31  OXT GLU A   1       6.425  -6.465  28.048  0.00  0.00    -0.249 OA
BRANCH  30  32
ATOM     32  O   GLU A   1       4.517  -7.548  28.580  0.00  0.00    -0.479 OA
ATOM     33  H   GLU A   1       4.013  -6.938  29.154  0.00  0.00    +0.295 HD
ENDBRANCH  30  32
ENDBRANCH  29  30
BRANCH  29  34
ATOM     34  CB  GLU A   1       3.089  -6.514  26.578  0.00  0.00    +0.045 C 
BRANCH  34  35
ATOM     35  CG  GLU A   1       2.308  -6.431  25.267  0.00  0.00    +0.123 C 
BRANCH  35  36
ATOM     36  CD  GLU A   1       2.625  -7.598  24.358  0.00  0.00    +0.305 C 
ATOM     37  OE2 GLU A   1       2.534  -8.775  24.663  0.00  0.00    -0.251 OA
BRANCH  36  38
ATOM     38  OE1 GLU A   1       3.003  -7.196  23.122  0.00  0.00    -0.481 OA
ATOM     39  HE1 GLU A   1       3.931  -7.409  22.905  0.00  0.00    +0.295 HD
ENDBRANCH  36  38
ENDBRANCH  35  36
ENDBRANCH  34  35
ENDBRANCH  29  34
ENDBRANCH  26  29
ENDBRANCH   4  25
TORSDOF 9
ENDMDL
MODEL 8
REMARK VINA RESULT:      -7.0      3.351     11.544
REMARK  Name = 
REMARK  9 active torsions:
REMARK  status: ('A' for Active; 'I' for Inactive)
REMARK    1  A    between atoms: N_14  and  C_17
REMARK    2  A    between atoms: C_20  and  C_23
REMARK    3  A    between atoms: N_25  and  CA_26
REMARK    4  A    between atoms: CA_26  and  CB_28
REMARK    5  A    between atoms: CA_26  and  C_33
REMARK    6  A    between atoms: CB_28  and  CG_29
REMARK    7  A    between atoms: CG_29  and  CD_30
REMARK    8  A    between atoms: CD_30  and  OE1_31
REMARK    9  A    between atoms: C_33  and  O_34
REMARK                            x       y       z     vdW  Elec       q    Type
REMARK                         _______ _______ _______ _____ _____    ______ ____
ROOT
ATOM      1  C   UNK A   0       6.965  -3.155  23.946  0.00  0.00    +0.031 A 
ATOM      2  C   UNK A   0       5.692  -3.187  23.352  0.00  0.00    +0.024 A 
ATOM      3  C   UNK A   0       4.811  -4.264  23.523  0.00  0.00    +0.015 A 
ATOM      4  C   UNK A   0       5.171  -5.359  24.309  0.00  0.00    +0.037 A 
ATOM      5  C   UNK A   0       6.418  -5.344  24.937  0.00  0.00    +0.015 A 
ATOM      6  C   UNK A   0       7.292  -4.252  24.757  0.00  0.00    +0.024 A 
ENDROOT
BRANCH   1  19
ATOM      7  N   UNK A   0       9.544   5.359  24.491  0.00  0.00    -0.329 N 
ATOM      8  H   UNK A   0       9.499   5.984  23.696  0.00  0.00    +0.145 HD
ATOM      9  H   UNK A   0       9.168   5.792  25.331  0.00  0.00    +0.145 HD
ATOM     10  C   UNK A   0       9.022   4.121  24.301  0.00  0.00    +0.195 A 
ATOM     11  N   UNK A   0       9.315   3.584  23.090  0.00  0.00    -0.311 N 
ATOM     12  H   UNK A   0      10.039   3.994  22.517  0.00  0.00    +0.170 HD
ATOM     13  C   UNK A   0       9.142   2.241  22.861  0.00  0.00    +0.160 A 
ATOM     14  N   UNK A   0       9.647   1.643  21.705  0.00  0.00    -0.238 NA
ATOM     15  C   UNK A   0       9.696   0.335  21.681  0.00  0.00    +0.110 C 
ATOM     16  C   UNK A   0       9.368  -0.556  22.868  0.00  0.00    +0.134 C 
ATOM     17  N   UNK A   0       8.388   0.134  23.685  0.00  0.00    -0.297 N 
ATOM     18  C   UNK A   0       7.596  -0.801  24.441  0.00  0.00    +0.214 C 
ATOM     19  N   UNK A   0       7.817  -2.088  23.757  0.00  0.00    -0.312 N 
ATOM     20  C   UNK A   0       8.710  -1.907  22.600  0.00  0.00    +0.134 C 
ATOM     21  C   UNK A   0       8.479   1.514  23.800  0.00  0.00    +0.141 A 
ATOM     22  C   UNK A   0       7.878   2.266  24.973  0.00  0.00    +0.298 A 
ATOM     23  O   UNK A   0       7.053   1.709  25.699  0.00  0.00    -0.264 OA
ATOM     24  N   UNK A   0       8.343   3.540  25.231  0.00  0.00    -0.176 NA
ENDBRANCH   1  19
BRANCH   4  25
ATOM     25  C   UNK A   0       4.177  -6.468  24.452  0.00  0.00    +0.245 C 
ATOM     26  N   GLU A   1       2.873  -6.135  24.771  0.00  0.00    -0.298 N 
ATOM     27  H   GLU A   1       2.574  -5.167  24.769  0.00  0.00    +0.150 HD
ATOM     28  O   UNK A   0       4.531  -7.629  24.301  0.00  0.00    -0.270 OA
BRANCH  26  29
ATOM     29  CA  GLU A   1       1.828  -7.173  24.901  0.00  0.00    +0.182 C 
BRANCH  29  30
ATOM     30  C   GLU A   1       1.237  -7.139  26.323  0.00  0.00    +0.325 C 
ATOM     31  OXT GLU A   1       0.692  -6.173  26.833  0.00  0.00    -0.249 OA
BRANCH  30  32
ATOM     32  O   GLU A   1       1.318  -8.338  26.956  0.00  0.00    -0.479 OA
ATOM     33  H   GLU A   1       1.415  -8.202  27.919  0.00  0.00    +0.295 HD
ENDBRANCH  30  32
ENDBRANCH  29  30
BRANCH  29  34
ATOM     34  CB  GLU A   1       0.711  -7.017  23.861  0.00  0.00    +0.045 C 
BRANCH  34  35
ATOM     35  CG  GLU A   1       1.212  -6.994  22.416  0.00  0.00    +0.123 C 
BRANCH  35  36
ATOM     36  CD  GLU A   1       0.935  -8.304  21.713  0.00  0.00    +0.305 C 
ATOM     37  OE2 GLU A   1       1.136  -8.526  20.531  0.00  0.00    -0.251 OA
BRANCH  36  38
ATOM     38  OE1 GLU A   1       0.457  -9.248  22.557  0.00  0.00    -0.481 OA
ATOM     39  HE1 GLU A   1       1.142  -9.852  22.903  0.00  0.00    +0.295 HD
ENDBRANCH  36  38
ENDBRANCH  35  36
ENDBRANCH  34  35
ENDBRANCH  29  34
ENDBRANCH  26  29
ENDBRANCH   4  25
TORSDOF 9
ENDMDL
MODEL 9
REMARK VINA RESULT:      -7.0      2.637     11.083
REMARK  Name = 
REMARK  9 active torsions:
REMARK  status: ('A' for Active; 'I' for Inactive)
REMARK    1  A    between atoms: N_14  and  C_17
REMARK    2  A    between atoms: C_20  and  C_23
REMARK    3  A    between atoms: N_25  and  CA_26
REMARK    4  A    between atoms: CA_26  and  CB_28
REMARK    5  A    between atoms: CA_26  and  C_33
REMARK    6  A    between atoms: CB_28  and  CG_29
REMARK    7  A    between atoms: CG_29  and  CD_30
REMARK    8  A    between atoms: CD_30  and  OE1_31
REMARK    9  A    between atoms: C_33  and  O_34
REMARK                            x       y       z     vdW  Elec       q    Type
REMARK                         _______ _______ _______ _____ _____    ______ ____
ROOT
ATOM      1  C   UNK A   0       6.743  -0.530  23.509  0.00  0.00    +0.031 A 
ATOM      2  C   UNK A   0       6.965  -1.665  22.712  0.00  0.00    +0.024 A 
ATOM      3  C   UNK A   0       6.503  -2.938  23.073  0.00  0.00    +0.015 A 
ATOM      4  C   UNK A   0       5.788  -3.126  24.256  0.00  0.00    +0.037 A 
ATOM      5  C   UNK A   0       5.526  -2.012  25.057  0.00  0.00    +0.015 A 
ATOM      6  C   UNK A   0       5.995  -0.737  24.678  0.00  0.00    +0.024 A 
ENDROOT
BRANCH   1  19
ATOM      7  N   UNK A   0      12.601   6.183  23.261  0.00  0.00    -0.329 N 
ATOM      8  H   UNK A   0      12.475   7.023  23.811  0.00  0.00    +0.145 HD
ATOM      9  H   UNK A   0      13.551   5.828  23.327  0.00  0.00    +0.145 HD
ATOM     10  C   UNK A   0      11.693   5.197  23.472  0.00  0.00    +0.195 A 
ATOM     11  N   UNK A   0      10.420   5.645  23.613  0.00  0.00    -0.311 N 
ATOM     12  H   UNK A   0      10.186   6.592  23.349  0.00  0.00    +0.170 HD
ATOM     13  C   UNK A   0       9.359   4.779  23.515  0.00  0.00    +0.160 A 
ATOM     14  N   UNK A   0       8.051   5.260  23.434  0.00  0.00    -0.238 NA
ATOM     15  C   UNK A   0       7.125   4.412  23.063  0.00  0.00    +0.110 C 
ATOM     16  C   UNK A   0       7.402   2.993  22.592  0.00  0.00    +0.134 C 
ATOM     17  N   UNK A   0       8.606   2.532  23.254  0.00  0.00    -0.297 N 
ATOM     18  C   UNK A   0       8.619   1.095  23.360  0.00  0.00    +0.214 C 
ATOM     19  N   UNK A   0       7.213   0.711  23.137  0.00  0.00    -0.312 N 
ATOM     20  C   UNK A   0       6.382   1.908  22.924  0.00  0.00    +0.134 C 
ATOM     21  C   UNK A   0       9.625   3.446  23.483  0.00  0.00    +0.141 A 
ATOM     22  C   UNK A   0      11.067   3.013  23.679  0.00  0.00    +0.298 A 
ATOM     23  O   UNK A   0      11.323   1.834  23.924  0.00  0.00    -0.264 OA
ATOM     24  N   UNK A   0      12.056   3.959  23.495  0.00  0.00    -0.176 NA
ENDBRANCH   1  19
BRANCH   4  25
ATOM     25  C   UNK A   0       5.321  -4.511  24.574  0.00  0.00    +0.245 C 
ATOM     26  N   GLU A   1       4.229  -4.653  25.411  0.00  0.00    -0.298 N 
ATOM     27  H   GLU A   1       3.682  -3.846  25.683  0.00  0.00    +0.150 HD
ATOM     28  O   UNK A   0       5.912  -5.477  24.108  0.00  0.00    -0.270 OA
BRANCH  26  29
ATOM     29  CA  GLU A   1       3.692  -5.989  25.748  0.00  0.00    +0.182 C 
BRANCH  29  30
ATOM     30  C   GLU A   1       3.251  -6.710  24.460  0.00  0.00    +0.325 C 
ATOM     31  OXT GLU A   1       2.340  -6.349  23.730  0.00  0.00    -0.249 OA
BRANCH  30  32
ATOM     32  O   GLU A   1       4.032  -7.780  24.161  0.00  0.00    -0.479 OA
ATOM     33  H   GLU A   1       4.647  -7.964  24.899  0.00  0.00    +0.295 HD
ENDBRANCH  30  32
ENDBRANCH  29  30
BRANCH  29  34
ATOM     34  CB  GLU A   1       4.699  -6.851  26.518  0.00  0.00    +0.045 C 
BRANCH  34  35
ATOM     35  CG  GLU A   1       4.994  -6.344  27.930  0.00  0.00    +0.123 C 
BRANCH  35  36
ATOM     36  CD  GLU A   1       6.340  -5.658  28.004  0.00  0.00    +0.305 C 
ATOM     37  OE2 GLU A   1       6.540  -4.474  27.791  0.00  0.00    -0.251 OA
BRANCH  36  38
ATOM     38  OE1 GLU A   1       7.328  -6.507  28.370  0.00  0.00    -0.481 OA
ATOM     39  HE1 GLU A   1       7.935  -6.139  29.041  0.00  0.00    +0.295 HD
ENDBRANCH  36  38
ENDBRANCH  35  36
ENDBRANCH  34  35
ENDBRANCH  29  34
ENDBRANCH  26  29
ENDBRANCH   4  25
TORSDOF 9
ENDMDL
