MODEL 1
REMARK VINA RESULT:      -3.2      0.000      0.000
REMARK  Name = 
REMARK  4 active torsions:
REMARK  status: ('A' for Active; 'I' for Inactive)
REMARK    1  A    between atoms: C_1  and  C_2
REMARK    2  A    between atoms: C_2  and  C_4
REMARK    3  A    between atoms: C_2  and  C_6
REMARK    4  A    between atoms: C_4  and  N_5
REMARK                            x       y       z     vdW  Elec       q    Type
REMARK                         _______ _______ _______ _____ _____    ______ ____
ROOT
ATOM      1  C   UNL     1       7.871  -2.784  26.260  0.00  0.00    +0.015 C 
ATOM      2  C   UNL     1       8.613  -4.101  26.452  0.00  0.00    +0.045 C 
ENDROOT
BRANCH   2   3
ATOM      3  C   UNL     1       7.568  -5.221  26.577  0.00  0.00    +0.046 C 
ATOM      4  O   UNL     1       7.577  -5.838  27.680  0.00  0.00    -0.550 OA
ATOM      5  O   UNL     1       6.819  -5.396  25.572  0.00  0.00    -0.550 OA
ENDBRANCH   2   3
BRANCH   2   6
ATOM      6  C   UNL     1       9.509  -4.490  25.281  0.00  0.00    +0.086 C 
BRANCH   6   7
ATOM      7  N   UNL     1       9.864  -5.922  25.295  0.00  0.00    -0.329 NA
ATOM      8  H   UNL     1      10.869  -5.990  25.149  0.00  0.00    +0.118 HD
ATOM      9  H   UNL     1       9.687  -6.276  26.232  0.00  0.00    +0.118 HD
ENDBRANCH   6   7
ENDBRANCH   2   6
TORSDOF 3
ENDMDL
MODEL 2
REMARK VINA RESULT:      -3.2      7.618      8.140
REMARK  Name = 
REMARK  4 active torsions:
REMARK  status: ('A' for Active; 'I' for Inactive)
REMARK    1  A    between atoms: C_1  and  C_2
REMARK    2  A    between atoms: C_2  and  C_4
REMARK    3  A    between atoms: C_2  and  C_6
REMARK    4  A    between atoms: C_4  and  N_5
REMARK                            x       y       z     vdW  Elec       q    Type
REMARK                         _______ _______ _______ _____ _____    ______ ____
ROOT
ATOM      1  C   UNL     1      11.033   0.714  24.531  0.00  0.00    +0.015 C 
ATOM      2  C   UNL     1       9.919   1.345  23.705  0.00  0.00    +0.045 C 
ENDROOT
BRANCH   2   3
ATOM      3  C   UNL     1      10.087   2.871  23.766  0.00  0.00    +0.046 C 
ATOM      4  O   UNL     1       9.066   3.504  24.159  0.00  0.00    -0.550 OA
ATOM      5  O   UNL     1      11.220   3.319  23.426  0.00  0.00    -0.550 OA
ENDBRANCH   2   3
BRANCH   2   6
ATOM      6  C   UNL     1       9.954   0.978  22.226  0.00  0.00    +0.086 C 
BRANCH   6   7
ATOM      7  N   UNL     1       9.358   2.021  21.371  0.00  0.00    -0.329 NA
ATOM      8  H   UNL     1       8.719   2.564  21.948  0.00  0.00    +0.118 HD
ATOM      9  H   UNL     1      10.102   2.658  21.094  0.00  0.00    +0.118 HD
ENDBRANCH   6   7
ENDBRANCH   2   6
TORSDOF 3
ENDMDL
MODEL 3
REMARK VINA RESULT:      -3.1      4.147      4.560
REMARK  Name = 
REMARK  4 active torsions:
REMARK  status: ('A' for Active; 'I' for Inactive)
REMARK    1  A    between atoms: C_1  and  C_2
REMARK    2  A    between atoms: C_2  and  C_4
REMARK    3  A    between atoms: C_2  and  C_6
REMARK    4  A    between atoms: C_4  and  N_5
REMARK                            x       y       z     vdW  Elec       q    Type
REMARK                         _______ _______ _______ _____ _____    ______ ____
ROOT
ATOM      1  C   UNL     1       9.344  -0.121  24.993  0.00  0.00    +0.015 C 
ATOM      2  C   UNL     1      10.087  -0.988  23.983  0.00  0.00    +0.045 C 
ENDROOT
BRANCH   2   3
ATOM      3  C   UNL     1       9.380  -2.350  23.915  0.00  0.00    +0.046 C 
ATOM      4  O   UNL     1      10.136  -3.352  24.069  0.00  0.00    -0.550 OA
ATOM      5  O   UNL     1       8.130  -2.319  23.720  0.00  0.00    -0.550 OA
ENDBRANCH   2   3
BRANCH   2   6
ATOM      6  C   UNL     1      10.077  -0.438  22.561  0.00  0.00    +0.086 C 
BRANCH   6   7
ATOM      7  N   UNL     1      10.049  -1.506  21.544  0.00  0.00    -0.329 NA
ATOM      8  H   UNL     1      10.700  -2.230  21.840  0.00  0.00    +0.118 HD
ATOM      9  H   UNL     1       9.124  -1.929  21.564  0.00  0.00    +0.118 HD
ENDBRANCH   6   7
ENDBRANCH   2   6
TORSDOF 3
ENDMDL
MODEL 4
REMARK VINA RESULT:      -3.1      6.223      6.717
REMARK  Name = 
REMARK  4 active torsions:
REMARK  status: ('A' for Active; 'I' for Inactive)
REMARK    1  A    between atoms: C_1  and  C_2
REMARK    2  A    between atoms: C_2  and  C_4
REMARK    3  A    between atoms: C_2  and  C_6
REMARK    4  A    between atoms: C_4  and  N_5
REMARK                            x       y       z     vdW  Elec       q    Type
REMARK                         _______ _______ _______ _____ _____    ______ ____
ROOT
ATOM      1  C   UNL     1      10.215   0.252  24.965  0.00  0.00    +0.015 C 
ATOM      2  C   UNL     1      10.472   0.517  23.486  0.00  0.00    +0.045 C 
ENDROOT
BRANCH   2   3
ATOM      3  C   UNL     1       9.492  -0.343  22.673  0.00  0.00    +0.046 C 
ATOM      4  O   UNL     1      10.034  -1.112  21.827  0.00  0.00    -0.550 OA
ATOM      5  O   UNL     1       8.265  -0.192  22.941  0.00  0.00    -0.550 OA
ENDBRANCH   2   3
BRANCH   2   6
ATOM      6  C   UNL     1      10.220   1.958  23.058  0.00  0.00    +0.086 C 
BRANCH   6   7
ATOM      7  N   UNL     1       9.902   2.073  21.622  0.00  0.00    -0.329 NA
ATOM      8  H   UNL     1       9.114   2.709  21.532  0.00  0.00    +0.118 HD
ATOM      9  H   UNL     1      10.689   2.528  21.166  0.00  0.00    +0.118 HD
ENDBRANCH   6   7
ENDBRANCH   2   6
TORSDOF 3
ENDMDL
MODEL 5
REMARK VINA RESULT:      -3.1      6.009      6.573
REMARK  Name = 
REMARK  4 active torsions:
REMARK  status: ('A' for Active; 'I' for Inactive)
REMARK    1  A    between atoms: C_1  and  C_2
REMARK    2  A    between atoms: C_2  and  C_4
REMARK    3  A    between atoms: C_2  and  C_6
REMARK    4  A    between atoms: C_4  and  N_5
REMARK                            x       y       z     vdW  Elec       q    Type
REMARK                         _______ _______ _______ _____ _____    ______ ____
ROOT
ATOM      1  C   UNL     1      10.824   0.598  24.368  0.00  0.00    +0.015 C 
ATOM      2  C   UNL     1       9.797  -0.164  23.538  0.00  0.00    +0.045 C 
ENDROOT
BRANCH   2   3
ATOM      3  C   UNL     1       9.293   0.773  22.430  0.00  0.00    +0.046 C 
ATOM      4  O   UNL     1       8.052   0.703  22.196  0.00  0.00    -0.550 OA
ATOM      5  O   UNL     1      10.166   1.508  21.884  0.00  0.00    -0.550 OA
ENDBRANCH   2   3
BRANCH   2   6
ATOM      6  C   UNL     1      10.354  -1.392  22.828  0.00  0.00    +0.086 C 
BRANCH   6   7
ATOM      7  N   UNL     1       9.984  -1.435  21.401  0.00  0.00    -0.329 NA
ATOM      8  H   UNL     1      10.102  -0.498  21.025  0.00  0.00    +0.118 HD
ATOM      9  H   UNL     1      10.664  -2.022  20.923  0.00  0.00    +0.118 HD
ENDBRANCH   6   7
ENDBRANCH   2   6
TORSDOF 3
ENDMDL
MODEL 6
REMARK VINA RESULT:      -3.1      6.061      6.614
REMARK  Name = 
REMARK  4 active torsions:
REMARK  status: ('A' for Active; 'I' for Inactive)
REMARK    1  A    between atoms: C_1  and  C_2
REMARK    2  A    between atoms: C_2  and  C_4
REMARK    3  A    between atoms: C_2  and  C_6
REMARK    4  A    between atoms: C_4  and  N_5
REMARK                            x       y       z     vdW  Elec       q    Type
REMARK                         _______ _______ _______ _____ _____    ______ ____
ROOT
ATOM      1  C   UNL     1       8.844   2.051  21.998  0.00  0.00    +0.015 C 
ATOM      2  C   UNL     1       9.861   0.922  22.111  0.00  0.00    +0.045 C 
ENDROOT
BRANCH   2   3
ATOM      3  C   UNL     1       9.957   0.516  23.590  0.00  0.00    +0.046 C 
ATOM      4  O   UNL     1       8.863   0.162  24.117  0.00  0.00    -0.550 OA
ATOM      5  O   UNL     1      11.109   0.574  24.109  0.00  0.00    -0.550 OA
ENDBRANCH   2   3
BRANCH   2   6
ATOM      6  C   UNL     1       9.477  -0.342  21.351  0.00  0.00    +0.086 C 
BRANCH   6   7
ATOM      7  N   UNL     1      10.204  -1.532  21.833  0.00  0.00    -0.329 NA
ATOM      8  H   UNL     1       9.553  -2.313  21.829  0.00  0.00    +0.118 HD
ATOM      9  H   UNL     1      10.921  -1.756  21.147  0.00  0.00    +0.118 HD
ENDBRANCH   6   7
ENDBRANCH   2   6
TORSDOF 3
ENDMDL
MODEL 7
REMARK VINA RESULT:      -3.1      2.252      2.736
REMARK  Name = 
REMARK  4 active torsions:
REMARK  status: ('A' for Active; 'I' for Inactive)
REMARK    1  A    between atoms: C_1  and  C_2
REMARK    2  A    between atoms: C_2  and  C_4
REMARK    3  A    between atoms: C_2  and  C_6
REMARK    4  A    between atoms: C_4  and  N_5
REMARK                            x       y       z     vdW  Elec       q    Type
REMARK                         _______ _______ _______ _____ _____    ______ ____
ROOT
ATOM      1  C   UNL     1       8.523  -2.336  26.167  0.00  0.00    +0.015 C 
ATOM      2  C   UNL     1       8.440  -3.756  25.619  0.00  0.00    +0.045 C 
ENDROOT
BRANCH   2   3
ATOM      3  C   UNL     1       8.974  -3.741  24.179  0.00  0.00    +0.046 C 
ATOM      4  O   UNL     1       8.314  -4.442  23.358  0.00  0.00    -0.550 OA
ATOM      5  O   UNL     1      10.001  -3.032  23.974  0.00  0.00    -0.550 OA
ENDBRANCH   2   3
BRANCH   2   6
ATOM      6  C   UNL     1       9.295  -4.768  26.374  0.00  0.00    +0.086 C 
BRANCH   6   7
ATOM      7  N   UNL     1      10.170  -5.546  25.478  0.00  0.00    -0.329 NA
ATOM      8  H   UNL     1       9.572  -6.119  24.886  0.00  0.00    +0.118 HD
ATOM      9  H   UNL     1      10.641  -4.891  24.858  0.00  0.00    +0.118 HD
ENDBRANCH   6   7
ENDBRANCH   2   6
TORSDOF 3
ENDMDL
MODEL 8
REMARK VINA RESULT:      -3.0      5.292      5.905
REMARK  Name = 
REMARK  4 active torsions:
REMARK  status: ('A' for Active; 'I' for Inactive)
REMARK    1  A    between atoms: C_1  and  C_2
REMARK    2  A    between atoms: C_2  and  C_4
REMARK    3  A    between atoms: C_2  and  C_6
REMARK    4  A    between atoms: C_4  and  N_5
REMARK                            x       y       z     vdW  Elec       q    Type
REMARK                         _______ _______ _______ _____ _____    ______ ____
ROOT
ATOM      1  C   UNL     1       9.509   0.371  21.617  0.00  0.00    +0.015 C 
ATOM      2  C   UNL     1       9.551   0.016  23.098  0.00  0.00    +0.045 C 
ENDROOT
BRANCH   2   3
ATOM      3  C   UNL     1      10.013  -1.444  23.223  0.00  0.00    +0.046 C 
ATOM      4  O   UNL     1      10.735  -1.858  22.271  0.00  0.00    -0.550 OA
ATOM      5  O   UNL     1       9.629  -2.062  24.258  0.00  0.00    -0.550 OA
ENDBRANCH   2   3
BRANCH   2   6
ATOM      6  C   UNL     1      10.541   0.842  23.911  0.00  0.00    +0.086 C 
BRANCH   6   7
ATOM      7  N   UNL     1      10.479   0.538  25.353  0.00  0.00    -0.329 NA
ATOM      8  H   UNL     1      10.540  -0.472  25.457  0.00  0.00    +0.118 HD
ATOM      9  H   UNL     1      11.317   0.919  25.787  0.00  0.00    +0.118 HD
ENDBRANCH   6   7
ENDBRANCH   2   6
TORSDOF 3
ENDMDL
MODEL 9
REMARK VINA RESULT:      -2.9      4.546      5.189
REMARK  Name = 
REMARK  4 active torsions:
REMARK  status: ('A' for Active; 'I' for Inactive)
REMARK    1  A    between atoms: C_1  and  C_2
REMARK    2  A    between atoms: C_2  and  C_4
REMARK    3  A    between atoms: C_2  and  C_6
REMARK    4  A    between atoms: C_4  and  N_5
REMARK                            x       y       z     vdW  Elec       q    Type
REMARK                         _______ _______ _______ _____ _____    ______ ____
ROOT
ATOM      1  C   UNL     1       7.680  -5.099  23.585  0.00  0.00    +0.015 C 
ATOM      2  C   UNL     1       6.250  -4.830  23.131  0.00  0.00    +0.045 C 
ENDROOT
BRANCH   2   3
ATOM      3  C   UNL     1       6.236  -4.812  21.595  0.00  0.00    +0.046 C 
ATOM      4  O   UNL     1       6.791  -5.806  21.045  0.00  0.00    -0.550 OA
ATOM      5  O   UNL     1       5.671  -3.816  21.056  0.00  0.00    -0.550 OA
ENDBRANCH   2   3
BRANCH   2   6
ATOM      6  C   UNL     1       5.251  -5.903  23.548  0.00  0.00    +0.086 C 
BRANCH   6   7
ATOM      7  N   UNL     1       4.156  -6.063  22.573  0.00  0.00    -0.329 NA
ATOM      8  H   UNL     1       3.285  -6.120  23.096  0.00  0.00    +0.118 HD
ATOM      9  H   UNL     1       4.102  -5.207  22.024  0.00  0.00    +0.118 HD
ENDBRANCH   6   7
ENDBRANCH   2   6
TORSDOF 3
ENDMDL
