MODEL 1
REMARK VINA RESULT:      -7.5      0.000      0.000
REMARK  Name = 
REMARK  5 active torsions:
REMARK  status: ('A' for Active; 'I' for Inactive)
REMARK    1  A    between atoms: N_1  and  S_2
REMARK    2  A    between atoms: S_2  and  C_5
REMARK    3  A    between atoms: C_8  and  C_11
REMARK    4  A    between atoms: N_13  and  C_14
REMARK    5  A    between atoms: C_14  and  C_15
REMARK                            x       y       z     vdW  Elec       q    Type
REMARK                         _______ _______ _______ _____ _____    ______ ____
ROOT
ATOM      1  C   UNL     1       8.405  -4.855  24.316  0.00  0.00    +0.244 C 
ATOM      2  N   UNL     1       8.575  -3.501  24.132  0.00  0.00    -0.307 N 
ATOM      3  H   UNL     1       7.772  -2.888  24.141  0.00  0.00    +0.149 HD
ATOM      4  O   UNL     1       9.331  -5.636  24.496  0.00  0.00    -0.270 OA
ENDROOT
BRANCH   1   8
ATOM      5  C   UNL     1       4.398  -6.349  24.284  0.00  0.00    +0.105 A 
ATOM      6  C   UNL     1       5.020  -6.097  25.511  0.00  0.00    +0.029 A 
ATOM      7  C   UNL     1       6.324  -5.599  25.537  0.00  0.00    +0.015 A 
ATOM      8  C   UNL     1       7.004  -5.353  24.335  0.00  0.00    +0.037 A 
ATOM      9  C   UNL     1       6.353  -5.564  23.110  0.00  0.00    +0.015 A 
ATOM     10  C   UNL     1       5.049  -6.066  23.081  0.00  0.00    +0.029 A 
BRANCH   5  11
ATOM     11  S   UNL     1       2.779  -7.068  24.253  0.00  0.00    +0.056 S 
ATOM     12  O   UNL     1       2.877  -8.469  24.587  0.00  0.00    -0.153 OA
ATOM     13  O   UNL     1       1.857  -6.165  24.903  0.00  0.00    -0.153 OA
BRANCH  11  14
ATOM     14  N   UNL     1       2.421  -7.024  22.613  0.00  0.00    -0.204 NA
ATOM     15  H   UNL     1       2.388  -7.971  22.237  0.00  0.00    +0.144 HD
ATOM     16  H   UNL     1       1.564  -6.492  22.465  0.00  0.00    +0.144 HD
ENDBRANCH  11  14
ENDBRANCH   5  11
ENDBRANCH   1   8
BRANCH   2  17
ATOM     17  C   UNL     1       9.884  -2.887  24.188  0.00  0.00    +0.140 C 
BRANCH  17  18
ATOM     18  C   UNL     1       9.885  -1.534  23.523  0.00  0.00    -0.025 A 
ATOM     19  C   UNL     1       9.464  -1.399  22.188  0.00  0.00    +0.046 A 
ATOM     20  C   UNL     1       9.498  -0.153  21.563  0.00  0.00    +0.162 A 
ATOM     21  F   UNL     1       9.091  -0.049  20.291  0.00  0.00    -0.202 F 
ATOM     22  C   UNL     1       9.950   0.968  22.243  0.00  0.00    +0.193 A 
ATOM     23  F   UNL     1       9.984   2.162  21.634  0.00  0.00    -0.199 F 
ATOM     24  C   UNL     1      10.371   0.842  23.560  0.00  0.00    +0.162 A 
ATOM     25  F   UNL     1      10.818   1.913  24.230  0.00  0.00    -0.202 F 
ATOM     26  C   UNL     1      10.342  -0.396  24.203  0.00  0.00    +0.046 A 
ENDBRANCH  17  18
ENDBRANCH   2  17
TORSDOF 5
ENDMDL
MODEL 2
REMARK VINA RESULT:      -7.4      2.827      3.570
REMARK  Name = 
REMARK  5 active torsions:
REMARK  status: ('A' for Active; 'I' for Inactive)
REMARK    1  A    between atoms: N_1  and  S_2
REMARK    2  A    between atoms: S_2  and  C_5
REMARK    3  A    between atoms: C_8  and  C_11
REMARK    4  A    between atoms: N_13  and  C_14
REMARK    5  A    between atoms: C_14  and  C_15
REMARK                            x       y       z     vdW  Elec       q    Type
REMARK                         _______ _______ _______ _____ _____    ______ ____
ROOT
ATOM      1  C   UNL     1       7.404  -4.291  23.572  0.00  0.00    +0.244 C 
ATOM      2  N   UNL     1       8.085  -3.094  23.606  0.00  0.00    -0.307 N 
ATOM      3  H   UNL     1       8.421  -2.732  24.488  0.00  0.00    +0.149 HD
ATOM      4  O   UNL     1       7.124  -4.882  22.538  0.00  0.00    -0.270 OA
ENDROOT
BRANCH   1   8
ATOM      5  C   UNL     1       6.427  -5.930  27.399  0.00  0.00    +0.105 A 
ATOM      6  C   UNL     1       5.512  -6.062  26.350  0.00  0.00    +0.029 A 
ATOM      7  C   UNL     1       5.823  -5.542  25.091  0.00  0.00    +0.015 A 
ATOM      8  C   UNL     1       7.047  -4.890  24.886  0.00  0.00    +0.037 A 
ATOM      9  C   UNL     1       7.977  -4.805  25.934  0.00  0.00    +0.015 A 
ATOM     10  C   UNL     1       7.668  -5.322  27.195  0.00  0.00    +0.029 A 
BRANCH   5  11
ATOM     11  S   UNL     1       5.993  -6.508  29.018  0.00  0.00    +0.056 S 
ATOM     12  O   UNL     1       6.892  -7.572  29.397  0.00  0.00    -0.153 OA
ATOM     13  O   UNL     1       5.724  -5.366  29.862  0.00  0.00    -0.153 OA
BRANCH  11  14
ATOM     14  N   UNL     1       4.517  -7.251  28.727  0.00  0.00    -0.204 NA
ATOM     15  H   UNL     1       4.034  -6.784  27.960  0.00  0.00    +0.144 HD
ATOM     16  H   UNL     1       4.661  -8.250  28.574  0.00  0.00    +0.144 HD
ENDBRANCH  11  14
ENDBRANCH   5  11
ENDBRANCH   1   8
BRANCH   2  17
ATOM     17  C   UNL     1       8.567  -2.462  22.398  0.00  0.00    +0.140 C 
BRANCH  17  18
ATOM     18  C   UNL     1       9.210  -1.131  22.693  0.00  0.00    -0.025 A 
ATOM     19  C   UNL     1       9.960  -0.950  23.868  0.00  0.00    +0.046 A 
ATOM     20  C   UNL     1      10.525   0.292  24.157  0.00  0.00    +0.162 A 
ATOM     21  F   UNL     1      11.237   0.440  25.282  0.00  0.00    -0.202 F 
ATOM     22  C   UNL     1      10.354   1.365  23.295  0.00  0.00    +0.193 A 
ATOM     23  F   UNL     1      10.897   2.557  23.581  0.00  0.00    -0.199 F 
ATOM     24  C   UNL     1       9.611   1.195  22.135  0.00  0.00    +0.162 A 
ATOM     25  F   UNL     1       9.428   2.224  21.295  0.00  0.00    -0.202 F 
ATOM     26  C   UNL     1       9.040  -0.040  21.827  0.00  0.00    +0.046 A 
ENDBRANCH  17  18
ENDBRANCH   2  17
TORSDOF 5
ENDMDL
MODEL 3
REMARK VINA RESULT:      -7.4      0.683      2.158
REMARK  Name = 
REMARK  5 active torsions:
REMARK  status: ('A' for Active; 'I' for Inactive)
REMARK    1  A    between atoms: N_1  and  S_2
REMARK    2  A    between atoms: S_2  and  C_5
REMARK    3  A    between atoms: C_8  and  C_11
REMARK    4  A    between atoms: N_13  and  C_14
REMARK    5  A    between atoms: C_14  and  C_15
REMARK                            x       y       z     vdW  Elec       q    Type
REMARK                         _______ _______ _______ _____ _____    ______ ____
ROOT
ATOM      1  C   UNL     1       8.259  -4.803  24.158  0.00  0.00    +0.244 C 
ATOM      2  N   UNL     1       8.465  -3.458  23.941  0.00  0.00    -0.307 N 
ATOM      3  H   UNL     1       7.673  -2.839  23.838  0.00  0.00    +0.149 HD
ATOM      4  O   UNL     1       9.150  -5.584  24.469  0.00  0.00    -0.270 OA
ENDROOT
BRANCH   1   8
ATOM      5  C   UNL     1       4.205  -6.143  23.928  0.00  0.00    +0.105 A 
ATOM      6  C   UNL     1       4.888  -5.836  22.746  0.00  0.00    +0.029 A 
ATOM      7  C   UNL     1       6.216  -5.408  22.805  0.00  0.00    +0.015 A 
ATOM      8  C   UNL     1       6.858  -5.288  24.046  0.00  0.00    +0.037 A 
ATOM      9  C   UNL     1       6.178  -5.643  25.221  0.00  0.00    +0.015 A 
ATOM     10  C   UNL     1       4.848  -6.068  25.165  0.00  0.00    +0.029 A 
BRANCH   5  11
ATOM     11  S   UNL     1       2.493  -6.595  23.858  0.00  0.00    +0.056 S 
ATOM     12  O   UNL     1       1.882  -6.335  25.140  0.00  0.00    -0.153 OA
ATOM     13  O   UNL     1       1.938  -6.123  22.610  0.00  0.00    -0.153 OA
BRANCH  11  14
ATOM     14  N   UNL     1       2.590  -8.267  23.740  0.00  0.00    -0.204 NA
ATOM     15  H   UNL     1       2.728  -8.676  24.664  0.00  0.00    +0.144 HD
ATOM     16  H   UNL     1       1.769  -8.623  23.251  0.00  0.00    +0.144 HD
ENDBRANCH  11  14
ENDBRANCH   5  11
ENDBRANCH   1   8
BRANCH   2  17
ATOM     17  C   UNL     1       9.768  -2.854  24.112  0.00  0.00    +0.140 C 
BRANCH  17  18
ATOM     18  C   UNL     1       9.821  -1.479  23.498  0.00  0.00    -0.025 A 
ATOM     19  C   UNL     1      10.224  -0.373  24.267  0.00  0.00    +0.046 A 
ATOM     20  C   UNL     1      10.239   0.905  23.707  0.00  0.00    +0.162 A 
ATOM     21  F   UNL     1      10.627   1.943  24.459  0.00  0.00    -0.202 F 
ATOM     22  C   UNL     1       9.854   1.104  22.390  0.00  0.00    +0.193 A 
ATOM     23  F   UNL     1       9.867   2.336  21.860  0.00  0.00    -0.199 F 
ATOM     24  C   UNL     1       9.451   0.019  21.626  0.00  0.00    +0.162 A 
ATOM     25  F   UNL     1       9.068   0.194  20.354  0.00  0.00    -0.202 F 
ATOM     26  C   UNL     1       9.432  -1.267  22.167  0.00  0.00    +0.046 A 
ENDBRANCH  17  18
ENDBRANCH   2  17
TORSDOF 5
ENDMDL
MODEL 4
REMARK VINA RESULT:      -7.3      2.924      3.976
REMARK  Name = 
REMARK  5 active torsions:
REMARK  status: ('A' for Active; 'I' for Inactive)
REMARK    1  A    between atoms: N_1  and  S_2
REMARK    2  A    between atoms: S_2  and  C_5
REMARK    3  A    between atoms: C_8  and  C_11
REMARK    4  A    between atoms: N_13  and  C_14
REMARK    5  A    between atoms: C_14  and  C_15
REMARK                            x       y       z     vdW  Elec       q    Type
REMARK                         _______ _______ _______ _____ _____    ______ ____
ROOT
ATOM      1  C   UNL     1       9.386  -2.409  23.205  0.00  0.00    +0.244 C 
ATOM      2  N   UNL     1       8.651  -1.652  22.318  0.00  0.00    -0.307 N 
ATOM      3  H   UNL     1       7.648  -1.589  22.424  0.00  0.00    +0.149 HD
ATOM      4  O   UNL     1      10.609  -2.395  23.256  0.00  0.00    -0.270 OA
ENDROOT
BRANCH   1   8
ATOM      5  C   UNL     1       7.133  -4.707  26.021  0.00  0.00    +0.105 A 
ATOM      6  C   UNL     1       7.248  -5.168  24.705  0.00  0.00    +0.029 A 
ATOM      7  C   UNL     1       7.990  -4.433  23.777  0.00  0.00    +0.015 A 
ATOM      8  C   UNL     1       8.615  -3.240  24.168  0.00  0.00    +0.037 A 
ATOM      9  C   UNL     1       8.532  -2.813  25.501  0.00  0.00    +0.015 A 
ATOM     10  C   UNL     1       7.787  -3.544  26.431  0.00  0.00    +0.029 A 
BRANCH   5  11
ATOM     11  S   UNL     1       6.116  -5.591  27.172  0.00  0.00    +0.056 S 
ATOM     12  O   UNL     1       5.374  -4.644  27.970  0.00  0.00    -0.153 OA
ATOM     13  O   UNL     1       5.495  -6.701  26.486  0.00  0.00    -0.153 OA
BRANCH  11  14
ATOM     14  N   UNL     1       7.265  -6.244  28.206  0.00  0.00    -0.204 NA
ATOM     15  H   UNL     1       7.063  -7.229  28.376  0.00  0.00    +0.144 HD
ATOM     16  H   UNL     1       8.198  -6.074  27.832  0.00  0.00    +0.144 HD
ENDBRANCH  11  14
ENDBRANCH   5  11
ENDBRANCH   1   8
BRANCH   2  17
ATOM     17  C   UNL     1       9.285  -0.735  21.397  0.00  0.00    +0.140 C 
BRANCH  17  18
ATOM     18  C   UNL     1       9.199   0.686  21.891  0.00  0.00    -0.025 A 
ATOM     19  C   UNL     1      10.235   1.232  22.669  0.00  0.00    +0.046 A 
ATOM     20  C   UNL     1      10.138   2.536  23.154  0.00  0.00    +0.162 A 
ATOM     21  F   UNL     1      11.138   3.035  23.893  0.00  0.00    -0.202 F 
ATOM     22  C   UNL     1       9.020   3.311  22.882  0.00  0.00    +0.193 A 
ATOM     23  F   UNL     1       8.932   4.563  23.355  0.00  0.00    -0.199 F 
ATOM     24  C   UNL     1       7.991   2.778  22.118  0.00  0.00    +0.162 A 
ATOM     25  F   UNL     1       6.900   3.509  21.852  0.00  0.00    -0.202 F 
ATOM     26  C   UNL     1       8.071   1.477  21.621  0.00  0.00    +0.046 A 
ENDBRANCH  17  18
ENDBRANCH   2  17
TORSDOF 5
ENDMDL
MODEL 5
REMARK VINA RESULT:      -7.2      2.875      3.584
REMARK  Name = 
REMARK  5 active torsions:
REMARK  status: ('A' for Active; 'I' for Inactive)
REMARK    1  A    between atoms: N_1  and  S_2
REMARK    2  A    between atoms: S_2  and  C_5
REMARK    3  A    between atoms: C_8  and  C_11
REMARK    4  A    between atoms: N_13  and  C_14
REMARK    5  A    between atoms: C_14  and  C_15
REMARK                            x       y       z     vdW  Elec       q    Type
REMARK                         _______ _______ _______ _____ _____    ______ ____
ROOT
ATOM      1  C   UNL     1       9.236  -2.595  23.318  0.00  0.00    +0.244 C 
ATOM      2  N   UNL     1       8.542  -1.842  22.396  0.00  0.00    -0.307 N 
ATOM      3  H   UNL     1       7.537  -1.769  22.462  0.00  0.00    +0.149 HD
ATOM      4  O   UNL     1      10.457  -2.591  23.415  0.00  0.00    -0.270 OA
ENDROOT
BRANCH   1   8
ATOM      5  C   UNL     1       6.950  -4.890  26.109  0.00  0.00    +0.105 A 
ATOM      6  C   UNL     1       6.332  -4.424  24.945  0.00  0.00    +0.029 A 
ATOM      7  C   UNL     1       7.069  -3.683  24.018  0.00  0.00    +0.015 A 
ATOM      8  C   UNL     1       8.423  -3.409  24.259  0.00  0.00    +0.037 A 
ATOM      9  C   UNL     1       9.044  -3.921  25.408  0.00  0.00    +0.015 A 
ATOM     10  C   UNL     1       8.309  -4.660  26.339  0.00  0.00    +0.029 A 
BRANCH   5  11
ATOM     11  S   UNL     1       5.992  -5.749  27.327  0.00  0.00    +0.056 S 
ATOM     12  O   UNL     1       5.286  -4.787  28.139  0.00  0.00    -0.153 OA
ATOM     13  O   UNL     1       5.342  -6.876  26.696  0.00  0.00    -0.153 OA
BRANCH  11  14
ATOM     14  N   UNL     1       7.191  -6.377  28.320  0.00  0.00    -0.204 NA
ATOM     15  H   UNL     1       6.977  -7.345  28.558  0.00  0.00    +0.144 HD
ATOM     16  H   UNL     1       8.101  -6.254  27.877  0.00  0.00    +0.144 HD
ENDBRANCH  11  14
ENDBRANCH   5  11
ENDBRANCH   1   8
BRANCH   2  17
ATOM     17  C   UNL     1       9.219  -0.940  21.490  0.00  0.00    +0.140 C 
BRANCH  17  18
ATOM     18  C   UNL     1       9.185   0.478  21.999  0.00  0.00    -0.025 A 
ATOM     19  C   UNL     1       8.099   1.316  21.692  0.00  0.00    +0.046 A 
ATOM     20  C   UNL     1       8.085   2.639  22.135  0.00  0.00    +0.162 A 
ATOM     21  F   UNL     1       7.039   3.418  21.830  0.00  0.00    -0.202 F 
ATOM     22  C   UNL     1       9.139   3.147  22.879  0.00  0.00    +0.193 A 
ATOM     23  F   UNL     1       9.120   4.421  23.297  0.00  0.00    -0.199 F 
ATOM     24  C   UNL     1      10.216   2.327  23.183  0.00  0.00    +0.162 A 
ATOM     25  F   UNL     1      11.247   2.804  23.893  0.00  0.00    -0.202 F 
ATOM     26  C   UNL     1      10.248   1.000  22.751  0.00  0.00    +0.046 A 
ENDBRANCH  17  18
ENDBRANCH   2  17
TORSDOF 5
ENDMDL
MODEL 6
REMARK VINA RESULT:      -7.2      5.403      8.595
REMARK  Name = 
REMARK  5 active torsions:
REMARK  status: ('A' for Active; 'I' for Inactive)
REMARK    1  A    between atoms: N_1  and  S_2
REMARK    2  A    between atoms: S_2  and  C_5
REMARK    3  A    between atoms: C_8  and  C_11
REMARK    4  A    between atoms: N_13  and  C_14
REMARK    5  A    between atoms: C_14  and  C_15
REMARK                            x       y       z     vdW  Elec       q    Type
REMARK                         _______ _______ _______ _____ _____    ______ ____
ROOT
ATOM      1  C   UNL     1       9.844  -1.790  23.518  0.00  0.00    +0.244 C 
ATOM      2  N   UNL     1       9.089  -2.507  24.420  0.00  0.00    -0.307 N 
ATOM      3  H   UNL     1       8.398  -2.032  24.985  0.00  0.00    +0.149 HD
ATOM      4  O   UNL     1      10.568  -2.307  22.678  0.00  0.00    -0.270 OA
ENDROOT
BRANCH   1   8
ATOM      5  C   UNL     1       9.494   2.465  23.766  0.00  0.00    +0.105 A 
ATOM      6  C   UNL     1       9.957   1.889  22.579  0.00  0.00    +0.029 A 
ATOM      7  C   UNL     1      10.066   0.501  22.479  0.00  0.00    +0.015 A 
ATOM      8  C   UNL     1       9.711  -0.309  23.568  0.00  0.00    +0.037 A 
ATOM      9  C   UNL     1       9.203   0.277  24.737  0.00  0.00    +0.015 A 
ATOM     10  C   UNL     1       9.096   1.667  24.841  0.00  0.00    +0.029 A 
BRANCH   5  11
ATOM     11  S   UNL     1       9.445   4.230  23.924  0.00  0.00    +0.056 S 
ATOM     12  O   UNL     1       8.727   4.578  25.126  0.00  0.00    -0.153 OA
ATOM     13  O   UNL     1      10.750   4.761  23.603  0.00  0.00    -0.153 OA
BRANCH  11  14
ATOM     14  N   UNL     1       8.427   4.654  22.658  0.00  0.00    -0.204 NA
ATOM     15  H   UNL     1       8.497   5.654  22.471  0.00  0.00    +0.144 HD
ATOM     16  H   UNL     1       8.628   4.069  21.847  0.00  0.00    +0.144 HD
ENDBRANCH  11  14
ENDBRANCH   5  11
ENDBRANCH   1   8
BRANCH   2  17
ATOM     17  C   UNL     1       9.063  -3.953  24.406  0.00  0.00    +0.140 C 
BRANCH  17  18
ATOM     18  C   UNL     1       7.751  -4.473  23.878  0.00  0.00    -0.025 A 
ATOM     19  C   UNL     1       6.763  -4.937  24.763  0.00  0.00    +0.046 A 
ATOM     20  C   UNL     1       5.563  -5.451  24.272  0.00  0.00    +0.162 A 
ATOM     21  F   UNL     1       4.636  -5.886  25.135  0.00  0.00    -0.202 F 
ATOM     22  C   UNL     1       5.329  -5.516  22.906  0.00  0.00    +0.193 A 
ATOM     23  F   UNL     1       4.174  -6.016  22.441  0.00  0.00    -0.199 F 
ATOM     24  C   UNL     1       6.301  -5.064  22.025  0.00  0.00    +0.162 A 
ATOM     25  F   UNL     1       6.095  -5.128  20.703  0.00  0.00    -0.202 F 
ATOM     26  C   UNL     1       7.506  -4.545  22.498  0.00  0.00    +0.046 A 
ENDBRANCH  17  18
ENDBRANCH   2  17
TORSDOF 5
ENDMDL
MODEL 7
REMARK VINA RESULT:      -7.2      2.049      2.574
REMARK  Name = 
REMARK  5 active torsions:
REMARK  status: ('A' for Active; 'I' for Inactive)
REMARK    1  A    between atoms: N_1  and  S_2
REMARK    2  A    between atoms: S_2  and  C_5
REMARK    3  A    between atoms: C_8  and  C_11
REMARK    4  A    between atoms: N_13  and  C_14
REMARK    5  A    between atoms: C_14  and  C_15
REMARK                            x       y       z     vdW  Elec       q    Type
REMARK                         _______ _______ _______ _____ _____    ______ ____
ROOT
ATOM      1  C   UNL     1       9.018  -2.702  23.153  0.00  0.00    +0.244 C 
ATOM      2  N   UNL     1       8.640  -1.941  22.069  0.00  0.00    -0.307 N 
ATOM      3  H   UNL     1       7.664  -1.885  21.811  0.00  0.00    +0.149 HD
ATOM      4  O   UNL     1      10.143  -2.681  23.636  0.00  0.00    -0.270 OA
ENDROOT
BRANCH   1   8
ATOM      5  C   UNL     1       5.942  -5.150  24.835  0.00  0.00    +0.105 A 
ATOM      6  C   UNL     1       7.225  -5.194  25.390  0.00  0.00    +0.029 A 
ATOM      7  C   UNL     1       8.237  -4.392  24.858  0.00  0.00    +0.015 A 
ATOM      8  C   UNL     1       7.963  -3.547  23.773  0.00  0.00    +0.037 A 
ATOM      9  C   UNL     1       6.661  -3.477  23.255  0.00  0.00    +0.015 A 
ATOM     10  C   UNL     1       5.647  -4.281  23.783  0.00  0.00    +0.029 A 
BRANCH   5  11
ATOM     11  S   UNL     1       4.684  -6.237  25.450  0.00  0.00    +0.056 S 
ATOM     12  O   UNL     1       5.219  -7.009  26.546  0.00  0.00    -0.153 OA
ATOM     13  O   UNL     1       3.440  -5.506  25.534  0.00  0.00    -0.153 OA
BRANCH  11  14
ATOM     14  N   UNL     1       4.521  -7.320  24.178  0.00  0.00    -0.204 NA
ATOM     15  H   UNL     1       5.176  -8.093  24.291  0.00  0.00    +0.144 HD
ATOM     16  H   UNL     1       3.547  -7.613  24.100  0.00  0.00    +0.144 HD
ENDBRANCH  11  14
ENDBRANCH   5  11
ENDBRANCH   1   8
BRANCH   2  17
ATOM     17  C   UNL     1       9.552  -1.011  21.441  0.00  0.00    +0.140 C 
BRANCH  17  18
ATOM     18  C   UNL     1       9.344   0.392  21.951  0.00  0.00    -0.025 A 
ATOM     19  C   UNL     1       8.195   1.117  21.587  0.00  0.00    +0.046 A 
ATOM     20  C   UNL     1       8.020   2.427  22.032  0.00  0.00    +0.162 A 
ATOM     21  F   UNL     1       6.918   3.097  21.672  0.00  0.00    -0.202 F 
ATOM     22  C   UNL     1       8.975   3.035  22.834  0.00  0.00    +0.193 A 
ATOM     23  F   UNL     1       8.801   4.297  23.254  0.00  0.00    -0.199 F 
ATOM     24  C   UNL     1      10.112   2.328  23.194  0.00  0.00    +0.162 A 
ATOM     25  F   UNL     1      11.049   2.902  23.961  0.00  0.00    -0.202 F 
ATOM     26  C   UNL     1      10.304   1.015  22.761  0.00  0.00    +0.046 A 
ENDBRANCH  17  18
ENDBRANCH   2  17
TORSDOF 5
ENDMDL
MODEL 8
REMARK VINA RESULT:      -7.1      2.282      3.250
REMARK  Name = 
REMARK  5 active torsions:
REMARK  status: ('A' for Active; 'I' for Inactive)
REMARK    1  A    between atoms: N_1  and  S_2
REMARK    2  A    between atoms: S_2  and  C_5
REMARK    3  A    between atoms: C_8  and  C_11
REMARK    4  A    between atoms: N_13  and  C_14
REMARK    5  A    between atoms: C_14  and  C_15
REMARK                            x       y       z     vdW  Elec       q    Type
REMARK                         _______ _______ _______ _____ _____    ______ ____
ROOT
ATOM      1  C   UNL     1       8.778  -2.271  22.946  0.00  0.00    +0.244 C 
ATOM      2  N   UNL     1       8.674  -1.438  21.854  0.00  0.00    -0.307 N 
ATOM      3  H   UNL     1       7.790  -1.347  21.374  0.00  0.00    +0.149 HD
ATOM      4  O   UNL     1       9.754  -2.302  23.685  0.00  0.00    -0.270 OA
ENDROOT
BRANCH   1   8
ATOM      5  C   UNL     1       5.343  -4.702  23.706  0.00  0.00    +0.105 A 
ATOM      6  C   UNL     1       6.617  -5.254  23.875  0.00  0.00    +0.029 A 
ATOM      7  C   UNL     1       7.748  -4.469  23.641  0.00  0.00    +0.015 A 
ATOM      8  C   UNL     1       7.602  -3.133  23.239  0.00  0.00    +0.037 A 
ATOM      9  C   UNL     1       6.320  -2.577  23.119  0.00  0.00    +0.015 A 
ATOM     10  C   UNL     1       5.186  -3.361  23.349  0.00  0.00    +0.029 A 
BRANCH   5  11
ATOM     11  S   UNL     1       3.910  -5.725  23.912  0.00  0.00    +0.056 S 
ATOM     12  O   UNL     1       3.451  -5.626  25.277  0.00  0.00    -0.153 OA
ATOM     13  O   UNL     1       3.041  -5.542  22.772  0.00  0.00    -0.153 OA
BRANCH  11  14
ATOM     14  N   UNL     1       4.570  -7.262  23.773  0.00  0.00    -0.204 NA
ATOM     15  H   UNL     1       4.944  -7.566  24.672  0.00  0.00    +0.144 HD
ATOM     16  H   UNL     1       3.876  -7.898  23.380  0.00  0.00    +0.144 HD
ENDBRANCH  11  14
ENDBRANCH   5  11
ENDBRANCH   1   8
BRANCH   2  17
ATOM     17  C   UNL     1       9.714  -0.488  21.524  0.00  0.00    +0.140 C 
BRANCH  17  18
ATOM     18  C   UNL     1       9.339   0.907  21.950  0.00  0.00    -0.025 A 
ATOM     19  C   UNL     1      10.199   1.654  22.774  0.00  0.00    +0.046 A 
ATOM     20  C   UNL     1       9.835   2.932  23.197  0.00  0.00    +0.162 A 
ATOM     21  F   UNL     1      10.672   3.624  23.981  0.00  0.00    -0.202 F 
ATOM     22  C   UNL     1       8.621   3.484  22.816  0.00  0.00    +0.193 A 
ATOM     23  F   UNL     1       8.276   4.712  23.230  0.00  0.00    -0.199 F 
ATOM     24  C   UNL     1       7.764   2.752  22.006  0.00  0.00    +0.162 A 
ATOM     25  F   UNL     1       6.583   3.266  21.636  0.00  0.00    -0.202 F 
ATOM     26  C   UNL     1       8.112   1.473  21.571  0.00  0.00    +0.046 A 
ENDBRANCH  17  18
ENDBRANCH   2  17
TORSDOF 5
ENDMDL
MODEL 9
REMARK VINA RESULT:      -7.1      5.221      8.508
REMARK  Name = 
REMARK  5 active torsions:
REMARK  status: ('A' for Active; 'I' for Inactive)
REMARK    1  A    between atoms: N_1  and  S_2
REMARK    2  A    between atoms: S_2  and  C_5
REMARK    3  A    between atoms: C_8  and  C_11
REMARK    4  A    between atoms: N_13  and  C_14
REMARK    5  A    between atoms: C_14  and  C_15
REMARK                            x       y       z     vdW  Elec       q    Type
REMARK                         _______ _______ _______ _____ _____    ______ ____
ROOT
ATOM      1  C   UNL     1       9.220  -3.359  24.921  0.00  0.00    +0.244 C 
ATOM      2  N   UNL     1       8.152  -3.618  25.751  0.00  0.00    -0.307 N 
ATOM      3  H   UNL     1       7.456  -2.902  25.912  0.00  0.00    +0.149 HD
ATOM      4  O   UNL     1      10.003  -4.218  24.536  0.00  0.00    -0.270 OA
ENDROOT
BRANCH   1   8
ATOM      5  C   UNL     1       9.693   0.704  23.674  0.00  0.00    +0.105 A 
ATOM      6  C   UNL     1      10.029  -0.323  22.786  0.00  0.00    +0.029 A 
ATOM      7  C   UNL     1       9.869  -1.655  23.175  0.00  0.00    +0.015 A 
ATOM      8  C   UNL     1       9.374  -1.956  24.452  0.00  0.00    +0.037 A 
ATOM      9  C   UNL     1       8.997  -0.917  25.317  0.00  0.00    +0.015 A 
ATOM     10  C   UNL     1       9.158   0.416  24.932  0.00  0.00    +0.029 A 
BRANCH   5  11
ATOM     11  S   UNL     1       9.984   2.391  23.214  0.00  0.00    +0.056 S 
ATOM     12  O   UNL     1       8.781   3.157  23.439  0.00  0.00    -0.153 OA
ATOM     13  O   UNL     1      11.279   2.792  23.714  0.00  0.00    -0.153 OA
BRANCH  11  14
ATOM     14  N   UNL     1      10.129   2.266  21.546  0.00  0.00    -0.204 NA
ATOM     15  H   UNL     1      11.109   2.333  21.274  0.00  0.00    +0.144 HD
ATOM     16  H   UNL     1       9.671   1.413  21.226  0.00  0.00    +0.144 HD
ENDBRANCH  11  14
ENDBRANCH   5  11
ENDBRANCH   1   8
BRANCH   2  17
ATOM     17  C   UNL     1       7.845  -4.959  26.196  0.00  0.00    +0.140 C 
BRANCH  17  18
ATOM     18  C   UNL     1       6.614  -5.497  25.513  0.00  0.00    -0.025 A 
ATOM     19  C   UNL     1       5.623  -6.161  26.257  0.00  0.00    +0.046 A 
ATOM     20  C   UNL     1       4.500  -6.688  25.619  0.00  0.00    +0.162 A 
ATOM     21  F   UNL     1       3.569  -7.316  26.349  0.00  0.00    -0.202 F 
ATOM     22  C   UNL     1       4.347  -6.570  24.245  0.00  0.00    +0.193 A 
ATOM     23  F   UNL     1       3.266  -7.084  23.638  0.00  0.00    -0.199 F 
ATOM     24  C   UNL     1       5.322  -5.920  23.504  0.00  0.00    +0.162 A 
ATOM     25  F   UNL     1       5.194  -5.804  22.175  0.00  0.00    -0.202 F 
ATOM     26  C   UNL     1       6.451  -5.383  24.125  0.00  0.00    +0.046 A 
ENDBRANCH  17  18
ENDBRANCH   2  17
TORSDOF 5
ENDMDL
