MODEL 1
REMARK VINA RESULT:      -6.2      0.000      0.000
REMARK  Name = 
REMARK  20 active torsions:
REMARK  status: ('A' for Active; 'I' for Inactive)
REMARK    1  A    between atoms: C_1  and  O_2
REMARK    2  A    between atoms: O_2  and  C_3
REMARK    3  A    between atoms: C_3  and  C_5
REMARK    4  A    between atoms: C_5  and  C_6
REMARK    5  A    between atoms: C_6  and  C_7
REMARK    6  A    between atoms: C_24  and  C_25
REMARK    7  A    between atoms: C_25  and  C_26
REMARK    8  A    between atoms: C_26  and  C_27
REMARK    9  A    between atoms: C_27  and  O_28
REMARK   10  A    between atoms: C_30  and  C_31
REMARK   11  A    between atoms: C_32  and  C_33
REMARK   12  A    between atoms: C_35  and  C_36
REMARK   13  A    between atoms: C_40  and  C_49
REMARK   14  A    between atoms: C_41  and  C_43
REMARK   15  A    between atoms: C_43  and  O_45
REMARK   16  A    between atoms: O_45  and  C_46
REMARK   17  A    between atoms: C_47  and  C_48
REMARK   18  A    between atoms: C_49  and  O_51
REMARK   19  A    between atoms: O_51  and  C_52
REMARK   20  A    between atoms: C_53  and  C_54
REMARK                            x       y       z     vdW  Elec       q    Type
REMARK                         _______ _______ _______ _____ _____    ______ ____
ROOT
ATOM      1  C   UNL     1       4.873   0.529  28.543  0.00  0.00    -0.019 A 
ATOM      2  C   UNL     1       4.078  -0.736  28.795  0.00  0.00    -0.022 A 
ATOM      3  C   UNL     1       4.002  -1.401  30.148  0.00  0.00    +0.046 C 
ATOM      4  C   UNL     1       3.500  -1.236  27.614  0.00  0.00    +0.045 A 
ATOM      5  C   UNL     1       2.586  -2.556  27.382  0.00  0.00    +0.050 C 
ATOM      6  C   UNL     1       2.661  -3.438  26.311  0.00  0.00    +0.055 C 
ATOM      7  C   UNL     1       1.955  -4.865  25.526  0.00  0.00    +0.054 C 
ATOM      8  C   UNL     1       0.443  -4.551  25.317  0.00  0.00    +0.024 C 
ATOM      9  C   UNL     1       2.831  -4.759  24.241  0.00  0.00    -0.009 C 
ATOM     10  C   UNL     1       3.066  -5.609  23.243  0.00  0.00    +0.007 C 
ATOM     11  C   UNL     1       2.504  -6.912  23.229  0.00  0.00    +0.012 C 
ATOM     12  C   UNL     1       2.012  -7.424  24.370  0.00  0.00    +0.051 C 
ATOM     13  C   UNL     1       3.753  -3.642  24.428  0.00  0.00    +0.070 C 
ATOM     14  C   UNL     1       4.861  -3.285  23.559  0.00  0.00    +0.054 C 
ATOM     15  C   UNL     1       6.015  -2.814  24.064  0.00  0.00    +0.045 A 
ATOM     16  C   UNL     1       6.575  -2.693  25.440  0.00  0.00    -0.018 A 
ATOM     17  C   UNL     1       6.053  -3.214  26.735  0.00  0.00    +0.046 C 
ATOM     18  C   UNL     1       7.635  -1.848  25.424  0.00  0.00    +0.003 A 
ATOM     19  C   UNL     1       7.898  -1.539  24.005  0.00  0.00    +0.049 A 
ATOM     20  C   UNL     1       8.529  -0.408  23.685  0.00  0.00    +0.054 C 
ATOM     21  C   UNL     1       7.665   0.690  24.209  0.00  0.00    +0.070 C 
ATOM     22  C   UNL     1       8.335   1.990  24.602  0.00  0.00    -0.020 C 
ATOM     23  C   UNL     1       9.784   2.326  24.425  0.00  0.00    +0.046 C 
ATOM     24  C   UNL     1       7.223   2.663  24.239  0.00  0.00    -0.017 C 
ATOM     25  C   UNL     1       6.099   1.799  24.901  0.00  0.00    +0.070 C 
ATOM     26  C   UNL     1       5.594   1.818  26.213  0.00  0.00    +0.054 C 
ATOM     27  N   UNL     1       6.347   0.612  24.261  0.00  0.00    -0.247 NA
ATOM     28  N   UNL     1       6.896  -2.124  23.246  0.00  0.00    -0.354 N 
ATOM     29  H   UNL     1       6.436  -1.490  22.589  0.00  0.00    +0.166 HD
ATOM     30  C   UNL     1       1.878  -6.584  25.672  0.00  0.00    +0.151 C 
ATOM     31  N   UNL     1       3.561  -2.909  25.448  0.00  0.00    -0.251 NA
ATOM     32  N   UNL     1       4.060  -0.341  26.613  0.00  0.00    -0.355 N 
ATOM     33  H   UNL     1       3.935  -0.505  25.628  0.00  0.00    +0.166 HD
ATOM     34  C   UNL     1       4.904   0.739  27.122  0.00  0.00    +0.045 A 
ENDROOT
BRANCH  12  35
ATOM     35  C   UNL     1       1.526  -8.827  24.067  0.00  0.00    +0.336 C 
ATOM     36  O   UNL     1       0.668  -9.099  23.199  0.00  0.00    -0.245 OA
BRANCH  35  37
ATOM     37  O   UNL     1       2.032  -9.782  24.899  0.00  0.00    -0.465 OA
ATOM     38  C   UNL     1       0.992 -10.517  25.604  0.00  0.00    +0.280 C 
ENDBRANCH  35  37
ENDBRANCH  12  35
BRANCH  18  39
ATOM     39  C   UNL     1       7.977  -1.066  26.627  0.00  0.00    +0.002 C 
ATOM     40  C   UNL     1       9.166  -0.720  27.130  0.00  0.00    +0.009 C 
ENDBRANCH  18  39
BRANCH  30  41
ATOM     41  C   UNL     1       2.602  -7.038  26.905  0.00  0.00    +0.316 C 
ATOM     42  O   UNL     1       1.979  -7.303  27.933  0.00  0.00    -0.250 OA
BRANCH  41  43
ATOM     43  O   UNL     1       3.942  -7.149  26.763  0.00  0.00    -0.467 OA
ATOM     44  C   UNL     1       4.700  -6.526  27.809  0.00  0.00    +0.280 C 
ENDBRANCH  41  43
ENDBRANCH  30  41
BRANCH   1  45
ATOM     45  C   UNL     1       5.506   1.168  29.831  0.00  0.00    +0.048 C 
BRANCH  45  46
ATOM     46  C   UNL     1       5.516   2.595  30.361  0.00  0.00    +0.125 C 
BRANCH  46  47
ATOM     47  C   UNL     1       6.287   3.668  29.643  0.00  0.00    +0.307 C 
ATOM     48  O   UNL     1       7.391   3.461  29.146  0.00  0.00    -0.251 OA
BRANCH  47  50
ATOM     49  C   UNL     1       4.730   5.122  28.698  0.00  0.00    +0.280 C 
ATOM     50  O   UNL     1       5.699   4.888  29.724  0.00  0.00    -0.468 OA
ENDBRANCH  47  50
ENDBRANCH  46  47
ENDBRANCH  45  46
ENDBRANCH   1  45
BRANCH  24  51
ATOM     51  C   UNL     1       7.385   3.053  22.630  0.00  0.00    +0.049 C 
BRANCH  51  52
ATOM     52  C   UNL     1       6.810   4.406  21.931  0.00  0.00    +0.125 C 
BRANCH  52  53
ATOM     53  C   UNL     1       7.369   5.810  22.156  0.00  0.00    +0.305 C 
ATOM     54  O   UNL     1       8.052   6.104  23.143  0.00  0.00    -0.251 OA
BRANCH  53  55
ATOM     55  O   UNL     1       7.090   6.723  21.203  0.00  0.00    -0.481 OA
ATOM     56  H   UNL     1       7.573   7.576  21.310  0.00  0.00    +0.295 HD
ENDBRANCH  53  55
ENDBRANCH  52  53
ENDBRANCH  51  52
ENDBRANCH  24  51
TORSDOF 13
ENDMDL
MODEL 2
REMARK VINA RESULT:      -6.0      2.540      6.249
REMARK  Name = 
REMARK  20 active torsions:
REMARK  status: ('A' for Active; 'I' for Inactive)
REMARK    1  A    between atoms: C_1  and  O_2
REMARK    2  A    between atoms: O_2  and  C_3
REMARK    3  A    between atoms: C_3  and  C_5
REMARK    4  A    between atoms: C_5  and  C_6
REMARK    5  A    between atoms: C_6  and  C_7
REMARK    6  A    between atoms: C_24  and  C_25
REMARK    7  A    between atoms: C_25  and  C_26
REMARK    8  A    between atoms: C_26  and  C_27
REMARK    9  A    between atoms: C_27  and  O_28
REMARK   10  A    between atoms: C_30  and  C_31
REMARK   11  A    between atoms: C_32  and  C_33
REMARK   12  A    between atoms: C_35  and  C_36
REMARK   13  A    between atoms: C_40  and  C_49
REMARK   14  A    between atoms: C_41  and  C_43
REMARK   15  A    between atoms: C_43  and  O_45
REMARK   16  A    between atoms: O_45  and  C_46
REMARK   17  A    between atoms: C_47  and  C_48
REMARK   18  A    between atoms: C_49  and  O_51
REMARK   19  A    between atoms: O_51  and  C_52
REMARK   20  A    between atoms: C_53  and  C_54
REMARK                            x       y       z     vdW  Elec       q    Type
REMARK                         _______ _______ _______ _____ _____    ______ ____
ROOT
ATOM      1  C   UNL     1      10.091   2.537  23.810  0.00  0.00    -0.019 A 
ATOM      2  C   UNL     1      10.121   1.035  23.612  0.00  0.00    -0.022 A 
ATOM      3  C   UNL     1      10.730   0.381  22.395  0.00  0.00    +0.046 C 
ATOM      4  C   UNL     1       9.454   0.355  24.646  0.00  0.00    +0.045 A 
ATOM      5  C   UNL     1       9.213  -1.234  24.860  0.00  0.00    +0.050 C 
ATOM      6  C   UNL     1       8.051  -1.842  25.318  0.00  0.00    +0.055 C 
ATOM      7  C   UNL     1       7.275  -3.366  25.798  0.00  0.00    +0.054 C 
ATOM      8  C   UNL     1       8.181  -3.993  26.900  0.00  0.00    +0.024 C 
ATOM      9  C   UNL     1       5.972  -2.693  26.325  0.00  0.00    -0.009 C 
ATOM     10  C   UNL     1       4.778  -3.184  26.651  0.00  0.00    +0.007 C 
ATOM     11  C   UNL     1       4.479  -4.564  26.512  0.00  0.00    +0.012 C 
ATOM     12  C   UNL     1       5.269  -5.329  25.739  0.00  0.00    +0.051 C 
ATOM     13  C   UNL     1       6.082  -1.259  26.070  0.00  0.00    +0.070 C 
ATOM     14  C   UNL     1       5.032  -0.270  26.243  0.00  0.00    +0.054 C 
ATOM     15  C   UNL     1       4.905   0.763  25.391  0.00  0.00    +0.045 A 
ATOM     16  C   UNL     1       5.529   1.116  24.085  0.00  0.00    -0.018 A 
ATOM     17  C   UNL     1       6.432   0.317  23.209  0.00  0.00    +0.046 C 
ATOM     18  C   UNL     1       5.296   2.423  23.810  0.00  0.00    +0.003 A 
ATOM     19  C   UNL     1       4.363   2.905  24.849  0.00  0.00    +0.049 A 
ATOM     20  C   UNL     1       4.321   4.205  25.141  0.00  0.00    +0.054 C 
ATOM     21  C   UNL     1       5.696   4.551  25.608  0.00  0.00    +0.070 C 
ATOM     22  C   UNL     1       6.177   5.972  25.400  0.00  0.00    -0.020 C 
ATOM     23  C   UNL     1       5.365   7.107  24.855  0.00  0.00    +0.046 C 
ATOM     24  C   UNL     1       6.916   5.878  26.524  0.00  0.00    -0.017 C 
ATOM     25  C   UNL     1       7.600   4.482  26.338  0.00  0.00    +0.070 C 
ATOM     26  C   UNL     1       8.761   4.127  25.631  0.00  0.00    +0.054 C 
ATOM     27  N   UNL     1       6.470   3.707  26.267  0.00  0.00    -0.247 NA
ATOM     28  N   UNL     1       4.180   1.883  25.768  0.00  0.00    -0.354 N 
ATOM     29  H   UNL     1       4.326   2.158  26.742  0.00  0.00    +0.166 HD
ATOM     30  C   UNL     1       6.597  -4.803  25.124  0.00  0.00    +0.151 C 
ATOM     31  N   UNL     1       7.209  -0.838  25.662  0.00  0.00    -0.251 NA
ATOM     32  N   UNL     1       8.898   1.461  25.411  0.00  0.00    -0.355 N 
ATOM     33  H   UNL     1       8.251   1.309  26.167  0.00  0.00    +0.166 HD
ATOM     34  C   UNL     1       9.247   2.802  24.942  0.00  0.00    +0.045 A 
ENDROOT
BRANCH  12  35
ATOM     35  C   UNL     1       4.690  -6.730  25.742  0.00  0.00    +0.336 C 
ATOM     36  O   UNL     1       4.535  -7.422  26.771  0.00  0.00    -0.245 OA
BRANCH  35  37
ATOM     37  O   UNL     1       4.437  -7.228  24.497  0.00  0.00    -0.465 OA
ATOM     38  C   UNL     1       3.045  -7.065  24.102  0.00  0.00    +0.280 C 
ENDBRANCH  35  37
ENDBRANCH  12  35
BRANCH  18  39
ATOM     39  C   UNL     1       6.250   3.189  22.988  0.00  0.00    +0.002 C 
ATOM     40  C   UNL     1       6.040   4.056  21.992  0.00  0.00    +0.009 C 
ENDBRANCH  18  39
BRANCH  30  41
ATOM     41  C   UNL     1       6.756  -4.808  23.632  0.00  0.00    +0.316 C 
ATOM     42  O   UNL     1       7.829  -5.130  23.120  0.00  0.00    -0.250 OA
BRANCH  41  43
ATOM     43  O   UNL     1       5.642  -4.469  22.945  0.00  0.00    -0.467 OA
ATOM     44  C   UNL     1       5.648  -3.128  22.437  0.00  0.00    +0.280 C 
ENDBRANCH  41  43
ENDBRANCH  30  41
BRANCH   1  45
ATOM     45  C   UNL     1      10.861   3.355  22.712  0.00  0.00    +0.048 C 
BRANCH  45  46
ATOM     46  C   UNL     1      11.882   4.480  22.809  0.00  0.00    +0.125 C 
BRANCH  46  47
ATOM     47  C   UNL     1      11.591   5.702  23.636  0.00  0.00    +0.307 C 
ATOM     48  O   UNL     1      10.515   6.292  23.578  0.00  0.00    -0.251 OA
BRANCH  47  50
ATOM     49  C   UNL     1      12.334   7.019  25.409  0.00  0.00    +0.280 C 
ATOM     50  O   UNL     1      12.670   6.143  24.329  0.00  0.00    -0.468 OA
ENDBRANCH  47  50
ENDBRANCH  46  47
ENDBRANCH  45  46
ENDBRANCH   1  45
BRANCH  24  51
ATOM     51  C   UNL     1       5.959   6.375  27.790  0.00  0.00    +0.049 C 
BRANCH  51  52
ATOM     52  C   UNL     1       6.137   5.910  29.340  0.00  0.00    +0.125 C 
BRANCH  52  53
ATOM     53  C   UNL     1       7.378   5.224  29.907  0.00  0.00    +0.305 C 
ATOM     54  O   UNL     1       7.510   3.995  29.927  0.00  0.00    -0.251 OA
BRANCH  53  55
ATOM     55  O   UNL     1       8.346   6.037  30.380  0.00  0.00    -0.481 OA
ATOM     56  H   UNL     1       8.028   6.936  30.630  0.00  0.00    +0.295 HD
ENDBRANCH  53  55
ENDBRANCH  52  53
ENDBRANCH  51  52
ENDBRANCH  24  51
TORSDOF 13
ENDMDL
MODEL 3
REMARK VINA RESULT:      -5.6      2.575      9.884
REMARK  Name = 
REMARK  20 active torsions:
REMARK  status: ('A' for Active; 'I' for Inactive)
REMARK    1  A    between atoms: C_1  and  O_2
REMARK    2  A    between atoms: O_2  and  C_3
REMARK    3  A    between atoms: C_3  and  C_5
REMARK    4  A    between atoms: C_5  and  C_6
REMARK    5  A    between atoms: C_6  and  C_7
REMARK    6  A    between atoms: C_24  and  C_25
REMARK    7  A    between atoms: C_25  and  C_26
REMARK    8  A    between atoms: C_26  and  C_27
REMARK    9  A    between atoms: C_27  and  O_28
REMARK   10  A    between atoms: C_30  and  C_31
REMARK   11  A    between atoms: C_32  and  C_33
REMARK   12  A    between atoms: C_35  and  C_36
REMARK   13  A    between atoms: C_40  and  C_49
REMARK   14  A    between atoms: C_41  and  C_43
REMARK   15  A    between atoms: C_43  and  O_45
REMARK   16  A    between atoms: O_45  and  C_46
REMARK   17  A    between atoms: C_47  and  C_48
REMARK   18  A    between atoms: C_49  and  O_51
REMARK   19  A    between atoms: O_51  and  C_52
REMARK   20  A    between atoms: C_53  and  C_54
REMARK                            x       y       z     vdW  Elec       q    Type
REMARK                         _______ _______ _______ _____ _____    ______ ____
ROOT
ATOM      1  C   UNL     1       4.978  -4.687  23.566  0.00  0.00    -0.019 A 
ATOM      2  C   UNL     1       6.082  -3.912  22.875  0.00  0.00    -0.022 A 
ATOM      3  C   UNL     1       7.272  -4.581  22.229  0.00  0.00    +0.046 C 
ATOM      4  C   UNL     1       5.895  -2.523  22.981  0.00  0.00    +0.045 A 
ATOM      5  C   UNL     1       6.808  -1.304  22.423  0.00  0.00    +0.050 C 
ATOM      6  C   UNL     1       7.103  -0.119  23.085  0.00  0.00    +0.055 C 
ATOM      7  C   UNL     1       7.890   1.470  22.982  0.00  0.00    +0.054 C 
ATOM      8  C   UNL     1       7.291   2.178  21.730  0.00  0.00    +0.024 C 
ATOM      9  C   UNL     1       7.342   1.980  24.349  0.00  0.00    -0.009 C 
ATOM     10  C   UNL     1       7.667   3.021  25.113  0.00  0.00    +0.007 C 
ATOM     11  C   UNL     1       8.718   3.905  24.757  0.00  0.00    +0.012 C 
ATOM     12  C   UNL     1       9.614   3.516  23.834  0.00  0.00    +0.051 C 
ATOM     13  C   UNL     1       6.587   0.887  24.956  0.00  0.00    +0.070 C 
ATOM     14  C   UNL     1       6.044   0.859  26.303  0.00  0.00    +0.054 C 
ATOM     15  C   UNL     1       6.035  -0.276  27.025  0.00  0.00    +0.045 A 
ATOM     16  C   UNL     1       6.642  -1.626  26.847  0.00  0.00    -0.018 A 
ATOM     17  C   UNL     1       7.612  -2.111  25.824  0.00  0.00    +0.046 C 
ATOM     18  C   UNL     1       6.054  -2.502  27.698  0.00  0.00    +0.003 A 
ATOM     19  C   UNL     1       5.174  -1.703  28.573  0.00  0.00    +0.049 A 
ATOM     20  C   UNL     1       4.132  -2.287  29.166  0.00  0.00    +0.054 C 
ATOM     21  C   UNL     1       3.279  -2.798  28.054  0.00  0.00    +0.070 C 
ATOM     22  C   UNL     1       2.419  -4.015  28.324  0.00  0.00    -0.020 C 
ATOM     23  C   UNL     1       2.262  -4.710  29.643  0.00  0.00    +0.046 C 
ATOM     24  C   UNL     1       1.495  -3.545  27.460  0.00  0.00    -0.017 C 
ATOM     25  C   UNL     1       2.386  -3.116  26.247  0.00  0.00    +0.070 C 
ATOM     26  C   UNL     1       2.892  -3.876  25.179  0.00  0.00    +0.054 C 
ATOM     27  N   UNL     1       3.172  -2.190  26.886  0.00  0.00    -0.247 NA
ATOM     28  N   UNL     1       5.190  -0.394  28.117  0.00  0.00    -0.354 N 
ATOM     29  H   UNL     1       4.265   0.014  27.966  0.00  0.00    +0.166 HD
ATOM     30  C   UNL     1       9.452   2.205  23.014  0.00  0.00    +0.151 C 
ATOM     31  N   UNL     1       6.381  -0.136  24.231  0.00  0.00    -0.251 NA
ATOM     32  N   UNL     1       4.737  -2.451  23.860  0.00  0.00    -0.355 N 
ATOM     33  H   UNL     1       4.412  -1.576  24.236  0.00  0.00    +0.166 HD
ATOM     34  C   UNL     1       4.150  -3.732  24.249  0.00  0.00    +0.045 A 
ENDROOT
BRANCH  12  35
ATOM     35  C   UNL     1      10.632   4.629  23.691  0.00  0.00    +0.336 C 
ATOM     36  O   UNL     1      10.379   5.839  23.880  0.00  0.00    -0.245 OA
BRANCH  35  37
ATOM     37  O   UNL     1      11.848   4.214  23.232  0.00  0.00    -0.465 OA
ATOM     38  C   UNL     1      12.808   5.303  23.128  0.00  0.00    +0.280 C 
ENDBRANCH  35  37
ENDBRANCH  12  35
BRANCH  18  39
ATOM     39  C   UNL     1       5.970  -3.932  27.347  0.00  0.00    +0.002 C 
ATOM     40  C   UNL     1       6.307  -5.020  28.046  0.00  0.00    +0.009 C 
ENDBRANCH  18  39
BRANCH  30  41
ATOM     41  C   UNL     1      10.522   1.157  23.103  0.00  0.00    +0.316 C 
ATOM     42  O   UNL     1      11.315   1.154  24.045  0.00  0.00    -0.250 OA
BRANCH  41  43
ATOM     43  O   UNL     1      10.505   0.246  22.104  0.00  0.00    -0.467 OA
ATOM     44  C   UNL     1      10.521  -1.117  22.548  0.00  0.00    +0.280 C 
ENDBRANCH  41  43
ENDBRANCH  30  41
BRANCH   1  45
ATOM     45  C   UNL     1       5.102  -6.248  23.442  0.00  0.00    +0.048 C 
BRANCH  45  46
ATOM     46  C   UNL     1       4.478  -7.385  24.239  0.00  0.00    +0.125 C 
BRANCH  46  47
ATOM     47  C   UNL     1       2.990  -7.599  24.224  0.00  0.00    +0.307 C 
ATOM     48  O   UNL     1       2.436  -8.404  24.967  0.00  0.00    -0.251 OA
BRANCH  47  50
ATOM     49  C   UNL     1       0.997  -6.620  23.517  0.00  0.00    +0.280 C 
ATOM     50  O   UNL     1       2.366  -6.919  23.230  0.00  0.00    -0.468 OA
ENDBRANCH  47  50
ENDBRANCH  46  47
ENDBRANCH  45  46
ENDBRANCH   1  45
BRANCH  24  51
ATOM     51  C   UNL     1       0.443  -2.595  28.330  0.00  0.00    +0.049 C 
BRANCH  51  52
ATOM     52  C   UNL     1       0.747  -1.077  28.834  0.00  0.00    +0.125 C 
BRANCH  52  53
ATOM     53  C   UNL     1       0.936   0.126  27.912  0.00  0.00    +0.305 C 
ATOM     54  O   UNL     1       1.235   1.249  28.334  0.00  0.00    -0.251 OA
BRANCH  53  55
ATOM     55  O   UNL     1       0.772  -0.102  26.592  0.00  0.00    -0.481 OA
ATOM     56  H   UNL     1       1.040  -1.007  26.304  0.00  0.00    +0.295 HD
ENDBRANCH  53  55
ENDBRANCH  52  53
ENDBRANCH  51  52
ENDBRANCH  24  51
TORSDOF 13
ENDMDL
MODEL 4
REMARK VINA RESULT:      -5.5      2.429      9.945
REMARK  Name = 
REMARK  20 active torsions:
REMARK  status: ('A' for Active; 'I' for Inactive)
REMARK    1  A    between atoms: C_1  and  O_2
REMARK    2  A    between atoms: O_2  and  C_3
REMARK    3  A    between atoms: C_3  and  C_5
REMARK    4  A    between atoms: C_5  and  C_6
REMARK    5  A    between atoms: C_6  and  C_7
REMARK    6  A    between atoms: C_24  and  C_25
REMARK    7  A    between atoms: C_25  and  C_26
REMARK    8  A    between atoms: C_26  and  C_27
REMARK    9  A    between atoms: C_27  and  O_28
REMARK   10  A    between atoms: C_30  and  C_31
REMARK   11  A    between atoms: C_32  and  C_33
REMARK   12  A    between atoms: C_35  and  C_36
REMARK   13  A    between atoms: C_40  and  C_49
REMARK   14  A    between atoms: C_41  and  C_43
REMARK   15  A    between atoms: C_43  and  O_45
REMARK   16  A    between atoms: O_45  and  C_46
REMARK   17  A    between atoms: C_47  and  C_48
REMARK   18  A    between atoms: C_49  and  O_51
REMARK   19  A    between atoms: O_51  and  C_52
REMARK   20  A    between atoms: C_53  and  C_54
REMARK                            x       y       z     vdW  Elec       q    Type
REMARK                         _______ _______ _______ _____ _____    ______ ____
ROOT
ATOM      1  C   UNL     1       7.644  -1.675  23.719  0.00  0.00    -0.019 A 
ATOM      2  C   UNL     1       7.853  -0.297  24.313  0.00  0.00    -0.022 A 
ATOM      3  C   UNL     1       9.213   0.228  24.706  0.00  0.00    +0.046 C 
ATOM      4  C   UNL     1       6.636   0.377  24.516  0.00  0.00    +0.045 A 
ATOM      5  C   UNL     1       6.354   1.850  25.133  0.00  0.00    +0.050 C 
ATOM      6  C   UNL     1       5.328   2.202  26.001  0.00  0.00    +0.055 C 
ATOM      7  C   UNL     1       4.521   3.525  26.870  0.00  0.00    +0.054 C 
ATOM      8  C   UNL     1       4.142   4.589  25.798  0.00  0.00    +0.024 C 
ATOM      9  C   UNL     1       3.334   2.650  27.374  0.00  0.00    -0.009 C 
ATOM     10  C   UNL     1       2.397   2.856  28.298  0.00  0.00    +0.007 C 
ATOM     11  C   UNL     1       2.368   4.043  29.075  0.00  0.00    +0.012 C 
ATOM     12  C   UNL     1       3.467   4.814  29.131  0.00  0.00    +0.051 C 
ATOM     13  C   UNL     1       3.580   1.279  26.935  0.00  0.00    +0.070 C 
ATOM     14  C   UNL     1       2.822   0.101  27.321  0.00  0.00    +0.054 C 
ATOM     15  C   UNL     1       3.430  -1.082  27.517  0.00  0.00    +0.045 A 
ATOM     16  C   UNL     1       4.853  -1.518  27.603  0.00  0.00    -0.018 A 
ATOM     17  C   UNL     1       6.102  -0.705  27.637  0.00  0.00    +0.046 C 
ATOM     18  C   UNL     1       4.921  -2.866  27.483  0.00  0.00    +0.003 A 
ATOM     19  C   UNL     1       3.528  -3.355  27.495  0.00  0.00    +0.049 A 
ATOM     20  C   UNL     1       3.239  -4.527  26.928  0.00  0.00    +0.054 C 
ATOM     21  C   UNL     1       3.630  -4.382  25.495  0.00  0.00    +0.070 C 
ATOM     22  C   UNL     1       4.046  -5.631  24.746  0.00  0.00    -0.020 C 
ATOM     23  C   UNL     1       4.013  -7.032  25.278  0.00  0.00    +0.046 C 
ATOM     24  C   UNL     1       3.544  -5.107  23.609  0.00  0.00    -0.017 C 
ATOM     25  C   UNL     1       4.112  -3.650  23.653  0.00  0.00    +0.070 C 
ATOM     26  C   UNL     1       5.361  -3.149  23.246  0.00  0.00    +0.054 C 
ATOM     27  N   UNL     1       3.543  -3.242  24.834  0.00  0.00    -0.247 NA
ATOM     28  N   UNL     1       2.687  -2.252  27.499  0.00  0.00    -0.354 N 
ATOM     29  H   UNL     1       1.964  -2.268  26.777  0.00  0.00    +0.166 HD
ATOM     30  C   UNL     1       4.717   4.551  28.244  0.00  0.00    +0.151 C 
ATOM     31  N   UNL     1       4.547   1.102  26.131  0.00  0.00    -0.251 NA
ATOM     32  N   UNL     1       5.670  -0.653  24.166  0.00  0.00    -0.355 N 
ATOM     33  H   UNL     1       4.683  -0.527  24.320  0.00  0.00    +0.166 HD
ATOM     34  C   UNL     1       6.228  -1.916  23.686  0.00  0.00    +0.045 A 
ENDROOT
BRANCH  12  35
ATOM     35  C   UNL     1       3.162   5.974  30.057  0.00  0.00    +0.336 C 
ATOM     36  O   UNL     1       4.022   6.774  30.485  0.00  0.00    -0.245 OA
BRANCH  35  37
ATOM     37  O   UNL     1       1.866   6.022  30.479  0.00  0.00    -0.465 OA
ATOM     38  C   UNL     1       1.117   7.107  29.862  0.00  0.00    +0.280 C 
ENDBRANCH  35  37
ENDBRANCH  12  35
BRANCH  18  39
ATOM     39  C   UNL     1       6.126  -3.499  26.915  0.00  0.00    +0.002 C 
ATOM     40  C   UNL     1       6.858  -4.527  27.356  0.00  0.00    +0.009 C 
ENDBRANCH  18  39
BRANCH  30  41
ATOM     41  C   UNL     1       6.035   4.288  28.911  0.00  0.00    +0.316 C 
ATOM     42  O   UNL     1       6.103   3.542  29.888  0.00  0.00    -0.250 OA
BRANCH  41  43
ATOM     43  O   UNL     1       7.092   4.903  28.334  0.00  0.00    -0.467 OA
ATOM     44  C   UNL     1       6.872   6.285  28.020  0.00  0.00    +0.280 C 
ENDBRANCH  41  43
ENDBRANCH  30  41
BRANCH   1  45
ATOM     45  C   UNL     1       8.970  -2.465  23.422  0.00  0.00    +0.048 C 
BRANCH  45  46
ATOM     46  C   UNL     1       9.739  -3.503  24.226  0.00  0.00    +0.125 C 
BRANCH  46  47
ATOM     47  C   UNL     1       9.113  -4.832  24.549  0.00  0.00    +0.307 C 
ATOM     48  O   UNL     1       9.733  -5.727  25.117  0.00  0.00    -0.251 OA
BRANCH  47  50
ATOM     49  C   UNL     1       7.812  -5.838  22.898  0.00  0.00    +0.280 C 
ATOM     50  O   UNL     1       7.866  -4.971  24.034  0.00  0.00    -0.468 OA
ENDBRANCH  47  50
ENDBRANCH  46  47
ENDBRANCH  45  46
ENDBRANCH   1  45
BRANCH  24  51
ATOM     51  C   UNL     1       1.949  -5.570  23.514  0.00  0.00    +0.049 C 
BRANCH  51  52
ATOM     52  C   UNL     1       1.330  -6.580  22.398  0.00  0.00    +0.125 C 
BRANCH  52  53
ATOM     53  C   UNL     1       1.334  -8.104  22.504  0.00  0.00    +0.305 C 
ATOM     54  O   UNL     1       1.349  -8.696  23.588  0.00  0.00    -0.251 OA
BRANCH  53  55
ATOM     55  O   UNL     1       1.307  -8.783  21.338  0.00  0.00    -0.481 OA
ATOM     56  H   UNL     1       1.950  -9.530  21.293  0.00  0.00    +0.295 HD
ENDBRANCH  53  55
ENDBRANCH  52  53
ENDBRANCH  51  52
ENDBRANCH  24  51
TORSDOF 13
ENDMDL
MODEL 5
REMARK VINA RESULT:      -4.8      1.981      2.345
REMARK  Name = 
REMARK  20 active torsions:
REMARK  status: ('A' for Active; 'I' for Inactive)
REMARK    1  A    between atoms: C_1  and  O_2
REMARK    2  A    between atoms: O_2  and  C_3
REMARK    3  A    between atoms: C_3  and  C_5
REMARK    4  A    between atoms: C_5  and  C_6
REMARK    5  A    between atoms: C_6  and  C_7
REMARK    6  A    between atoms: C_24  and  C_25
REMARK    7  A    between atoms: C_25  and  C_26
REMARK    8  A    between atoms: C_26  and  C_27
REMARK    9  A    between atoms: C_27  and  O_28
REMARK   10  A    between atoms: C_30  and  C_31
REMARK   11  A    between atoms: C_32  and  C_33
REMARK   12  A    between atoms: C_35  and  C_36
REMARK   13  A    between atoms: C_40  and  C_49
REMARK   14  A    between atoms: C_41  and  C_43
REMARK   15  A    between atoms: C_43  and  O_45
REMARK   16  A    between atoms: O_45  and  C_46
REMARK   17  A    between atoms: C_47  and  C_48
REMARK   18  A    between atoms: C_49  and  O_51
REMARK   19  A    between atoms: O_51  and  C_52
REMARK   20  A    between atoms: C_53  and  C_54
REMARK                            x       y       z     vdW  Elec       q    Type
REMARK                         _______ _______ _______ _____ _____    ______ ____
ROOT
ATOM      1  C   UNL     1       5.286   0.978  27.832  0.00  0.00    -0.019 A 
ATOM      2  C   UNL     1       4.204  -0.048  28.103  0.00  0.00    -0.022 A 
ATOM      3  C   UNL     1       3.709  -0.368  29.493  0.00  0.00    +0.046 C 
ATOM      4  C   UNL     1       3.792  -0.699  26.928  0.00  0.00    +0.045 A 
ATOM      5  C   UNL     1       2.686  -1.867  26.719  0.00  0.00    +0.050 C 
ATOM      6  C   UNL     1       2.792  -2.968  25.878  0.00  0.00    +0.055 C 
ATOM      7  C   UNL     1       1.976  -4.399  25.214  0.00  0.00    +0.054 C 
ATOM      8  C   UNL     1       0.644  -3.894  24.584  0.00  0.00    +0.024 C 
ATOM      9  C   UNL     1       3.102  -4.732  24.189  0.00  0.00    -0.009 C 
ATOM     10  C   UNL     1       3.352  -5.813  23.452  0.00  0.00    +0.007 C 
ATOM     11  C   UNL     1       2.541  -6.973  23.536  0.00  0.00    +0.012 C 
ATOM     12  C   UNL     1       1.725  -7.126  24.592  0.00  0.00    +0.051 C 
ATOM     13  C   UNL     1       4.182  -3.771  24.394  0.00  0.00    +0.070 C 
ATOM     14  C   UNL     1       5.496  -3.807  23.776  0.00  0.00    +0.054 C 
ATOM     15  C   UNL     1       6.594  -3.432  24.458  0.00  0.00    +0.045 A 
ATOM     16  C   UNL     1       6.868  -3.098  25.884  0.00  0.00    -0.018 A 
ATOM     17  C   UNL     1       5.989  -3.219  27.082  0.00  0.00    +0.046 C 
ATOM     18  C   UNL     1       8.063  -2.466  25.979  0.00  0.00    +0.003 A 
ATOM     19  C   UNL     1       8.676  -2.533  24.637  0.00  0.00    +0.049 A 
ATOM     20  C   UNL     1       9.586  -1.624  24.285  0.00  0.00    +0.054 C 
ATOM     21  C   UNL     1       8.887  -0.309  24.370  0.00  0.00    +0.070 C 
ATOM     22  C   UNL     1       9.722   0.917  24.675  0.00  0.00    -0.020 C 
ATOM     23  C   UNL     1      11.214   0.959  24.804  0.00  0.00    +0.046 C 
ATOM     24  C   UNL     1       8.880   1.665  23.932  0.00  0.00    -0.017 C 
ATOM     25  C   UNL     1       7.485   1.172  24.440  0.00  0.00    +0.070 C 
ATOM     26  C   UNL     1       6.734   1.569  25.559  0.00  0.00    +0.054 C 
ATOM     27  N   UNL     1       7.602  -0.154  24.107  0.00  0.00    -0.247 NA
ATOM     28  N   UNL     1       7.752  -3.101  23.773  0.00  0.00    -0.354 N 
ATOM     29  H   UNL     1       7.585  -2.565  22.919  0.00  0.00    +0.166 HD
ATOM     30  C   UNL     1       1.505  -6.003  25.646  0.00  0.00    +0.151 C 
ATOM     31  N   UNL     1       3.943  -2.805  25.184  0.00  0.00    -0.251 NA
ATOM     32  N   UNL     1       4.726  -0.159  25.951  0.00  0.00    -0.355 N 
ATOM     33  H   UNL     1       4.776  -0.518  25.012  0.00  0.00    +0.166 HD
ATOM     34  C   UNL     1       5.656   0.853  26.449  0.00  0.00    +0.045 A 
ENDROOT
BRANCH  12  35
ATOM     35  C   UNL     1       1.024  -8.460  24.437  0.00  0.00    +0.336 C 
ATOM     36  O   UNL     1       0.702  -8.959  23.337  0.00  0.00    -0.245 OA
BRANCH  35  37
ATOM     37  O   UNL     1       0.672  -9.043  25.620  0.00  0.00    -0.465 OA
ATOM     38  C   UNL     1       0.907 -10.480  25.625  0.00  0.00    +0.280 C 
ENDBRANCH  35  37
ENDBRANCH  12  35
BRANCH  18  39
ATOM     39  C   UNL     1       8.307  -1.501  27.067  0.00  0.00    +0.002 C 
ATOM     40  C   UNL     1       9.423  -0.860  27.428  0.00  0.00    +0.009 C 
ENDBRANCH  18  39
BRANCH  30  41
ATOM     41  C   UNL     1       1.843  -6.281  27.081  0.00  0.00    +0.316 C 
ATOM     42  O   UNL     1       1.162  -5.800  27.987  0.00  0.00    -0.250 OA
BRANCH  41  43
ATOM     43  O   UNL     1       2.904  -7.099  27.262  0.00  0.00    -0.467 OA
ATOM     44  C   UNL     1       4.166  -6.422  27.337  0.00  0.00    +0.280 C 
ENDBRANCH  41  43
ENDBRANCH  30  41
BRANCH   1  45
ATOM     45  C   UNL     1       5.759   1.777  29.099  0.00  0.00    +0.048 C 
BRANCH  45  46
ATOM     46  C   UNL     1       6.635   3.012  29.256  0.00  0.00    +0.125 C 
BRANCH  46  47
ATOM     47  C   UNL     1       6.385   4.235  28.416  0.00  0.00    +0.307 C 
ATOM     48  O   UNL     1       5.253   4.593  28.102  0.00  0.00    -0.251 OA
BRANCH  47  50
ATOM     49  C   UNL     1       7.505   5.041  26.539  0.00  0.00    +0.280 C 
ATOM     50  O   UNL     1       7.526   4.800  27.949  0.00  0.00    -0.468 OA
ENDBRANCH  47  50
ENDBRANCH  46  47
ENDBRANCH  45  46
ENDBRANCH   1  45
BRANCH  24  51
ATOM     51  C   UNL     1       9.453   1.650  22.370  0.00  0.00    +0.049 C 
BRANCH  51  52
ATOM     52  C   UNL     1       8.943   0.646  21.194  0.00  0.00    +0.125 C 
BRANCH  52  53
ATOM     53  C   UNL     1       9.115  -0.871  21.208  0.00  0.00    +0.305 C 
ATOM     54  O   UNL     1      10.216  -1.418  21.079  0.00  0.00    -0.251 OA
BRANCH  53  55
ATOM     55  O   UNL     1       7.992  -1.598  21.384  0.00  0.00    -0.481 OA
ATOM     56  H   UNL     1       8.048  -2.252  22.120  0.00  0.00    +0.295 HD
ENDBRANCH  53  55
ENDBRANCH  52  53
ENDBRANCH  51  52
ENDBRANCH  24  51
TORSDOF 13
ENDMDL
MODEL 6
REMARK VINA RESULT:      -4.7      2.192      5.178
REMARK  Name = 
REMARK  20 active torsions:
REMARK  status: ('A' for Active; 'I' for Inactive)
REMARK    1  A    between atoms: C_1  and  O_2
REMARK    2  A    between atoms: O_2  and  C_3
REMARK    3  A    between atoms: C_3  and  C_5
REMARK    4  A    between atoms: C_5  and  C_6
REMARK    5  A    between atoms: C_6  and  C_7
REMARK    6  A    between atoms: C_24  and  C_25
REMARK    7  A    between atoms: C_25  and  C_26
REMARK    8  A    between atoms: C_26  and  C_27
REMARK    9  A    between atoms: C_27  and  O_28
REMARK   10  A    between atoms: C_30  and  C_31
REMARK   11  A    between atoms: C_32  and  C_33
REMARK   12  A    between atoms: C_35  and  C_36
REMARK   13  A    between atoms: C_40  and  C_49
REMARK   14  A    between atoms: C_41  and  C_43
REMARK   15  A    between atoms: C_43  and  O_45
REMARK   16  A    between atoms: O_45  and  C_46
REMARK   17  A    between atoms: C_47  and  C_48
REMARK   18  A    between atoms: C_49  and  O_51
REMARK   19  A    between atoms: O_51  and  C_52
REMARK   20  A    between atoms: C_53  and  C_54
REMARK                            x       y       z     vdW  Elec       q    Type
REMARK                         _______ _______ _______ _____ _____    ______ ____
ROOT
ATOM      1  C   UNL     1       9.117  -1.214  25.602  0.00  0.00    -0.019 A 
ATOM      2  C   UNL     1       8.658  -2.612  25.241  0.00  0.00    -0.022 A 
ATOM      3  C   UNL     1       9.002  -3.274  23.928  0.00  0.00    +0.046 C 
ATOM      4  C   UNL     1       7.825  -3.164  26.230  0.00  0.00    +0.045 A 
ATOM      5  C   UNL     1       7.088  -4.607  26.283  0.00  0.00    +0.050 C 
ATOM      6  C   UNL     1       5.800  -4.864  26.736  0.00  0.00    +0.055 C 
ATOM      7  C   UNL     1       4.583  -6.108  27.090  0.00  0.00    +0.054 C 
ATOM      8  C   UNL     1       5.257  -7.119  28.065  0.00  0.00    +0.024 C 
ATOM      9  C   UNL     1       3.575  -5.124  27.758  0.00  0.00    -0.009 C 
ATOM     10  C   UNL     1       2.293  -5.246  28.093  0.00  0.00    +0.007 C 
ATOM     11  C   UNL     1       1.562  -6.432  27.822  0.00  0.00    +0.012 C 
ATOM     12  C   UNL     1       2.050  -7.309  26.928  0.00  0.00    +0.051 C 
ATOM     13  C   UNL     1       4.137  -3.780  27.654  0.00  0.00    +0.070 C 
ATOM     14  C   UNL     1       3.466  -2.537  27.991  0.00  0.00    +0.054 C 
ATOM     15  C   UNL     1       3.664  -1.422  27.265  0.00  0.00    +0.045 A 
ATOM     16  C   UNL     1       4.346  -1.131  25.972  0.00  0.00    -0.018 A 
ATOM     17  C   UNL     1       4.928  -2.065  24.966  0.00  0.00    +0.046 C 
ATOM     18  C   UNL     1       4.542   0.205  25.854  0.00  0.00    +0.003 A 
ATOM     19  C   UNL     1       3.832   0.829  26.988  0.00  0.00    +0.049 A 
ATOM     20  C   UNL     1       4.217   2.030  27.422  0.00  0.00    +0.054 C 
ATOM     21  C   UNL     1       5.638   1.861  27.847  0.00  0.00    +0.070 C 
ATOM     22  C   UNL     1       6.547   3.070  27.769  0.00  0.00    -0.020 C 
ATOM     23  C   UNL     1       6.136   4.462  27.395  0.00  0.00    +0.046 C 
ATOM     24  C   UNL     1       7.236   2.610  28.834  0.00  0.00    -0.017 C 
ATOM     25  C   UNL     1       7.430   1.103  28.459  0.00  0.00    +0.070 C 
ATOM     26  C   UNL     1       8.403   0.485  27.655  0.00  0.00    +0.054 C 
ATOM     27  N   UNL     1       6.109   0.743  28.367  0.00  0.00    -0.247 NA
ATOM     28  N   UNL     1       3.346  -0.184  27.800  0.00  0.00    -0.354 N 
ATOM     29  H   UNL     1       3.589  -0.089  28.788  0.00  0.00    +0.166 HD
ATOM     30  C   UNL     1       3.466  -7.163  26.302  0.00  0.00    +0.151 C 
ATOM     31  N   UNL     1       5.333  -3.693  27.233  0.00  0.00    -0.251 NA
ATOM     32  N   UNL     1       7.669  -2.039  27.140  0.00  0.00    -0.355 N 
ATOM     33  H   UNL     1       7.021  -2.067  27.910  0.00  0.00    +0.166 HD
ATOM     34  C   UNL     1       8.423  -0.833  26.801  0.00  0.00    +0.045 A 
ENDROOT
BRANCH  12  35
ATOM     35  C   UNL     1       1.050  -8.442  26.811  0.00  0.00    +0.336 C 
ATOM     36  O   UNL     1       0.516  -9.009  27.788  0.00  0.00    -0.245 OA
BRANCH  35  37
ATOM     37  O   UNL     1       0.848  -8.873  25.532  0.00  0.00    -0.465 OA
ATOM     38  C   UNL     1       0.655 -10.314  25.453  0.00  0.00    +0.280 C 
ENDBRANCH  35  37
ENDBRANCH  12  35
BRANCH  18  39
ATOM     39  C   UNL     1       5.678   0.720  25.068  0.00  0.00    +0.002 C 
ATOM     40  C   UNL     1       5.738   1.714  24.176  0.00  0.00    +0.009 C 
ENDBRANCH  18  39
BRANCH  30  41
ATOM     41  C   UNL     1       3.589  -7.039  24.812  0.00  0.00    +0.316 C 
ATOM     42  O   UNL     1       4.475  -7.643  24.206  0.00  0.00    -0.250 OA
BRANCH  41  43
ATOM     43  O   UNL     1       2.652  -6.255  24.232  0.00  0.00    -0.467 OA
ATOM     44  C   UNL     1       2.365  -6.590  22.868  0.00  0.00    +0.280 C 
ENDBRANCH  41  43
ENDBRANCH  30  41
BRANCH   1  45
ATOM     45  C   UNL     1      10.091  -0.558  24.558  0.00  0.00    +0.048 C 
BRANCH  45  46
ATOM     46  C   UNL     1      10.581   0.873  24.382  0.00  0.00    +0.125 C 
BRANCH  46  47
ATOM     47  C   UNL     1       9.716   1.896  23.700  0.00  0.00    +0.307 C 
ATOM     48  O   UNL     1       9.716   2.046  22.481  0.00  0.00    -0.251 OA
BRANCH  47  50
ATOM     49  C   UNL     1       9.197   4.092  24.279  0.00  0.00    +0.280 C 
ATOM     50  O   UNL     1       9.056   2.699  24.571  0.00  0.00    -0.468 OA
ENDBRANCH  47  50
ENDBRANCH  46  47
ENDBRANCH  45  46
ENDBRANCH   1  45
BRANCH  24  51
ATOM     51  C   UNL     1       6.512   3.230  30.196  0.00  0.00    +0.049 C 
BRANCH  51  52
ATOM     52  C   UNL     1       6.254   4.812  30.485  0.00  0.00    +0.125 C 
BRANCH  52  53
ATOM     53  C   UNL     1       7.283   5.918  30.261  0.00  0.00    +0.305 C 
ATOM     54  O   UNL     1       8.495   5.746  30.433  0.00  0.00    -0.251 OA
BRANCH  53  55
ATOM     55  O   UNL     1       6.800   7.108  29.846  0.00  0.00    -0.481 OA
ATOM     56  H   UNL     1       6.144   7.041  29.111  0.00  0.00    +0.295 HD
ENDBRANCH  53  55
ENDBRANCH  52  53
ENDBRANCH  51  52
ENDBRANCH  24  51
TORSDOF 13
ENDMDL
MODEL 7
REMARK VINA RESULT:      -4.4      2.388      3.242
REMARK  Name = 
REMARK  20 active torsions:
REMARK  status: ('A' for Active; 'I' for Inactive)
REMARK    1  A    between atoms: C_1  and  O_2
REMARK    2  A    between atoms: O_2  and  C_3
REMARK    3  A    between atoms: C_3  and  C_5
REMARK    4  A    between atoms: C_5  and  C_6
REMARK    5  A    between atoms: C_6  and  C_7
REMARK    6  A    between atoms: C_24  and  C_25
REMARK    7  A    between atoms: C_25  and  C_26
REMARK    8  A    between atoms: C_26  and  C_27
REMARK    9  A    between atoms: C_27  and  O_28
REMARK   10  A    between atoms: C_30  and  C_31
REMARK   11  A    between atoms: C_32  and  C_33
REMARK   12  A    between atoms: C_35  and  C_36
REMARK   13  A    between atoms: C_40  and  C_49
REMARK   14  A    between atoms: C_41  and  C_43
REMARK   15  A    between atoms: C_43  and  O_45
REMARK   16  A    between atoms: O_45  and  C_46
REMARK   17  A    between atoms: C_47  and  C_48
REMARK   18  A    between atoms: C_49  and  O_51
REMARK   19  A    between atoms: O_51  and  C_52
REMARK   20  A    between atoms: C_53  and  C_54
REMARK                            x       y       z     vdW  Elec       q    Type
REMARK                         _______ _______ _______ _____ _____    ______ ____
ROOT
ATOM      1  C   UNL     1       4.739   2.681  27.052  0.00  0.00    -0.019 A 
ATOM      2  C   UNL     1       3.682   1.781  27.661  0.00  0.00    -0.022 A 
ATOM      3  C   UNL     1       3.129   1.990  29.050  0.00  0.00    +0.046 C 
ATOM      4  C   UNL     1       3.353   0.709  26.812  0.00  0.00    +0.045 A 
ATOM      5  C   UNL     1       2.302  -0.506  27.032  0.00  0.00    +0.050 C 
ATOM      6  C   UNL     1       2.489  -1.837  26.682  0.00  0.00    +0.055 C 
ATOM      7  C   UNL     1       1.760  -3.454  26.591  0.00  0.00    +0.054 C 
ATOM      8  C   UNL     1       0.445  -3.299  25.771  0.00  0.00    +0.024 C 
ATOM      9  C   UNL     1       2.948  -4.094  25.810  0.00  0.00    -0.009 C 
ATOM     10  C   UNL     1       3.274  -5.359  25.553  0.00  0.00    +0.007 C 
ATOM     11  C   UNL     1       2.501  -6.441  26.048  0.00  0.00    +0.012 C 
ATOM     12  C   UNL     1       1.639  -6.221  27.055  0.00  0.00    +0.051 C 
ATOM     13  C   UNL     1       3.981  -3.072  25.665  0.00  0.00    +0.070 C 
ATOM     14  C   UNL     1       5.325  -3.272  25.153  0.00  0.00    +0.054 C 
ATOM     15  C   UNL     1       6.373  -2.608  25.674  0.00  0.00    +0.045 A 
ATOM     16  C   UNL     1       6.562  -1.740  26.871  0.00  0.00    -0.018 A 
ATOM     17  C   UNL     1       5.628  -1.442  27.994  0.00  0.00    +0.046 C 
ATOM     18  C   UNL     1       7.728  -1.058  26.756  0.00  0.00    +0.003 A 
ATOM     19  C   UNL     1       8.409  -1.601  25.564  0.00  0.00    +0.049 A 
ATOM     20  C   UNL     1       9.303  -0.849  24.920  0.00  0.00    +0.054 C 
ATOM     21  C   UNL     1       8.554   0.361  24.471  0.00  0.00    +0.070 C 
ATOM     22  C   UNL     1       9.328   1.653  24.308  0.00  0.00    -0.020 C 
ATOM     23  C   UNL     1      10.809   1.819  24.461  0.00  0.00    +0.046 C 
ATOM     24  C   UNL     1       8.499   2.015  23.308  0.00  0.00    -0.017 C 
ATOM     25  C   UNL     1       7.098   1.680  23.920  0.00  0.00    +0.070 C 
ATOM     26  C   UNL     1       6.277   2.435  24.776  0.00  0.00    +0.054 C 
ATOM     27  N   UNL     1       7.279   0.335  24.126  0.00  0.00    -0.247 NA
ATOM     28  N   UNL     1       7.552  -2.503  24.953  0.00  0.00    -0.354 N 
ATOM     29  H   UNL     1       7.409  -2.343  23.954  0.00  0.00    +0.166 HD
ATOM     30  C   UNL     1       1.326  -4.794  27.589  0.00  0.00    +0.151 C 
ATOM     31  N   UNL     1       3.668  -1.891  26.016  0.00  0.00    -0.251 NA
ATOM     32  N   UNL     1       4.315   0.884  25.735  0.00  0.00    -0.355 N 
ATOM     33  H   UNL     1       4.426   0.197  25.008  0.00  0.00    +0.166 HD
ATOM     34  C   UNL     1       5.182   2.057  25.836  0.00  0.00    +0.045 A 
ENDROOT
BRANCH  12  35
ATOM     35  C   UNL     1       0.995  -7.548  27.401  0.00  0.00    +0.336 C 
ATOM     36  O   UNL     1       0.730  -8.438  26.564  0.00  0.00    -0.245 OA
BRANCH  35  37
ATOM     37  O   UNL     1       0.627  -7.662  28.710  0.00  0.00    -0.465 OA
ATOM     38  C   UNL     1       1.708  -8.149  29.554  0.00  0.00    +0.280 C 
ENDBRANCH  35  37
ENDBRANCH  12  35
BRANCH  18  39
ATOM     39  C   UNL     1       7.881   0.261  27.397  0.00  0.00    +0.002 C 
ATOM     40  C   UNL     1       7.493   0.692  28.602  0.00  0.00    +0.009 C 
ENDBRANCH  18  39
BRANCH  30  41
ATOM     41  C   UNL     1       1.600  -4.484  29.031  0.00  0.00    +0.316 C 
ATOM     42  O   UNL     1       2.714  -4.691  29.514  0.00  0.00    -0.250 OA
BRANCH  41  43
ATOM     43  O   UNL     1       0.554  -3.953  29.703  0.00  0.00    -0.467 OA
ATOM     44  C   UNL     1       0.786  -2.631  30.208  0.00  0.00    +0.280 C 
ENDBRANCH  41  43
ENDBRANCH  30  41
BRANCH   1  45
ATOM     45  C   UNL     1       5.118   3.927  27.931  0.00  0.00    +0.048 C 
BRANCH  45  46
ATOM     46  C   UNL     1       5.713   4.046  29.327  0.00  0.00    +0.125 C 
BRANCH  46  47
ATOM     47  C   UNL     1       7.166   4.389  29.508  0.00  0.00    +0.307 C 
ATOM     48  O   UNL     1       7.860   3.865  30.375  0.00  0.00    -0.251 OA
BRANCH  47  50
ATOM     49  C   UNL     1       7.561   6.681  29.371  0.00  0.00    +0.280 C 
ATOM     50  O   UNL     1       7.574   5.410  28.714  0.00  0.00    -0.468 OA
ENDBRANCH  47  50
ENDBRANCH  46  47
ENDBRANCH  45  46
ENDBRANCH   1  45
BRANCH  24  51
ATOM     51  C   UNL     1       9.149   1.434  21.892  0.00  0.00    +0.049 C 
BRANCH  51  52
ATOM     52  C   UNL     1       8.702   0.056  21.149  0.00  0.00    +0.125 C 
BRANCH  52  53
ATOM     53  C   UNL     1       9.122  -1.346  21.587  0.00  0.00    +0.305 C 
ATOM     54  O   UNL     1       8.306  -2.214  21.915  0.00  0.00    -0.251 OA
BRANCH  53  55
ATOM     55  O   UNL     1      10.447  -1.599  21.586  0.00  0.00    -0.481 OA
ATOM     56  H   UNL     1      10.752  -2.149  22.346  0.00  0.00    +0.295 HD
ENDBRANCH  53  55
ENDBRANCH  52  53
ENDBRANCH  51  52
ENDBRANCH  24  51
TORSDOF 13
ENDMDL
MODEL 8
REMARK VINA RESULT:      -4.1      2.534      4.184
REMARK  Name = 
REMARK  20 active torsions:
REMARK  status: ('A' for Active; 'I' for Inactive)
REMARK    1  A    between atoms: C_1  and  O_2
REMARK    2  A    between atoms: O_2  and  C_3
REMARK    3  A    between atoms: C_3  and  C_5
REMARK    4  A    between atoms: C_5  and  C_6
REMARK    5  A    between atoms: C_6  and  C_7
REMARK    6  A    between atoms: C_24  and  C_25
REMARK    7  A    between atoms: C_25  and  C_26
REMARK    8  A    between atoms: C_26  and  C_27
REMARK    9  A    between atoms: C_27  and  O_28
REMARK   10  A    between atoms: C_30  and  C_31
REMARK   11  A    between atoms: C_32  and  C_33
REMARK   12  A    between atoms: C_35  and  C_36
REMARK   13  A    between atoms: C_40  and  C_49
REMARK   14  A    between atoms: C_41  and  C_43
REMARK   15  A    between atoms: C_43  and  O_45
REMARK   16  A    between atoms: O_45  and  C_46
REMARK   17  A    between atoms: C_47  and  C_48
REMARK   18  A    between atoms: C_49  and  O_51
REMARK   19  A    between atoms: O_51  and  C_52
REMARK   20  A    between atoms: C_53  and  C_54
REMARK                            x       y       z     vdW  Elec       q    Type
REMARK                         _______ _______ _______ _____ _____    ______ ____
ROOT
ATOM      1  C   UNL     1       6.420   3.212  28.084  0.00  0.00    -0.019 A 
ATOM      2  C   UNL     1       6.473   1.724  28.368  0.00  0.00    -0.022 A 
ATOM      3  C   UNL     1       7.295   1.133  29.488  0.00  0.00    +0.046 C 
ATOM      4  C   UNL     1       5.739   0.983  27.426  0.00  0.00    +0.045 A 
ATOM      5  C   UNL     1       5.517  -0.619  27.307  0.00  0.00    +0.050 C 
ATOM      6  C   UNL     1       5.511  -1.370  26.138  0.00  0.00    +0.055 C 
ATOM      7  C   UNL     1       5.262  -2.975  25.420  0.00  0.00    +0.054 C 
ATOM      8  C   UNL     1       3.847  -3.446  25.871  0.00  0.00    +0.024 C 
ATOM      9  C   UNL     1       5.348  -2.477  23.945  0.00  0.00    -0.009 C 
ATOM     10  C   UNL     1       5.486  -3.121  22.788  0.00  0.00    +0.007 C 
ATOM     11  C   UNL     1       5.625  -4.532  22.735  0.00  0.00    +0.012 C 
ATOM     12  C   UNL     1       5.961  -5.198  23.852  0.00  0.00    +0.051 C 
ATOM     13  C   UNL     1       5.649  -1.049  23.980  0.00  0.00    +0.070 C 
ATOM     14  C   UNL     1       5.983  -0.210  22.841  0.00  0.00    +0.054 C 
ATOM     15  C   UNL     1       6.892   0.775  22.948  0.00  0.00    +0.045 A 
ATOM     16  C   UNL     1       7.867   1.181  24.000  0.00  0.00    -0.018 A 
ATOM     17  C   UNL     1       8.249   0.494  25.267  0.00  0.00    +0.046 C 
ATOM     18  C   UNL     1       8.311   2.436  23.746  0.00  0.00    +0.003 A 
ATOM     19  C   UNL     1       7.768   2.808  22.424  0.00  0.00    +0.049 A 
ATOM     20  C   UNL     1       7.617   4.097  22.116  0.00  0.00    +0.054 C 
ATOM     21  C   UNL     1       6.672   4.640  23.135  0.00  0.00    +0.070 C 
ATOM     22  C   UNL     1       6.780   6.109  23.488  0.00  0.00    -0.020 C 
ATOM     23  C   UNL     1       7.689   7.108  22.839  0.00  0.00    +0.046 C 
ATOM     24  C   UNL     1       5.452   6.144  23.718  0.00  0.00    -0.017 C 
ATOM     25  C   UNL     1       5.244   4.852  24.577  0.00  0.00    +0.070 C 
ATOM     26  C   UNL     1       5.403   4.645  25.957  0.00  0.00    +0.054 C 
ATOM     27  N   UNL     1       5.697   3.927  23.670  0.00  0.00    -0.247 NA
ATOM     28  N   UNL     1       6.921   1.793  22.008  0.00  0.00    -0.354 N 
ATOM     29  H   UNL     1       5.993   2.108  21.715  0.00  0.00    +0.166 HD
ATOM     30  C   UNL     1       6.037  -4.508  25.244  0.00  0.00    +0.151 C 
ATOM     31  N   UNL     1       5.608  -0.485  25.118  0.00  0.00    -0.251 NA
ATOM     32  N   UNL     1       5.345   2.019  26.483  0.00  0.00    -0.355 N 
ATOM     33  H   UNL     1       4.897   1.797  25.609  0.00  0.00    +0.166 HD
ATOM     34  C   UNL     1       5.739   3.383  26.831  0.00  0.00    +0.045 A 
ENDROOT
BRANCH  12  35
ATOM     35  C   UNL     1       6.080  -6.665  23.490  0.00  0.00    +0.336 C 
ATOM     36  O   UNL     1       6.776  -7.099  22.548  0.00  0.00    -0.245 OA
BRANCH  35  37
ATOM     37  O   UNL     1       5.273  -7.485  24.224  0.00  0.00    -0.465 OA
ATOM     38  C   UNL     1       3.904  -6.998  24.303  0.00  0.00    +0.280 C 
ENDBRANCH  35  37
ENDBRANCH  12  35
BRANCH  18  39
ATOM     39  C   UNL     1       8.744   3.307  24.854  0.00  0.00    +0.002 C 
ATOM     40  C   UNL     1       9.510   4.402  24.850  0.00  0.00    +0.009 C 
ENDBRANCH  18  39
BRANCH  30  41
ATOM     41  C   UNL     1       7.338  -4.526  25.991  0.00  0.00    +0.316 C 
ATOM     42  O   UNL     1       8.408  -4.521  25.382  0.00  0.00    -0.250 OA
BRANCH  41  43
ATOM     43  O   UNL     1       7.216  -4.520  27.338  0.00  0.00    -0.467 OA
ATOM     44  C   UNL     1       6.383  -5.564  27.860  0.00  0.00    +0.280 C 
ENDBRANCH  41  43
ENDBRANCH  30  41
BRANCH   1  45
ATOM     45  C   UNL     1       7.182   4.103  29.130  0.00  0.00    +0.048 C 
BRANCH  45  46
ATOM     46  C   UNL     1       6.743   5.301  29.959  0.00  0.00    +0.125 C 
BRANCH  46  47
ATOM     47  C   UNL     1       5.541   6.109  29.552  0.00  0.00    +0.307 C 
ATOM     48  O   UNL     1       5.602   6.989  28.697  0.00  0.00    -0.251 OA
BRANCH  47  50
ATOM     49  C   UNL     1       3.342   5.340  29.563  0.00  0.00    +0.280 C 
ATOM     50  O   UNL     1       4.447   5.853  30.312  0.00  0.00    -0.468 OA
ENDBRANCH  47  50
ENDBRANCH  46  47
ENDBRANCH  45  46
ENDBRANCH   1  45
BRANCH  24  51
ATOM     51  C   UNL     1       4.712   6.533  22.280  0.00  0.00    +0.049 C 
BRANCH  51  52
ATOM     52  C   UNL     1       3.170   6.181  21.893  0.00  0.00    +0.125 C 
BRANCH  52  53
ATOM     53  C   UNL     1       2.634   4.772  21.646  0.00  0.00    +0.305 C 
ATOM     54  O   UNL     1       1.428   4.503  21.679  0.00  0.00    -0.251 OA
BRANCH  53  55
ATOM     55  O   UNL     1       3.553   3.823  21.373  0.00  0.00    -0.481 OA
ATOM     56  H   UNL     1       3.177   2.918  21.267  0.00  0.00    +0.295 HD
ENDBRANCH  53  55
ENDBRANCH  52  53
ENDBRANCH  51  52
ENDBRANCH  24  51
TORSDOF 13
ENDMDL
MODEL 9
REMARK VINA RESULT:      -3.5      2.739      4.485
REMARK  Name = 
REMARK  20 active torsions:
REMARK  status: ('A' for Active; 'I' for Inactive)
REMARK    1  A    between atoms: C_1  and  O_2
REMARK    2  A    between atoms: O_2  and  C_3
REMARK    3  A    between atoms: C_3  and  C_5
REMARK    4  A    between atoms: C_5  and  C_6
REMARK    5  A    between atoms: C_6  and  C_7
REMARK    6  A    between atoms: C_24  and  C_25
REMARK    7  A    between atoms: C_25  and  C_26
REMARK    8  A    between atoms: C_26  and  C_27
REMARK    9  A    between atoms: C_27  and  O_28
REMARK   10  A    between atoms: C_30  and  C_31
REMARK   11  A    between atoms: C_32  and  C_33
REMARK   12  A    between atoms: C_35  and  C_36
REMARK   13  A    between atoms: C_40  and  C_49
REMARK   14  A    between atoms: C_41  and  C_43
REMARK   15  A    between atoms: C_43  and  O_45
REMARK   16  A    between atoms: O_45  and  C_46
REMARK   17  A    between atoms: C_47  and  C_48
REMARK   18  A    between atoms: C_49  and  O_51
REMARK   19  A    between atoms: O_51  and  C_52
REMARK   20  A    between atoms: C_53  and  C_54
REMARK                            x       y       z     vdW  Elec       q    Type
REMARK                         _______ _______ _______ _____ _____    ______ ____
ROOT
ATOM      1  C   UNL     1       3.807   3.639  25.862  0.00  0.00    -0.019 A 
ATOM      2  C   UNL     1       2.889   2.765  26.692  0.00  0.00    -0.022 A 
ATOM      3  C   UNL     1       2.168   3.268  27.920  0.00  0.00    +0.046 C 
ATOM      4  C   UNL     1       2.863   1.440  26.226  0.00  0.00    +0.045 A 
ATOM      5  C   UNL     1       2.051   0.154  26.791  0.00  0.00    +0.050 C 
ATOM      6  C   UNL     1       2.528  -1.146  26.897  0.00  0.00    +0.055 C 
ATOM      7  C   UNL     1       2.140  -2.829  27.309  0.00  0.00    +0.054 C 
ATOM      8  C   UNL     1       0.909  -3.224  26.440  0.00  0.00    +0.024 C 
ATOM      9  C   UNL     1       3.502  -3.406  26.818  0.00  0.00    -0.009 C 
ATOM     10  C   UNL     1       4.092  -4.586  26.995  0.00  0.00    +0.007 C 
ATOM     11  C   UNL     1       3.499  -5.602  27.788  0.00  0.00    +0.012 C 
ATOM     12  C   UNL     1       2.513  -5.274  28.639  0.00  0.00    +0.051 C 
ATOM     13  C   UNL     1       4.326  -2.280  26.386  0.00  0.00    +0.070 C 
ATOM     14  C   UNL     1       5.729  -2.333  26.011  0.00  0.00    +0.054 C 
ATOM     15  C   UNL     1       6.569  -1.330  26.325  0.00  0.00    +0.045 A 
ATOM     16  C   UNL     1       6.464  -0.116  27.182  0.00  0.00    -0.018 A 
ATOM     17  C   UNL     1       5.381   0.306  28.116  0.00  0.00    +0.046 C 
ATOM     18  C   UNL     1       7.480   0.733  26.892  0.00  0.00    +0.003 A 
ATOM     19  C   UNL     1       8.371   0.009  25.963  0.00  0.00    +0.049 A 
ATOM     20  C   UNL     1       9.163   0.700  25.141  0.00  0.00    +0.054 C 
ATOM     21  C   UNL     1       8.242   1.519  24.300  0.00  0.00    +0.070 C 
ATOM     22  C   UNL     1       8.763   2.833  23.755  0.00  0.00    -0.020 C 
ATOM     23  C   UNL     1      10.160   3.355  23.896  0.00  0.00    +0.046 C 
ATOM     24  C   UNL     1       7.985   2.680  22.664  0.00  0.00    -0.017 C 
ATOM     25  C   UNL     1       6.621   2.255  23.303  0.00  0.00    +0.070 C 
ATOM     26  C   UNL     1       5.587   3.041  23.841  0.00  0.00    +0.054 C 
ATOM     27  N   UNL     1       7.038   1.113  23.939  0.00  0.00    -0.247 NA
ATOM     28  N   UNL     1       7.772  -1.201  25.649  0.00  0.00    -0.354 N 
ATOM     29  H   UNL     1       7.703  -1.392  24.647  0.00  0.00    +0.166 HD
ATOM     30  C   UNL     1       1.876  -3.856  28.672  0.00  0.00    +0.151 C 
ATOM     31  N   UNL     1       3.756  -1.147  26.325  0.00  0.00    -0.251 NA
ATOM     32  N   UNL     1       3.877   1.477  25.183  0.00  0.00    -0.355 N 
ATOM     33  H   UNL     1       4.192   0.640  24.721  0.00  0.00    +0.166 HD
ATOM     34  C   UNL     1       4.484   2.782  24.929  0.00  0.00    +0.045 A 
ENDROOT
BRANCH  12  35
ATOM     35  C   UNL     1       2.107  -6.536  29.374  0.00  0.00    +0.336 C 
ATOM     36  O   UNL     1       2.756  -7.037  30.318  0.00  0.00    -0.245 OA
BRANCH  35  37
ATOM     37  O   UNL     1       1.009  -7.155  28.851  0.00  0.00    -0.465 OA
ATOM     38  C   UNL     1       1.119  -7.371  27.416  0.00  0.00    +0.280 C 
ENDBRANCH  35  37
ENDBRANCH  12  35
BRANCH  18  39
ATOM     39  C   UNL     1       7.308   2.185  27.077  0.00  0.00    +0.002 C 
ATOM     40  C   UNL     1       6.692   2.872  28.044  0.00  0.00    +0.009 C 
ENDBRANCH  18  39
BRANCH  30  41
ATOM     41  C   UNL     1       1.937  -3.064  29.945  0.00  0.00    +0.316 C 
ATOM     42  O   UNL     1       3.020  -2.825  30.481  0.00  0.00    -0.250 OA
BRANCH  41  43
ATOM     43  O   UNL     1       0.738  -2.636  30.402  0.00  0.00    -0.467 OA
ATOM     44  C   UNL     1       0.612  -1.211  30.485  0.00  0.00    +0.280 C 
ENDBRANCH  41  43
ENDBRANCH  30  41
BRANCH   1  45
ATOM     45  C   UNL     1       3.846   5.147  26.302  0.00  0.00    +0.048 C 
BRANCH  45  46
ATOM     46  C   UNL     1       3.933   6.440  25.503  0.00  0.00    +0.125 C 
BRANCH  46  47
ATOM     47  C   UNL     1       4.362   6.416  24.061  0.00  0.00    +0.307 C 
ATOM     48  O   UNL     1       3.575   6.186  23.147  0.00  0.00    -0.251 OA
BRANCH  47  50
ATOM     49  C   UNL     1       6.106   6.684  22.539  0.00  0.00    +0.280 C 
ATOM     50  O   UNL     1       5.703   6.540  23.904  0.00  0.00    -0.468 OA
ENDBRANCH  47  50
ENDBRANCH  46  47
ENDBRANCH  45  46
ENDBRANCH   1  45
BRANCH  24  51
ATOM     51  C   UNL     1       8.876   1.845  21.534  0.00  0.00    +0.049 C 
BRANCH  51  52
ATOM     52  C   UNL     1       8.584   0.318  21.051  0.00  0.00    +0.125 C 
BRANCH  52  53
ATOM     53  C   UNL     1       8.998  -0.934  21.822  0.00  0.00    +0.305 C 
ATOM     54  O   UNL     1       8.233  -1.526  22.591  0.00  0.00    -0.251 OA
BRANCH  53  55
ATOM     55  O   UNL     1      10.255  -1.378  21.609  0.00  0.00    -0.481 OA
ATOM     56  H   UNL     1      10.364  -1.889  20.773  0.00  0.00    +0.295 HD
ENDBRANCH  53  55
ENDBRANCH  52  53
ENDBRANCH  51  52
ENDBRANCH  24  51
TORSDOF 13
ENDMDL
