MODEL 1
REMARK VINA RESULT:      -6.7      0.000      0.000
REMARK  Name = 
REMARK  4 active torsions:
REMARK  status: ('A' for Active; 'I' for Inactive)
REMARK    1  A    between atoms: O_1  and  C_2
REMARK    2  A    between atoms: C_3  and  C_9
REMARK    3  A    between atoms: N_11  and  C_12
REMARK    4  A    between atoms: C_16  and  N_19
REMARK                            x       y       z     vdW  Elec       q    Type
REMARK                         _______ _______ _______ _____ _____    ______ ____
ROOT
ATOM      1  C   UNL     1       9.228   2.075  23.788  0.00  0.00    +0.252 C 
ATOM      2  N   UNL     1      10.072   0.976  23.828  0.00  0.00    -0.280 N 
ATOM      3  H   UNL     1      11.025   1.102  23.502  0.00  0.00    +0.155 HD
ATOM      4  O   UNL     1       8.009   2.003  23.647  0.00  0.00    -0.270 OA
ENDROOT
BRANCH   1  11
ATOM      5  C   UNL     1       9.133   4.487  24.443  0.00  0.00    +0.129 A 
ATOM      6  C   UNL     1       9.692   5.760  24.558  0.00  0.00    +0.047 A 
ATOM      7  C   UNL     1      10.972   5.998  24.061  0.00  0.00    +0.023 A 
ATOM      8  C   UNL     1      11.678   4.965  23.446  0.00  0.00    +0.042 A 
ATOM      9 CL   UNL     1      13.260   5.264  22.839  0.00  0.00    -0.084 Cl
ATOM     10  C   UNL     1      11.124   3.684  23.330  0.00  0.00    +0.036 A 
ATOM     11  C   UNL     1       9.843   3.435  23.831  0.00  0.00    +0.080 A 
BRANCH   5  12
ATOM     12  O   UNL     1       7.875   4.349  24.965  0.00  0.00    -0.506 OA
ATOM     13  H   UNL     1       7.229   4.666  24.291  0.00  0.00    +0.292 HD
ENDBRANCH   5  12
ENDBRANCH   1  11
BRANCH   2  14
ATOM     14  C   UNL     1       9.585  -0.356  23.805  0.00  0.00    +0.053 A 
ATOM     15  C   UNL     1       9.443  -1.094  24.988  0.00  0.00    +0.031 A 
ATOM     16  C   UNL     1       8.932  -2.394  24.960  0.00  0.00    +0.086 A 
ATOM     17  C   UNL     1       8.550  -2.959  23.735  0.00  0.00    +0.275 A 
ATOM     18  C   UNL     1       8.712  -2.245  22.542  0.00  0.00    +0.106 A 
ATOM     19  C   UNL     1       9.251  -0.955  22.580  0.00  0.00    +0.069 A 
ATOM     20 CL   UNL     1       9.402  -0.081  21.097  0.00  0.00    -0.081 Cl
BRANCH  17  21
ATOM     21  N   UNL     1       7.974  -4.308  23.704  0.00  0.00    +0.080 N 
ATOM     22  O   UNL     1       6.800  -4.426  23.324  0.00  0.00    +0.041 OA
ATOM     23  O   UNL     1       8.696  -5.248  24.064  0.00  0.00    -0.576 OA
ENDBRANCH  17  21
ENDBRANCH   2  14
TORSDOF 4
ENDMDL
MODEL 2
REMARK VINA RESULT:      -6.6      3.008      7.932
REMARK  Name = 
REMARK  4 active torsions:
REMARK  status: ('A' for Active; 'I' for Inactive)
REMARK    1  A    between atoms: O_1  and  C_2
REMARK    2  A    between atoms: C_3  and  C_9
REMARK    3  A    between atoms: N_11  and  C_12
REMARK    4  A    between atoms: C_16  and  N_19
REMARK                            x       y       z     vdW  Elec       q    Type
REMARK                         _______ _______ _______ _____ _____    ______ ____
ROOT
ATOM      1  C   UNL     1       8.661  -2.184  23.622  0.00  0.00    +0.252 C 
ATOM      2  N   UNL     1       8.122  -0.993  23.162  0.00  0.00    -0.280 N 
ATOM      3  H   UNL     1       7.405  -1.046  22.444  0.00  0.00    +0.155 HD
ATOM      4  O   UNL     1       9.805  -2.300  24.055  0.00  0.00    -0.270 OA
ENDROOT
BRANCH   1  11
ATOM      5  C   UNL     1       7.385  -4.059  24.675  0.00  0.00    +0.129 A 
ATOM      6  C   UNL     1       6.562  -5.184  24.611  0.00  0.00    +0.047 A 
ATOM      7  C   UNL     1       6.177  -5.688  23.370  0.00  0.00    +0.023 A 
ATOM      8  C   UNL     1       6.625  -5.068  22.204  0.00  0.00    +0.042 A 
ATOM      9 CL   UNL     1       6.142  -5.692  20.675  0.00  0.00    -0.084 Cl
ATOM     10  C   UNL     1       7.448  -3.937  22.261  0.00  0.00    +0.036 A 
ATOM     11  C   UNL     1       7.834  -3.422  23.501  0.00  0.00    +0.080 A 
BRANCH   5  12
ATOM     12  O   UNL     1       7.704  -3.637  25.937  0.00  0.00    -0.506 OA
ATOM     13  H   UNL     1       6.887  -3.280  26.356  0.00  0.00    +0.292 HD
ENDBRANCH   5  12
ENDBRANCH   1  11
BRANCH   2  14
ATOM     14  C   UNL     1       8.821   0.238  23.242  0.00  0.00    +0.053 A 
ATOM     15  C   UNL     1       9.582   0.708  22.163  0.00  0.00    +0.031 A 
ATOM     16  C   UNL     1      10.242   1.937  22.238  0.00  0.00    +0.086 A 
ATOM     17  C   UNL     1      10.132   2.709  23.404  0.00  0.00    +0.275 A 
ATOM     18  C   UNL     1       9.399   2.241  24.500  0.00  0.00    +0.106 A 
ATOM     19  C   UNL     1       8.766   0.996  24.423  0.00  0.00    +0.069 A 
ATOM     20 CL   UNL     1       7.834   0.460  25.775  0.00  0.00    -0.081 Cl
BRANCH  17  21
ATOM     21  N   UNL     1      10.789   4.020  23.473  0.00  0.00    +0.080 N 
ATOM     22  O   UNL     1      12.011   4.064  23.267  0.00  0.00    +0.041 OA
ATOM     23  O   UNL     1      10.083   5.002  23.736  0.00  0.00    -0.576 OA
ENDBRANCH  17  21
ENDBRANCH   2  14
TORSDOF 4
ENDMDL
MODEL 3
REMARK VINA RESULT:      -6.6      3.535      4.863
REMARK  Name = 
REMARK  4 active torsions:
REMARK  status: ('A' for Active; 'I' for Inactive)
REMARK    1  A    between atoms: O_1  and  C_2
REMARK    2  A    between atoms: C_3  and  C_9
REMARK    3  A    between atoms: N_11  and  C_12
REMARK    4  A    between atoms: C_16  and  N_19
REMARK                            x       y       z     vdW  Elec       q    Type
REMARK                         _______ _______ _______ _____ _____    ______ ____
ROOT
ATOM      1  C   UNL     1       8.832  -1.107  25.284  0.00  0.00    +0.252 C 
ATOM      2  N   UNL     1       7.977  -2.135  24.915  0.00  0.00    -0.280 N 
ATOM      3  H   UNL     1       7.379  -1.983  24.109  0.00  0.00    +0.155 HD
ATOM      4  O   UNL     1       9.210  -0.906  26.436  0.00  0.00    -0.270 OA
ENDROOT
BRANCH   1  11
ATOM      5  C   UNL     1       9.552  -0.603  22.943  0.00  0.00    +0.129 A 
ATOM      6  C   UNL     1       9.890   0.279  21.916  0.00  0.00    +0.047 A 
ATOM      7  C   UNL     1       9.929   1.649  22.168  0.00  0.00    +0.023 A 
ATOM      8  C   UNL     1       9.639   2.124  23.446  0.00  0.00    +0.042 A 
ATOM      9 CL   UNL     1       9.683   3.817  23.749  0.00  0.00    -0.084 Cl
ATOM     10  C   UNL     1       9.296   1.246  24.480  0.00  0.00    +0.036 A 
ATOM     11  C   UNL     1       9.249  -0.130  24.235  0.00  0.00    +0.080 A 
BRANCH   5  12
ATOM     12  O   UNL     1       9.536  -1.928  22.598  0.00  0.00    -0.506 OA
ATOM     13  H   UNL     1       8.823  -2.061  21.931  0.00  0.00    +0.292 HD
ENDBRANCH   5  12
ENDBRANCH   1  11
BRANCH   2  14
ATOM     14  C   UNL     1       7.534  -3.119  25.834  0.00  0.00    +0.053 A 
ATOM     15  C   UNL     1       6.359  -2.937  26.578  0.00  0.00    +0.031 A 
ATOM     16  C   UNL     1       5.911  -3.926  27.457  0.00  0.00    +0.086 A 
ATOM     17  C   UNL     1       6.643  -5.115  27.587  0.00  0.00    +0.275 A 
ATOM     18  C   UNL     1       7.832  -5.301  26.873  0.00  0.00    +0.106 A 
ATOM     19  C   UNL     1       8.284  -4.292  26.017  0.00  0.00    +0.069 A 
ATOM     20 CL   UNL     1       9.734  -4.563  25.117  0.00  0.00    -0.081 Cl
BRANCH  17  21
ATOM     21  N   UNL     1       6.155  -6.175  28.478  0.00  0.00    +0.080 N 
ATOM     22  O   UNL     1       6.335  -6.032  29.696  0.00  0.00    +0.041 OA
ATOM     23  O   UNL     1       5.595  -7.149  27.958  0.00  0.00    -0.576 OA
ENDBRANCH  17  21
ENDBRANCH   2  14
TORSDOF 4
ENDMDL
MODEL 4
REMARK VINA RESULT:      -6.6      1.589      1.899
REMARK  Name = 
REMARK  4 active torsions:
REMARK  status: ('A' for Active; 'I' for Inactive)
REMARK    1  A    between atoms: O_1  and  C_2
REMARK    2  A    between atoms: C_3  and  C_9
REMARK    3  A    between atoms: N_11  and  C_12
REMARK    4  A    between atoms: C_16  and  N_19
REMARK                            x       y       z     vdW  Elec       q    Type
REMARK                         _______ _______ _______ _____ _____    ______ ____
ROOT
ATOM      1  C   UNL     1       9.421   1.825  23.725  0.00  0.00    +0.252 C 
ATOM      2  N   UNL     1      10.073   0.903  24.530  0.00  0.00    -0.280 N 
ATOM      3  H   UNL     1      11.045   1.086  24.762  0.00  0.00    +0.155 HD
ATOM      4  O   UNL     1       8.498   1.543  22.963  0.00  0.00    -0.270 OA
ENDROOT
BRANCH   1  11
ATOM      5  C   UNL     1       9.067   4.268  24.127  0.00  0.00    +0.129 A 
ATOM      6  C   UNL     1       9.514   5.588  24.189  0.00  0.00    +0.047 A 
ATOM      7  C   UNL     1      10.829   5.889  23.838  0.00  0.00    +0.023 A 
ATOM      8  C   UNL     1      11.682   4.869  23.420  0.00  0.00    +0.042 A 
ATOM      9 CL   UNL     1      13.306   5.246  22.993  0.00  0.00    -0.084 Cl
ATOM     10  C   UNL     1      11.242   3.541  23.358  0.00  0.00    +0.036 A 
ATOM     11  C   UNL     1       9.926   3.230  23.714  0.00  0.00    +0.080 A 
BRANCH   5  12
ATOM     12  O   UNL     1       7.763   4.071  24.495  0.00  0.00    -0.506 OA
ATOM     13  H   UNL     1       7.251   4.874  24.245  0.00  0.00    +0.292 HD
ENDBRANCH   5  12
ENDBRANCH   1  11
BRANCH   2  14
ATOM     14  C   UNL     1       9.663  -0.451  24.618  0.00  0.00    +0.053 A 
ATOM     15  C   UNL     1      10.193  -1.425  23.760  0.00  0.00    +0.031 A 
ATOM     16  C   UNL     1       9.808  -2.762  23.876  0.00  0.00    +0.086 A 
ATOM     17  C   UNL     1       8.888  -3.132  24.867  0.00  0.00    +0.275 A 
ATOM     18  C   UNL     1       8.329  -2.169  25.714  0.00  0.00    +0.106 A 
ATOM     19  C   UNL     1       8.701  -0.828  25.570  0.00  0.00    +0.069 A 
ATOM     20 CL   UNL     1       8.026   0.335  26.654  0.00  0.00    -0.081 Cl
BRANCH  17  21
ATOM     21  N   UNL     1       8.512  -4.543  25.020  0.00  0.00    +0.080 N 
ATOM     22  O   UNL     1       9.237  -5.394  24.485  0.00  0.00    +0.041 OA
ATOM     23  O   UNL     1       7.490  -4.796  25.672  0.00  0.00    -0.576 OA
ENDBRANCH  17  21
ENDBRANCH   2  14
TORSDOF 4
ENDMDL
MODEL 5
REMARK VINA RESULT:      -6.5      1.478      1.727
REMARK  Name = 
REMARK  4 active torsions:
REMARK  status: ('A' for Active; 'I' for Inactive)
REMARK    1  A    between atoms: O_1  and  C_2
REMARK    2  A    between atoms: C_3  and  C_9
REMARK    3  A    between atoms: N_11  and  C_12
REMARK    4  A    between atoms: C_16  and  N_19
REMARK                            x       y       z     vdW  Elec       q    Type
REMARK                         _______ _______ _______ _____ _____    ______ ____
ROOT
ATOM      1  C   UNL     1       9.365   1.670  23.936  0.00  0.00    +0.252 C 
ATOM      2  N   UNL     1       8.302   1.295  23.129  0.00  0.00    -0.280 N 
ATOM      3  H   UNL     1       7.671   2.025  22.813  0.00  0.00    +0.155 HD
ATOM      4  O   UNL     1       9.879   0.939  24.781  0.00  0.00    -0.270 OA
ENDROOT
BRANCH   1  11
ATOM      5  C   UNL     1       8.994   4.129  24.192  0.00  0.00    +0.129 A 
ATOM      6  C   UNL     1       9.431   5.454  24.172  0.00  0.00    +0.047 A 
ATOM      7  C   UNL     1      10.742   5.743  23.798  0.00  0.00    +0.023 A 
ATOM      8  C   UNL     1      11.602   4.706  23.439  0.00  0.00    +0.042 A 
ATOM      9 CL   UNL     1      13.221   5.068  22.984  0.00  0.00    -0.084 Cl
ATOM     10  C   UNL     1      11.171   3.374  23.460  0.00  0.00    +0.036 A 
ATOM     11  C   UNL     1       9.860   3.075  23.839  0.00  0.00    +0.080 A 
BRANCH   5  12
ATOM     12  O   UNL     1       7.693   3.946  24.576  0.00  0.00    -0.506 OA
ATOM     13  H   UNL     1       7.112   4.332  23.881  0.00  0.00    +0.292 HD
ENDBRANCH   5  12
ENDBRANCH   1  11
BRANCH   2  14
ATOM     14  C   UNL     1       7.768  -0.019  23.139  0.00  0.00    +0.053 A 
ATOM     15  C   UNL     1       6.634  -0.332  23.900  0.00  0.00    +0.031 A 
ATOM     16  C   UNL     1       6.094  -1.621  23.879  0.00  0.00    +0.086 A 
ATOM     17  C   UNL     1       6.692  -2.605  23.079  0.00  0.00    +0.275 A 
ATOM     18  C   UNL     1       7.841  -2.316  22.334  0.00  0.00    +0.106 A 
ATOM     19  C   UNL     1       8.388  -1.030  22.386  0.00  0.00    +0.069 A 
ATOM     20 CL   UNL     1       9.783  -0.688  21.426  0.00  0.00    -0.081 Cl
BRANCH  17  21
ATOM     21  N   UNL     1       6.105  -3.949  23.021  0.00  0.00    +0.080 N 
ATOM     22  O   UNL     1       6.702  -4.865  23.605  0.00  0.00    +0.041 OA
ATOM     23  O   UNL     1       5.050  -4.087  22.387  0.00  0.00    -0.576 OA
ENDBRANCH  17  21
ENDBRANCH   2  14
TORSDOF 4
ENDMDL
MODEL 6
REMARK VINA RESULT:      -6.5      3.258      4.565
REMARK  Name = 
REMARK  4 active torsions:
REMARK  status: ('A' for Active; 'I' for Inactive)
REMARK    1  A    between atoms: O_1  and  C_2
REMARK    2  A    between atoms: C_3  and  C_9
REMARK    3  A    between atoms: N_11  and  C_12
REMARK    4  A    between atoms: C_16  and  N_19
REMARK                            x       y       z     vdW  Elec       q    Type
REMARK                         _______ _______ _______ _____ _____    ______ ____
ROOT
ATOM      1  C   UNL     1       8.413  -1.613  23.761  0.00  0.00    +0.252 C 
ATOM      2  N   UNL     1       7.073  -1.787  24.075  0.00  0.00    -0.280 N 
ATOM      3  H   UNL     1       6.567  -0.987  24.441  0.00  0.00    +0.155 HD
ATOM      4  O   UNL     1       9.253  -2.508  23.810  0.00  0.00    -0.270 OA
ENDROOT
BRANCH   1  11
ATOM      5  C   UNL     1       9.566  -0.018  22.218  0.00  0.00    +0.129 A 
ATOM      6  C   UNL     1       9.972   1.262  21.840  0.00  0.00    +0.047 A 
ATOM      7  C   UNL     1       9.700   2.346  22.673  0.00  0.00    +0.023 A 
ATOM      8  C   UNL     1       9.032   2.139  23.879  0.00  0.00    +0.042 A 
ATOM      9 CL   UNL     1       8.694   3.482  24.900  0.00  0.00    -0.084 Cl
ATOM     10  C   UNL     1       8.619   0.857  24.263  0.00  0.00    +0.036 A 
ATOM     11  C   UNL     1       8.883  -0.234  23.431  0.00  0.00    +0.080 A 
BRANCH   5  12
ATOM     12  O   UNL     1       9.874  -1.017  21.333  0.00  0.00    -0.506 OA
ATOM     13  H   UNL     1       9.701  -1.880  21.776  0.00  0.00    +0.292 HD
ENDBRANCH   5  12
ENDBRANCH   1  11
BRANCH   2  14
ATOM     14  C   UNL     1       6.527  -3.057  24.390  0.00  0.00    +0.053 A 
ATOM     15  C   UNL     1       6.604  -3.574  25.691  0.00  0.00    +0.031 A 
ATOM     16  C   UNL     1       6.035  -4.811  26.002  0.00  0.00    +0.086 A 
ATOM     17  C   UNL     1       5.374  -5.537  25.000  0.00  0.00    +0.275 A 
ATOM     18  C   UNL     1       5.312  -5.048  23.690  0.00  0.00    +0.106 A 
ATOM     19  C   UNL     1       5.910  -3.821  23.386  0.00  0.00    +0.069 A 
ATOM     20 CL   UNL     1       5.785  -3.222  21.771  0.00  0.00    -0.081 Cl
BRANCH  17  21
ATOM     21  N   UNL     1       4.738  -6.818  25.330  0.00  0.00    +0.080 N 
ATOM     22  O   UNL     1       4.678  -7.141  26.526  0.00  0.00    +0.041 OA
ATOM     23  O   UNL     1       4.303  -7.501  24.393  0.00  0.00    -0.576 OA
ENDBRANCH  17  21
ENDBRANCH   2  14
TORSDOF 4
ENDMDL
MODEL 7
REMARK VINA RESULT:      -6.4      2.344      2.899
REMARK  Name = 
REMARK  4 active torsions:
REMARK  status: ('A' for Active; 'I' for Inactive)
REMARK    1  A    between atoms: O_1  and  C_2
REMARK    2  A    between atoms: C_3  and  C_9
REMARK    3  A    between atoms: N_11  and  C_12
REMARK    4  A    between atoms: C_16  and  N_19
REMARK                            x       y       z     vdW  Elec       q    Type
REMARK                         _______ _______ _______ _____ _____    ______ ____
ROOT
ATOM      1  C   UNL     1       8.806   2.163  24.324  0.00  0.00    +0.252 C 
ATOM      2  N   UNL     1       9.691   1.253  24.881  0.00  0.00    -0.280 N 
ATOM      3  H   UNL     1      10.643   1.564  25.047  0.00  0.00    +0.155 HD
ATOM      4  O   UNL     1       7.851   1.851  23.617  0.00  0.00    -0.270 OA
ENDROOT
BRANCH   1  11
ATOM      5  C   UNL     1      10.122   4.222  23.790  0.00  0.00    +0.129 A 
ATOM      6  C   UNL     1      10.376   5.589  23.896  0.00  0.00    +0.047 A 
ATOM      7  C   UNL     1       9.588   6.374  24.737  0.00  0.00    +0.023 A 
ATOM      8  C   UNL     1       8.560   5.782  25.469  0.00  0.00    +0.042 A 
ATOM      9 CL   UNL     1       7.587   6.757  26.502  0.00  0.00    -0.084 Cl
ATOM     10  C   UNL     1       8.297   4.411  25.365  0.00  0.00    +0.036 A 
ATOM     11  C   UNL     1       9.079   3.618  24.520  0.00  0.00    +0.080 A 
BRANCH   5  12
ATOM     12  O   UNL     1      10.945   3.536  22.936  0.00  0.00    -0.506 OA
ATOM     13  H   UNL     1      11.864   3.594  23.287  0.00  0.00    +0.292 HD
ENDBRANCH   5  12
ENDBRANCH   1  11
BRANCH   2  14
ATOM     14  C   UNL     1       9.513  -0.149  24.762  0.00  0.00    +0.053 A 
ATOM     15  C   UNL     1      10.109  -0.866  23.715  0.00  0.00    +0.031 A 
ATOM     16  C   UNL     1       9.956  -2.252  23.624  0.00  0.00    +0.086 A 
ATOM     17  C   UNL     1       9.204  -2.929  24.595  0.00  0.00    +0.275 A 
ATOM     18  C   UNL     1       8.579  -2.224  25.629  0.00  0.00    +0.106 A 
ATOM     19  C   UNL     1       8.717  -0.833  25.694  0.00  0.00    +0.069 A 
ATOM     20 CL   UNL     1       7.969   0.008  27.005  0.00  0.00    -0.081 Cl
BRANCH  17  21
ATOM     21  N   UNL     1       9.074  -4.389  24.526  0.00  0.00    +0.080 N 
ATOM     22  O   UNL     1      10.002  -5.072  24.983  0.00  0.00    +0.041 OA
ATOM     23  O   UNL     1       8.046  -4.850  24.013  0.00  0.00    -0.576 OA
ENDBRANCH  17  21
ENDBRANCH   2  14
TORSDOF 4
ENDMDL
MODEL 8
REMARK VINA RESULT:      -6.4      1.953      2.414
REMARK  Name = 
REMARK  4 active torsions:
REMARK  status: ('A' for Active; 'I' for Inactive)
REMARK    1  A    between atoms: O_1  and  C_2
REMARK    2  A    between atoms: C_3  and  C_9
REMARK    3  A    between atoms: N_11  and  C_12
REMARK    4  A    between atoms: C_16  and  N_19
REMARK                            x       y       z     vdW  Elec       q    Type
REMARK                         _______ _______ _______ _____ _____    ______ ____
ROOT
ATOM      1  C   UNL     1       8.665   2.248  24.515  0.00  0.00    +0.252 C 
ATOM      2  N   UNL     1       9.659   1.351  24.874  0.00  0.00    -0.280 N 
ATOM      3  H   UNL     1      10.622   1.672  24.827  0.00  0.00    +0.155 HD
ATOM      4  O   UNL     1       7.582   1.920  24.035  0.00  0.00    -0.270 OA
ENDROOT
BRANCH   1  11
ATOM      5  C   UNL     1       9.946   4.275  23.806  0.00  0.00    +0.129 A 
ATOM      6  C   UNL     1      10.213   5.644  23.841  0.00  0.00    +0.047 A 
ATOM      7  C   UNL     1       9.495   6.465  24.709  0.00  0.00    +0.023 A 
ATOM      8  C   UNL     1       8.523   5.909  25.538  0.00  0.00    +0.042 A 
ATOM      9 CL   UNL     1       7.635   6.929  26.603  0.00  0.00    -0.084 Cl
ATOM     10  C   UNL     1       8.247   4.537  25.506  0.00  0.00    +0.036 A 
ATOM     11  C   UNL     1       8.958   3.708  24.635  0.00  0.00    +0.080 A 
BRANCH   5  12
ATOM     12  O   UNL     1      10.699   3.553  22.919  0.00  0.00    -0.506 OA
ATOM     13  H   UNL     1      10.877   2.670  23.319  0.00  0.00    +0.292 HD
ENDBRANCH   5  12
ENDBRANCH   1  11
BRANCH   2  14
ATOM     14  C   UNL     1       9.474  -0.053  24.808  0.00  0.00    +0.053 A 
ATOM     15  C   UNL     1       9.020  -0.775  25.921  0.00  0.00    +0.031 A 
ATOM     16  C   UNL     1       8.809  -2.154  25.837  0.00  0.00    +0.086 A 
ATOM     17  C   UNL     1       9.048  -2.816  24.624  0.00  0.00    +0.275 A 
ATOM     18  C   UNL     1       9.528  -2.115  23.513  0.00  0.00    +0.106 A 
ATOM     19  C   UNL     1       9.761  -0.739  23.617  0.00  0.00    +0.069 A 
ATOM     20 CL   UNL     1      10.315   0.110  22.219  0.00  0.00    -0.081 Cl
BRANCH  17  21
ATOM     21  N   UNL     1       8.788  -4.257  24.520  0.00  0.00    +0.080 N 
ATOM     22  O   UNL     1       9.718  -5.031  24.790  0.00  0.00    +0.041 OA
ATOM     23  O   UNL     1       7.656  -4.612  24.165  0.00  0.00    -0.576 OA
ENDBRANCH  17  21
ENDBRANCH   2  14
TORSDOF 4
ENDMDL
MODEL 9
REMARK VINA RESULT:      -6.3      2.713      7.831
REMARK  Name = 
REMARK  4 active torsions:
REMARK  status: ('A' for Active; 'I' for Inactive)
REMARK    1  A    between atoms: O_1  and  C_2
REMARK    2  A    between atoms: C_3  and  C_9
REMARK    3  A    between atoms: N_11  and  C_12
REMARK    4  A    between atoms: C_16  and  N_19
REMARK                            x       y       z     vdW  Elec       q    Type
REMARK                         _______ _______ _______ _____ _____    ______ ____
ROOT
ATOM      1  C   UNL     1       8.473  -1.187  22.623  0.00  0.00    +0.252 C 
ATOM      2  N   UNL     1       8.057  -0.293  23.599  0.00  0.00    -0.280 N 
ATOM      3  H   UNL     1       7.261  -0.558  24.171  0.00  0.00    +0.155 HD
ATOM      4  O   UNL     1       9.020  -0.855  21.574  0.00  0.00    -0.270 OA
ENDROOT
BRANCH   1  11
ATOM      5  C   UNL     1       8.596  -3.277  23.990  0.00  0.00    +0.129 A 
ATOM      6  C   UNL     1       8.275  -4.612  24.240  0.00  0.00    +0.047 A 
ATOM      7  C   UNL     1       7.510  -5.322  23.317  0.00  0.00    +0.023 A 
ATOM      8  C   UNL     1       7.081  -4.695  22.149  0.00  0.00    +0.042 A 
ATOM      9 CL   UNL     1       6.132  -5.576  21.015  0.00  0.00    -0.084 Cl
ATOM     10  C   UNL     1       7.396  -3.355  21.892  0.00  0.00    +0.036 A 
ATOM     11  C   UNL     1       8.158  -2.634  22.816  0.00  0.00    +0.080 A 
BRANCH   5  12
ATOM     12  O   UNL     1       9.346  -2.663  24.957  0.00  0.00    -0.506 OA
ATOM     13  H   UNL     1       9.014  -2.960  25.836  0.00  0.00    +0.292 HD
ENDBRANCH   5  12
ENDBRANCH   1  11
BRANCH   2  14
ATOM     14  C   UNL     1       8.317   1.098  23.514  0.00  0.00    +0.053 A 
ATOM     15  C   UNL     1       7.421   1.963  22.871  0.00  0.00    +0.031 A 
ATOM     16  C   UNL     1       7.669   3.337  22.821  0.00  0.00    +0.086 A 
ATOM     17  C   UNL     1       8.824   3.852  23.428  0.00  0.00    +0.275 A 
ATOM     18  C   UNL     1       9.743   2.999  24.049  0.00  0.00    +0.106 A 
ATOM     19  C   UNL     1       9.496   1.622  24.068  0.00  0.00    +0.069 A 
ATOM     20 CL   UNL     1      10.626   0.595  24.877  0.00  0.00    -0.081 Cl
BRANCH  17  21
ATOM     21  N   UNL     1       9.069   5.299  23.414  0.00  0.00    +0.080 N 
ATOM     22  O   UNL     1      10.109   5.714  23.945  0.00  0.00    +0.041 OA
ATOM     23  O   UNL     1       8.218   6.020  22.874  0.00  0.00    -0.576 OA
ENDBRANCH  17  21
ENDBRANCH   2  14
TORSDOF 4
ENDMDL
