MODEL 1
REMARK VINA RESULT:      -4.7      0.000      0.000
REMARK  Name = 
REMARK  4 active torsions:
REMARK  status: ('A' for Active; 'I' for Inactive)
REMARK    1  A    between atoms: N_1  and  C_2
REMARK    2  A    between atoms: C_4  and  C_5
REMARK    3  A    between atoms: C_5  and  O_6
REMARK    4  A    between atoms: C_8  and  O_9
REMARK                            x       y       z     vdW  Elec       q    Type
REMARK                         _______ _______ _______ _____ _____    ______ ____
ROOT
ATOM      1  C   UNL     1       9.664  -1.589  23.351  0.00  0.00    +0.026 A 
ATOM      2  C   UNL     1       9.585  -1.552  21.957  0.00  0.00    +0.026 A 
ATOM      3  C   UNL     1       9.478  -0.338  21.277  0.00  0.00    +0.048 A 
ATOM      4  C   UNL     1       9.512   0.851  21.997  0.00  0.00    +0.131 A 
ATOM      5  C   UNL     1       9.661   0.843  23.384  0.00  0.00    +0.102 A 
ATOM      6  C   UNL     1       9.749  -0.384  24.053  0.00  0.00    +0.041 A 
ENDROOT
BRANCH   1   7
ATOM      7  N   UNL     1       9.899  -2.800  24.011  0.00  0.00    -0.358 N 
ATOM      8  H   UNL     1      10.436  -2.715  24.869  0.00  0.00    +0.142 HD
ATOM      9  H   UNL     1      10.257  -3.538  23.410  0.00  0.00    +0.142 HD
ENDBRANCH   1   7
BRANCH   4  10
ATOM     10  O   UNL     1       9.419   2.033  21.315  0.00  0.00    -0.506 OA
ATOM     11  H   UNL     1      10.271   2.140  20.844  0.00  0.00    +0.292 HD
ENDBRANCH   4  10
BRANCH   5  12
ATOM     12  C   UNL     1       9.718   2.085  24.197  0.00  0.00    +0.340 C 
ATOM     13  O   UNL     1      10.364   3.063  23.855  0.00  0.00    -0.245 OA
BRANCH  12  14
ATOM     14  O   UNL     1       8.972   2.049  25.322  0.00  0.00    -0.477 OA
ATOM     15  H   UNL     1       8.397   1.254  25.371  0.00  0.00    +0.295 HD
ENDBRANCH  12  14
ENDBRANCH   5  12
TORSDOF 4
ENDMDL
MODEL 2
REMARK VINA RESULT:      -4.7      1.882      2.771
REMARK  Name = 
REMARK  4 active torsions:
REMARK  status: ('A' for Active; 'I' for Inactive)
REMARK    1  A    between atoms: N_1  and  C_2
REMARK    2  A    between atoms: C_4  and  C_5
REMARK    3  A    between atoms: C_5  and  O_6
REMARK    4  A    between atoms: C_8  and  O_9
REMARK                            x       y       z     vdW  Elec       q    Type
REMARK                         _______ _______ _______ _____ _____    ______ ____
ROOT
ATOM      1  C   UNL     1       9.193  -0.582  25.295  0.00  0.00    +0.026 A 
ATOM      2  C   UNL     1       9.425  -1.903  24.902  0.00  0.00    +0.026 A 
ATOM      3  C   UNL     1       9.694  -2.218  23.569  0.00  0.00    +0.048 A 
ATOM      4  C   UNL     1       9.791  -1.194  22.634  0.00  0.00    +0.131 A 
ATOM      5  C   UNL     1       9.633   0.139  23.014  0.00  0.00    +0.102 A 
ATOM      6  C   UNL     1       9.346   0.437  24.352  0.00  0.00    +0.041 A 
ENDROOT
BRANCH   1   7
ATOM      7  N   UNL     1       9.052  -0.265  26.650  0.00  0.00    -0.358 N 
ATOM      8  H   UNL     1       9.928  -0.102  27.138  0.00  0.00    +0.142 HD
ATOM      9  H   UNL     1       8.442  -0.896  27.163  0.00  0.00    +0.142 HD
ENDBRANCH   1   7
BRANCH   4  10
ATOM     10  O   UNL     1      10.068  -1.517  21.334  0.00  0.00    -0.506 OA
ATOM     11  H   UNL     1       9.235  -1.377  20.838  0.00  0.00    +0.292 HD
ENDBRANCH   4  10
BRANCH   5  12
ATOM     12  C   UNL     1       9.742   1.269  22.056  0.00  0.00    +0.340 C 
ATOM     13  O   UNL     1      10.505   2.206  22.232  0.00  0.00    -0.245 OA
BRANCH  12  14
ATOM     14  O   UNL     1       8.953   1.155  20.966  0.00  0.00    -0.477 OA
ATOM     15  H   UNL     1       8.009   1.005  21.195  0.00  0.00    +0.295 HD
ENDBRANCH  12  14
ENDBRANCH   5  12
TORSDOF 4
ENDMDL
MODEL 3
REMARK VINA RESULT:      -4.6      3.003      3.687
REMARK  Name = 
REMARK  4 active torsions:
REMARK  status: ('A' for Active; 'I' for Inactive)
REMARK    1  A    between atoms: N_1  and  C_2
REMARK    2  A    between atoms: C_4  and  C_5
REMARK    3  A    between atoms: C_5  and  O_6
REMARK    4  A    between atoms: C_8  and  O_9
REMARK                            x       y       z     vdW  Elec       q    Type
REMARK                         _______ _______ _______ _____ _____    ______ ____
ROOT
ATOM      1  C   UNL     1       9.385   1.614  24.103  0.00  0.00    +0.026 A 
ATOM      2  C   UNL     1       9.602   1.862  22.745  0.00  0.00    +0.026 A 
ATOM      3  C   UNL     1       9.885   0.819  21.862  0.00  0.00    +0.048 A 
ATOM      4  C   UNL     1       9.888  -0.490  22.332  0.00  0.00    +0.131 A 
ATOM      5  C   UNL     1       9.605  -0.770  23.669  0.00  0.00    +0.102 A 
ATOM      6  C   UNL     1       9.341   0.290  24.546  0.00  0.00    +0.041 A 
ENDROOT
BRANCH   1   7
ATOM      7  N   UNL     1       8.978   2.649  24.951  0.00  0.00    -0.358 N 
ATOM      8  H   UNL     1       8.039   2.546  25.322  0.00  0.00    +0.142 HD
ATOM      9  H   UNL     1       9.139   3.581  24.577  0.00  0.00    +0.142 HD
ENDBRANCH   1   7
BRANCH   4  10
ATOM     10  O   UNL     1      10.153  -1.502  21.452  0.00  0.00    -0.506 OA
ATOM     11  H   UNL     1      10.103  -1.103  20.559  0.00  0.00    +0.292 HD
ENDBRANCH   4  10
BRANCH   5  12
ATOM     12  C   UNL     1       9.581  -2.150  24.217  0.00  0.00    +0.340 C 
ATOM     13  O   UNL     1      10.281  -3.045  23.771  0.00  0.00    -0.245 OA
BRANCH  12  14
ATOM     14  O   UNL     1       8.746  -2.319  25.266  0.00  0.00    -0.477 OA
ATOM     15  H   UNL     1       8.080  -3.025  25.110  0.00  0.00    +0.295 HD
ENDBRANCH  12  14
ENDBRANCH   5  12
TORSDOF 4
ENDMDL
MODEL 4
REMARK VINA RESULT:      -4.5      4.907      5.757
REMARK  Name = 
REMARK  4 active torsions:
REMARK  status: ('A' for Active; 'I' for Inactive)
REMARK    1  A    between atoms: N_1  and  C_2
REMARK    2  A    between atoms: C_4  and  C_5
REMARK    3  A    between atoms: C_5  and  O_6
REMARK    4  A    between atoms: C_8  and  O_9
REMARK                            x       y       z     vdW  Elec       q    Type
REMARK                         _______ _______ _______ _____ _____    ______ ____
ROOT
ATOM      1  C   UNL     1       9.407  -2.229  23.314  0.00  0.00    +0.026 A 
ATOM      2  C   UNL     1       8.330  -2.362  22.434  0.00  0.00    +0.026 A 
ATOM      3  C   UNL     1       7.487  -3.473  22.494  0.00  0.00    +0.048 A 
ATOM      4  C   UNL     1       7.689  -4.427  23.485  0.00  0.00    +0.131 A 
ATOM      5  C   UNL     1       8.714  -4.281  24.420  0.00  0.00    +0.102 A 
ATOM      6  C   UNL     1       9.562  -3.170  24.334  0.00  0.00    +0.041 A 
ENDROOT
BRANCH   1   7
ATOM      7  N   UNL     1      10.166  -1.054  23.326  0.00  0.00    -0.358 N 
ATOM      8  H   UNL     1       9.618  -0.199  23.361  0.00  0.00    +0.142 HD
ATOM      9  H   UNL     1      10.884  -1.015  22.608  0.00  0.00    +0.142 HD
ENDBRANCH   1   7
BRANCH   4  10
ATOM     10  O   UNL     1       6.846  -5.503  23.541  0.00  0.00    -0.506 OA
ATOM     11  H   UNL     1       5.939  -5.137  23.495  0.00  0.00    +0.292 HD
ENDBRANCH   4  10
BRANCH   5  12
ATOM     12  C   UNL     1       8.961  -5.264  25.506  0.00  0.00    +0.340 C 
ATOM     13  O   UNL     1       8.061  -5.733  26.183  0.00  0.00    -0.245 OA
BRANCH  12  14
ATOM     14  O   UNL     1      10.257  -5.614  25.657  0.00  0.00    -0.477 OA
ATOM     15  H   UNL     1      10.543  -6.296  25.009  0.00  0.00    +0.295 HD
ENDBRANCH  12  14
ENDBRANCH   5  12
TORSDOF 4
ENDMDL
MODEL 5
REMARK VINA RESULT:      -4.5      3.210      4.187
REMARK  Name = 
REMARK  4 active torsions:
REMARK  status: ('A' for Active; 'I' for Inactive)
REMARK    1  A    between atoms: N_1  and  C_2
REMARK    2  A    between atoms: C_4  and  C_5
REMARK    3  A    between atoms: C_5  and  O_6
REMARK    4  A    between atoms: C_8  and  O_9
REMARK                            x       y       z     vdW  Elec       q    Type
REMARK                         _______ _______ _______ _____ _____    ______ ____
ROOT
ATOM      1  C   UNL     1       9.274  -4.617  25.021  0.00  0.00    +0.026 A 
ATOM      2  C   UNL     1       8.040  -5.035  24.517  0.00  0.00    +0.026 A 
ATOM      3  C   UNL     1       7.372  -4.288  23.545  0.00  0.00    +0.048 A 
ATOM      4  C   UNL     1       7.975  -3.145  23.031  0.00  0.00    +0.131 A 
ATOM      5  C   UNL     1       9.238  -2.745  23.468  0.00  0.00    +0.102 A 
ATOM      6  C   UNL     1       9.887  -3.496  24.456  0.00  0.00    +0.041 A 
ENDROOT
BRANCH   1   7
ATOM      7  N   UNL     1       9.991  -5.438  25.898  0.00  0.00    -0.358 N 
ATOM      8  H   UNL     1      10.999  -5.391  25.790  0.00  0.00    +0.142 HD
ATOM      9  H   UNL     1       9.656  -6.398  25.936  0.00  0.00    +0.142 HD
ENDBRANCH   1   7
BRANCH   4  10
ATOM     10  O   UNL     1       7.314  -2.431  22.070  0.00  0.00    -0.506 OA
ATOM     11  H   UNL     1       7.646  -2.764  21.211  0.00  0.00    +0.292 HD
ENDBRANCH   4  10
BRANCH   5  12
ATOM     12  C   UNL     1       9.931  -1.543  22.939  0.00  0.00    +0.340 C 
ATOM     13  O   UNL     1      10.278  -0.618  23.656  0.00  0.00    -0.245 OA
BRANCH  12  14
ATOM     14  O   UNL     1      10.171  -1.576  21.611  0.00  0.00    -0.477 OA
ATOM     15  H   UNL     1       9.975  -0.721  21.168  0.00  0.00    +0.295 HD
ENDBRANCH  12  14
ENDBRANCH   5  12
TORSDOF 4
ENDMDL
MODEL 6
REMARK VINA RESULT:      -4.5      2.256      3.583
REMARK  Name = 
REMARK  4 active torsions:
REMARK  status: ('A' for Active; 'I' for Inactive)
REMARK    1  A    between atoms: N_1  and  C_2
REMARK    2  A    between atoms: C_4  and  C_5
REMARK    3  A    between atoms: C_5  and  O_6
REMARK    4  A    between atoms: C_8  and  O_9
REMARK                            x       y       z     vdW  Elec       q    Type
REMARK                         _______ _______ _______ _____ _____    ______ ____
ROOT
ATOM      1  C   UNL     1       8.663   1.244  25.173  0.00  0.00    +0.026 A 
ATOM      2  C   UNL     1       8.794   2.567  24.746  0.00  0.00    +0.026 A 
ATOM      3  C   UNL     1       9.357   2.868  23.504  0.00  0.00    +0.048 A 
ATOM      4  C   UNL     1       9.734   1.830  22.659  0.00  0.00    +0.131 A 
ATOM      5  C   UNL     1       9.548   0.499  23.033  0.00  0.00    +0.102 A 
ATOM      6  C   UNL     1       8.998   0.215  24.290  0.00  0.00    +0.041 A 
ENDROOT
BRANCH   1   7
ATOM      7  N   UNL     1       7.983   0.951  26.360  0.00  0.00    -0.358 N 
ATOM      8  H   UNL     1       7.224   1.590  26.580  0.00  0.00    +0.142 HD
ATOM      9  H   UNL     1       8.591   0.794  27.160  0.00  0.00    +0.142 HD
ENDBRANCH   1   7
BRANCH   4  10
ATOM     10  O   UNL     1      10.271   2.140  21.440  0.00  0.00    -0.506 OA
ATOM     11  H   UNL     1       9.527   2.121  20.804  0.00  0.00    +0.292 HD
ENDBRANCH   4  10
BRANCH   5  12
ATOM     12  C   UNL     1       9.919  -0.644  22.160  0.00  0.00    +0.340 C 
ATOM     13  O   UNL     1      10.592  -1.581  22.559  0.00  0.00    -0.245 OA
BRANCH  12  14
ATOM     14  O   UNL     1       9.423  -0.572  20.906  0.00  0.00    -0.477 OA
ATOM     15  H   UNL     1       9.542   0.316  20.502  0.00  0.00    +0.295 HD
ENDBRANCH  12  14
ENDBRANCH   5  12
TORSDOF 4
ENDMDL
MODEL 7
REMARK VINA RESULT:      -4.5      3.012      4.335
REMARK  Name = 
REMARK  4 active torsions:
REMARK  status: ('A' for Active; 'I' for Inactive)
REMARK    1  A    between atoms: N_1  and  C_2
REMARK    2  A    between atoms: C_4  and  C_5
REMARK    3  A    between atoms: C_5  and  O_6
REMARK    4  A    between atoms: C_8  and  O_9
REMARK                            x       y       z     vdW  Elec       q    Type
REMARK                         _______ _______ _______ _____ _____    ______ ____
ROOT
ATOM      1  C   UNL     1       9.828   1.457  22.646  0.00  0.00    +0.026 A 
ATOM      2  C   UNL     1       9.696   1.978  23.936  0.00  0.00    +0.026 A 
ATOM      3  C   UNL     1       9.421   1.145  25.021  0.00  0.00    +0.048 A 
ATOM      4  C   UNL     1       9.340  -0.229  24.821  0.00  0.00    +0.131 A 
ATOM      5  C   UNL     1       9.539  -0.781  23.555  0.00  0.00    +0.102 A 
ATOM      6  C   UNL     1       9.795   0.072  22.473  0.00  0.00    +0.041 A 
ENDROOT
BRANCH   1   7
ATOM      7  N   UNL     1      10.229   2.284  21.591  0.00  0.00    -0.358 N 
ATOM      8  H   UNL     1      11.145   2.067  21.210  0.00  0.00    +0.142 HD
ATOM      9  H   UNL     1      10.119   3.278  21.776  0.00  0.00    +0.142 HD
ENDBRANCH   1   7
BRANCH   4  10
ATOM     10  O   UNL     1       9.084  -1.034  25.897  0.00  0.00    -0.506 OA
ATOM     11  H   UNL     1       9.895  -1.566  26.035  0.00  0.00    +0.292 HD
ENDBRANCH   4  10
BRANCH   5  12
ATOM     12  C   UNL     1       9.478  -2.241  23.292  0.00  0.00    +0.340 C 
ATOM     13  O   UNL     1      10.190  -3.042  23.875  0.00  0.00    -0.245 OA
BRANCH  12  14
ATOM     14  O   UNL     1       8.549  -2.605  22.382  0.00  0.00    -0.477 OA
ATOM     15  H   UNL     1       7.865  -1.913  22.240  0.00  0.00    +0.295 HD
ENDBRANCH  12  14
ENDBRANCH   5  12
TORSDOF 4
ENDMDL
MODEL 8
REMARK VINA RESULT:      -4.5      3.501      4.230
REMARK  Name = 
REMARK  4 active torsions:
REMARK  status: ('A' for Active; 'I' for Inactive)
REMARK    1  A    between atoms: N_1  and  C_2
REMARK    2  A    between atoms: C_4  and  C_5
REMARK    3  A    between atoms: C_5  and  O_6
REMARK    4  A    between atoms: C_8  and  O_9
REMARK                            x       y       z     vdW  Elec       q    Type
REMARK                         _______ _______ _______ _____ _____    ______ ____
ROOT
ATOM      1  C   UNL     1       7.263   0.759  22.636  0.00  0.00    +0.026 A 
ATOM      2  C   UNL     1       8.279   1.293  21.839  0.00  0.00    +0.026 A 
ATOM      3  C   UNL     1       9.396   0.530  21.494  0.00  0.00    +0.048 A 
ATOM      4  C   UNL     1       9.466  -0.798  21.901  0.00  0.00    +0.131 A 
ATOM      5  C   UNL     1       8.432  -1.375  22.639  0.00  0.00    +0.102 A 
ATOM      6  C   UNL     1       7.326  -0.591  22.992  0.00  0.00    +0.041 A 
ENDROOT
BRANCH   1   7
ATOM      7  N   UNL     1       6.093   1.489  22.868  0.00  0.00    -0.358 N 
ATOM      8  H   UNL     1       5.438   1.492  22.092  0.00  0.00    +0.142 HD
ATOM      9  H   UNL     1       6.251   2.423  23.236  0.00  0.00    +0.142 HD
ENDBRANCH   1   7
BRANCH   4  10
ATOM     10  O   UNL     1      10.560  -1.536  21.544  0.00  0.00    -0.506 OA
ATOM     11  H   UNL     1      11.341  -1.004  21.802  0.00  0.00    +0.292 HD
ENDBRANCH   4  10
BRANCH   5  12
ATOM     12  C   UNL     1       8.451  -2.792  23.084  0.00  0.00    +0.340 C 
ATOM     13  O   UNL     1       7.549  -3.572  22.827  0.00  0.00    -0.245 OA
BRANCH  12  14
ATOM     14  O   UNL     1       9.562  -3.146  23.766  0.00  0.00    -0.477 OA
ATOM     15  H   UNL     1      10.012  -2.379  24.183  0.00  0.00    +0.295 HD
ENDBRANCH  12  14
ENDBRANCH   5  12
TORSDOF 4
ENDMDL
MODEL 9
REMARK VINA RESULT:      -4.4      3.321      4.271
REMARK  Name = 
REMARK  4 active torsions:
REMARK  status: ('A' for Active; 'I' for Inactive)
REMARK    1  A    between atoms: N_1  and  C_2
REMARK    2  A    between atoms: C_4  and  C_5
REMARK    3  A    between atoms: C_5  and  O_6
REMARK    4  A    between atoms: C_8  and  O_9
REMARK                            x       y       z     vdW  Elec       q    Type
REMARK                         _______ _______ _______ _____ _____    ______ ____
ROOT
ATOM      1  C   UNL     1       9.360  -0.632  25.692  0.00  0.00    +0.026 A 
ATOM      2  C   UNL     1      10.180   0.188  24.912  0.00  0.00    +0.026 A 
ATOM      3  C   UNL     1      10.494  -0.155  23.596  0.00  0.00    +0.048 A 
ATOM      4  C   UNL     1       9.932  -1.298  23.038  0.00  0.00    +0.131 A 
ATOM      5  C   UNL     1       9.055  -2.096  23.773  0.00  0.00    +0.102 A 
ATOM      6  C   UNL     1       8.764  -1.747  25.098  0.00  0.00    +0.041 A 
ENDROOT
BRANCH   1   7
ATOM      7  N   UNL     1       8.951  -0.214  26.962  0.00  0.00    -0.358 N 
ATOM      8  H   UNL     1       8.175  -0.742  27.350  0.00  0.00    +0.142 HD
ATOM      9  H   UNL     1       8.806   0.789  27.044  0.00  0.00    +0.142 HD
ENDBRANCH   1   7
BRANCH   4  10
ATOM     10  O   UNL     1      10.239  -1.614  21.743  0.00  0.00    -0.506 OA
ATOM     11  H   UNL     1      10.632  -0.805  21.354  0.00  0.00    +0.292 HD
ENDBRANCH   4  10
BRANCH   5  12
ATOM     12  C   UNL     1       8.418  -3.317  23.218  0.00  0.00    +0.340 C 
ATOM     13  O   UNL     1       7.729  -3.297  22.210  0.00  0.00    -0.245 OA
BRANCH  12  14
ATOM     14  O   UNL     1       8.690  -4.449  23.903  0.00  0.00    -0.477 OA
ATOM     15  H   UNL     1       9.534  -4.868  23.622  0.00  0.00    +0.295 HD
ENDBRANCH  12  14
ENDBRANCH   5  12
TORSDOF 4
ENDMDL
