MODEL 1
REMARK VINA RESULT:      -4.0      0.000      0.000
REMARK  Name = 
REMARK  3 active torsions:
REMARK  status: ('A' for Active; 'I' for Inactive)
REMARK    1  A    between atoms: C_2  and  O_4
REMARK    2  A    between atoms: O_4  and  C_5
REMARK    3  A    between atoms: C_5  and  C_7
REMARK                            x       y       z     vdW  Elec       q    Type
REMARK                         _______ _______ _______ _____ _____    ______ ____
ROOT
ATOM      1  C   UNL     1      10.425  -0.490  22.847  0.00  0.00    +0.406 C 
ATOM      2  F   UNL     1      10.543  -1.763  22.371  0.00  0.00    -0.205 F 
ENDROOT
BRANCH   1   3
ATOM      3  C   UNL     1       9.570   0.362  21.893  0.00  0.00    +0.446 C 
ATOM      4  F   UNL     1       8.349   0.628  22.419  0.00  0.00    -0.165 F 
ATOM      5  F   UNL     1       9.358  -0.292  20.724  0.00  0.00    -0.165 F 
ATOM      6  F   UNL     1      10.141   1.550  21.593  0.00  0.00    -0.165 F 
ENDBRANCH   1   3
BRANCH   1   7
ATOM      7  O   UNL     1       9.860  -0.597  24.149  0.00  0.00    -0.280 OA
BRANCH   7   9
ATOM      8  F   UNL     1      11.640   0.721  24.466  0.00  0.00    -0.178 F 
ATOM      9  C   UNL     1      10.452   0.351  25.004  0.00  0.00    +0.485 C 
ATOM     10  F   UNL     1       9.658   1.447  25.000  0.00  0.00    -0.178 F 
ENDBRANCH   7   9
ENDBRANCH   1   7
TORSDOF 3
ENDMDL
MODEL 2
REMARK VINA RESULT:      -4.0      1.411      1.981
REMARK  Name = 
REMARK  3 active torsions:
REMARK  status: ('A' for Active; 'I' for Inactive)
REMARK    1  A    between atoms: C_2  and  O_4
REMARK    2  A    between atoms: O_4  and  C_5
REMARK    3  A    between atoms: C_5  and  C_7
REMARK                            x       y       z     vdW  Elec       q    Type
REMARK                         _______ _______ _______ _____ _____    ______ ____
ROOT
ATOM      1  C   UNL     1       8.928   0.710  23.208  0.00  0.00    +0.406 C 
ATOM      2  F   UNL     1       7.639   1.153  23.269  0.00  0.00    -0.205 F 
ENDROOT
BRANCH   1   3
ATOM      3  C   UNL     1       9.506   0.936  21.800  0.00  0.00    +0.446 C 
ATOM      4  F   UNL     1       8.538   1.267  20.910  0.00  0.00    -0.165 F 
ATOM      5  F   UNL     1      10.096  -0.194  21.335  0.00  0.00    -0.165 F 
ATOM      6  F   UNL     1      10.433   1.919  21.763  0.00  0.00    -0.165 F 
ENDBRANCH   1   3
BRANCH   1   7
ATOM      7  O   UNL     1       9.644   1.413  24.219  0.00  0.00    -0.280 OA
BRANCH   7   9
ATOM      8  F   UNL     1      10.225  -0.732  24.487  0.00  0.00    -0.178 F 
ATOM      9  C   UNL     1      10.517   0.531  24.883  0.00  0.00    +0.485 C 
ATOM     10  F   UNL     1      11.770   0.801  24.448  0.00  0.00    -0.178 F 
ENDBRANCH   7   9
ENDBRANCH   1   7
TORSDOF 3
ENDMDL
MODEL 3
REMARK VINA RESULT:      -3.9      1.242      3.075
REMARK  Name = 
REMARK  3 active torsions:
REMARK  status: ('A' for Active; 'I' for Inactive)
REMARK    1  A    between atoms: C_2  and  O_4
REMARK    2  A    between atoms: O_4  and  C_5
REMARK    3  A    between atoms: C_5  and  C_7
REMARK                            x       y       z     vdW  Elec       q    Type
REMARK                         _______ _______ _______ _____ _____    ______ ____
ROOT
ATOM      1  C   UNL     1      10.317   0.462  22.818  0.00  0.00    +0.406 C 
ATOM      2  F   UNL     1      10.009   1.308  21.793  0.00  0.00    -0.205 F 
ENDROOT
BRANCH   1   3
ATOM      3  C   UNL     1      10.614   1.260  24.100  0.00  0.00    +0.446 C 
ATOM      4  F   UNL     1      11.475   0.600  24.912  0.00  0.00    -0.165 F 
ATOM      5  F   UNL     1       9.479   1.462  24.814  0.00  0.00    -0.165 F 
ATOM      6  F   UNL     1      11.154   2.475  23.850  0.00  0.00    -0.165 F 
ENDBRANCH   1   3
BRANCH   1   7
ATOM      7  O   UNL     1       9.208  -0.419  22.961  0.00  0.00    -0.280 OA
BRANCH   7   9
ATOM      8  F   UNL     1      10.864  -1.832  22.442  0.00  0.00    -0.178 F 
ATOM      9  C   UNL     1       9.666  -1.746  23.071  0.00  0.00    +0.485 C 
ATOM     10  F   UNL     1       9.891  -1.985  24.384  0.00  0.00    -0.178 F 
ENDBRANCH   7   9
ENDBRANCH   1   7
TORSDOF 3
ENDMDL
MODEL 4
REMARK VINA RESULT:      -3.9      1.376      3.656
REMARK  Name = 
REMARK  3 active torsions:
REMARK  status: ('A' for Active; 'I' for Inactive)
REMARK    1  A    between atoms: C_2  and  O_4
REMARK    2  A    between atoms: O_4  and  C_5
REMARK    3  A    between atoms: C_5  and  C_7
REMARK                            x       y       z     vdW  Elec       q    Type
REMARK                         _______ _______ _______ _____ _____    ______ ____
ROOT
ATOM      1  C   UNL     1       9.872   1.617  23.924  0.00  0.00    +0.406 C 
ATOM      2  F   UNL     1       9.253   2.308  24.926  0.00  0.00    -0.205 F 
ENDROOT
BRANCH   1   3
ATOM      3  C   UNL     1      10.676   0.441  24.503  0.00  0.00    +0.446 C 
ATOM      4  F   UNL     1      10.608  -0.653  23.705  0.00  0.00    -0.165 F 
ATOM      5  F   UNL     1      10.187   0.073  25.714  0.00  0.00    -0.165 F 
ATOM      6  F   UNL     1      11.987   0.730  24.670  0.00  0.00    -0.165 F 
ENDBRANCH   1   3
BRANCH   1   7
ATOM      7  O   UNL     1       8.846   1.198  23.030  0.00  0.00    -0.280 OA
BRANCH   7   9
ATOM      8  F   UNL     1      10.451   2.055  21.727  0.00  0.00    -0.178 F 
ATOM      9  C   UNL     1       9.200   1.534  21.710  0.00  0.00    +0.485 C 
ATOM     10  F   UNL     1       9.263   0.381  21.005  0.00  0.00    -0.178 F 
ENDBRANCH   7   9
ENDBRANCH   1   7
TORSDOF 3
ENDMDL
MODEL 5
REMARK VINA RESULT:      -3.9      1.332      3.087
REMARK  Name = 
REMARK  3 active torsions:
REMARK  status: ('A' for Active; 'I' for Inactive)
REMARK    1  A    between atoms: C_2  and  O_4
REMARK    2  A    between atoms: O_4  and  C_5
REMARK    3  A    between atoms: C_5  and  C_7
REMARK                            x       y       z     vdW  Elec       q    Type
REMARK                         _______ _______ _______ _____ _____    ______ ____
ROOT
ATOM      1  C   UNL     1      10.213   0.159  23.394  0.00  0.00    +0.406 C 
ATOM      2  F   UNL     1      10.495   0.400  24.707  0.00  0.00    -0.205 F 
ENDROOT
BRANCH   1   3
ATOM      3  C   UNL     1      10.035  -1.350  23.153  0.00  0.00    +0.446 C 
ATOM      4  F   UNL     1       8.808  -1.636  22.651  0.00  0.00    -0.165 F 
ATOM      5  F   UNL     1      10.153  -2.040  24.314  0.00  0.00    -0.165 F 
ATOM      6  F   UNL     1      10.945  -1.856  22.290  0.00  0.00    -0.165 F 
ENDBRANCH   1   3
BRANCH   1   7
ATOM      7  O   UNL     1       9.041   0.908  23.089  0.00  0.00    -0.280 OA
BRANCH   7   9
ATOM      8  F   UNL     1      10.520   1.962  21.781  0.00  0.00    -0.178 F 
ATOM      9  C   UNL     1       9.218   1.595  21.873  0.00  0.00    +0.485 C 
ATOM     10  F   UNL     1       8.986   0.711  20.875  0.00  0.00    -0.178 F 
ENDBRANCH   7   9
ENDBRANCH   1   7
TORSDOF 3
ENDMDL
MODEL 6
REMARK VINA RESULT:      -3.8      1.354      2.612
REMARK  Name = 
REMARK  3 active torsions:
REMARK  status: ('A' for Active; 'I' for Inactive)
REMARK    1  A    between atoms: C_2  and  O_4
REMARK    2  A    between atoms: O_4  and  C_5
REMARK    3  A    between atoms: C_5  and  C_7
REMARK                            x       y       z     vdW  Elec       q    Type
REMARK                         _______ _______ _______ _____ _____    ______ ____
ROOT
ATOM      1  C   UNL     1       8.917   0.548  23.093  0.00  0.00    +0.406 C 
ATOM      2  F   UNL     1       9.905   0.892  23.970  0.00  0.00    -0.205 F 
ENDROOT
BRANCH   1   3
ATOM      3  C   UNL     1       9.188   1.170  21.712  0.00  0.00    +0.446 C 
ATOM      4  F   UNL     1       9.206   0.229  20.735  0.00  0.00    -0.165 F 
ATOM      5  F   UNL     1      10.398   1.782  21.689  0.00  0.00    -0.165 F 
ATOM      6  F   UNL     1       8.263   2.091  21.359  0.00  0.00    -0.165 F 
ENDBRANCH   1   3
BRANCH   1   7
ATOM      7  O   UNL     1       8.885  -0.876  23.061  0.00  0.00    -0.280 OA
BRANCH   7   9
ATOM      8  F   UNL     1       9.933  -2.530  24.143  0.00  0.00    -0.178 F 
ATOM      9  C   UNL     1      10.139  -1.389  23.441  0.00  0.00    +0.485 C 
ATOM     10  F   UNL     1      10.791  -1.736  22.308  0.00  0.00    -0.178 F 
ENDBRANCH   7   9
ENDBRANCH   1   7
TORSDOF 3
ENDMDL
MODEL 7
REMARK VINA RESULT:      -3.8      1.089      3.350
REMARK  Name = 
REMARK  3 active torsions:
REMARK  status: ('A' for Active; 'I' for Inactive)
REMARK    1  A    between atoms: C_2  and  O_4
REMARK    2  A    between atoms: O_4  and  C_5
REMARK    3  A    between atoms: C_5  and  C_7
REMARK                            x       y       z     vdW  Elec       q    Type
REMARK                         _______ _______ _______ _____ _____    ______ ____
ROOT
ATOM      1  C   UNL     1       9.535  -0.585  23.839  0.00  0.00    +0.406 C 
ATOM      2  F   UNL     1      10.569  -1.234  23.229  0.00  0.00    -0.205 F 
ENDROOT
BRANCH   1   3
ATOM      3  C   UNL     1      10.056   0.272  25.006  0.00  0.00    +0.446 C 
ATOM      4  F   UNL     1       9.762  -0.287  26.206  0.00  0.00    -0.165 F 
ATOM      5  F   UNL     1       9.481   1.500  24.995  0.00  0.00    -0.165 F 
ATOM      6  F   UNL     1      11.395   0.453  24.970  0.00  0.00    -0.165 F 
ENDBRANCH   1   3
BRANCH   1   7
ATOM      7  O   UNL     1       8.893   0.188  22.830  0.00  0.00    -0.280 OA
BRANCH   7   9
ATOM      8  F   UNL     1       9.026   0.365  20.603  0.00  0.00    -0.178 F 
ATOM      9  C   UNL     1       9.765   0.364  21.739  0.00  0.00    +0.485 C 
ATOM     10  F   UNL     1      10.310   1.598  21.855  0.00  0.00    -0.178 F 
ENDBRANCH   7   9
ENDBRANCH   1   7
TORSDOF 3
ENDMDL
MODEL 8
REMARK VINA RESULT:      -3.8      2.046      3.135
REMARK  Name = 
REMARK  3 active torsions:
REMARK  status: ('A' for Active; 'I' for Inactive)
REMARK    1  A    between atoms: C_2  and  O_4
REMARK    2  A    between atoms: O_4  and  C_5
REMARK    3  A    between atoms: C_5  and  C_7
REMARK                            x       y       z     vdW  Elec       q    Type
REMARK                         _______ _______ _______ _____ _____    ______ ____
ROOT
ATOM      1  C   UNL     1       9.769  -1.241  22.209  0.00  0.00    +0.406 C 
ATOM      2  F   UNL     1      10.993  -1.830  22.340  0.00  0.00    -0.205 F 
ENDROOT
BRANCH   1   3
ATOM      3  C   UNL     1       8.683  -2.114  22.860  0.00  0.00    +0.446 C 
ATOM      4  F   UNL     1       7.914  -1.399  23.718  0.00  0.00    -0.165 F 
ATOM      5  F   UNL     1       9.240  -3.120  23.578  0.00  0.00    -0.165 F 
ATOM      6  F   UNL     1       7.849  -2.678  21.956  0.00  0.00    -0.165 F 
ENDBRANCH   1   3
BRANCH   1   7
ATOM      7  O   UNL     1       9.876   0.047  22.808  0.00  0.00    -0.280 OA
BRANCH   7   9
ATOM      8  F   UNL     1      10.442   1.889  21.670  0.00  0.00    -0.178 F 
ATOM      9  C   UNL     1       9.421   1.029  21.908  0.00  0.00    +0.485 C 
ATOM     10  F   UNL     1       9.149   0.406  20.738  0.00  0.00    -0.178 F 
ENDBRANCH   7   9
ENDBRANCH   1   7
TORSDOF 3
ENDMDL
MODEL 9
REMARK VINA RESULT:      -3.8      1.611      3.290
REMARK  Name = 
REMARK  3 active torsions:
REMARK  status: ('A' for Active; 'I' for Inactive)
REMARK    1  A    between atoms: C_2  and  O_4
REMARK    2  A    between atoms: O_4  and  C_5
REMARK    3  A    between atoms: C_5  and  C_7
REMARK                            x       y       z     vdW  Elec       q    Type
REMARK                         _______ _______ _______ _____ _____    ______ ____
ROOT
ATOM      1  C   UNL     1       9.578  -0.369  23.507  0.00  0.00    +0.406 C 
ATOM      2  F   UNL     1       9.133  -0.371  24.797  0.00  0.00    -0.205 F 
ENDROOT
BRANCH   1   3
ATOM      3  C   UNL     1       9.926  -1.799  23.059  0.00  0.00    +0.446 C 
ATOM      4  F   UNL     1      11.007  -1.817  22.240  0.00  0.00    -0.165 F 
ATOM      5  F   UNL     1       8.899  -2.349  22.364  0.00  0.00    -0.165 F 
ATOM      6  F   UNL     1      10.199  -2.624  24.095  0.00  0.00    -0.165 F 
ENDBRANCH   1   3
BRANCH   1   7
ATOM      7  O   UNL     1       8.543   0.218  22.725  0.00  0.00    -0.280 OA
BRANCH   7   9
ATOM      8  F   UNL     1      10.376   1.274  21.996  0.00  0.00    -0.178 F 
ATOM      9  C   UNL     1       9.106   0.941  21.657  0.00  0.00    +0.485 C 
ATOM     10  F   UNL     1       9.188   0.099  20.601  0.00  0.00    -0.178 F 
ENDBRANCH   7   9
ENDBRANCH   1   7
TORSDOF 3
ENDMDL
