MODEL 1
REMARK VINA RESULT:      -6.4      0.000      0.000
REMARK  Name = 
REMARK  5 active torsions:
REMARK  status: ('A' for Active; 'I' for Inactive)
REMARK    1  A    between atoms: O5*_1  and  C5*_2
REMARK    2  A    between atoms: C5*_2  and  C4*_3
REMARK    3  A    between atoms: C1*_6  and  N_12
REMARK    4  A    between atoms: C3*_9  and  O3*_11
REMARK    5  A    between atoms: C_21  and  O_23
REMARK                            x       y       z     vdW  Elec       q    Type
REMARK                         _______ _______ _______ _____ _____    ______ ____
ROOT
ATOM      1  N   UNL     1       8.637  -1.402  23.038  0.00  0.00    -0.288 N 
ATOM      2  C   UNL     1       8.252  -0.097  23.250  0.00  0.00    +0.162 A 
ATOM      3  N   UNL     1       7.502   0.250  24.325  0.00  0.00    -0.221 NA
ATOM      4  C   UNL     1       6.500   1.020  24.091  0.00  0.00    +0.184 C 
ATOM      5  N   UNL     1       6.022   1.569  22.927  0.00  0.00    -0.332 N 
ATOM      6  H   UNL     1       5.106   1.996  23.045  0.00  0.00    +0.147 HD
ATOM      7  C   UNL     1       6.857   2.395  22.044  0.00  0.00    +0.140 C 
ATOM      8  C   UNL     1       8.309   1.953  21.713  0.00  0.00    +0.183 C 
ATOM      9  C   UNL     1       8.661   0.564  22.108  0.00  0.00    +0.115 A 
ATOM     10  N   UNL     1       9.414  -0.269  21.301  0.00  0.00    -0.236 NA
ATOM     11  C   UNL     1       9.401  -1.438  21.908  0.00  0.00    +0.203 A 
ENDROOT
BRANCH   1  15
ATOM     12  C4* UNL     1       8.181  -4.549  24.663  0.00  0.00    +0.175 C 
ATOM     13  C3* UNL     1       7.676  -4.874  23.258  0.00  0.00    +0.150 C 
ATOM     14  C2* UNL     1       7.455  -3.515  22.632  0.00  0.00    +0.088 C 
ATOM     15  C1* UNL     1       7.959  -2.516  23.674  0.00  0.00    +0.225 C 
ATOM     16  O4* UNL     1       8.822  -3.257  24.552  0.00  0.00    -0.348 OA
BRANCH  13  17
ATOM     17  O3* UNL     1       6.465  -5.616  23.286  0.00  0.00    -0.389 OA
ATOM     18  H3* UNL     1       6.229  -5.735  24.225  0.00  0.00    +0.210 HD
ENDBRANCH  13  17
BRANCH  12  19
ATOM     19  C5* UNL     1       9.120  -5.601  25.240  0.00  0.00    +0.190 C 
BRANCH  19  20
ATOM     20  O5* UNL     1      10.485  -5.215  25.100  0.00  0.00    -0.392 OA
ATOM     21  H5* UNL     1      10.669  -4.575  25.808  0.00  0.00    +0.210 HD
ENDBRANCH  19  20
ENDBRANCH  12  19
ENDBRANCH   1  15
BRANCH   8  22
ATOM     22  O   UNL     1       9.226   2.910  22.275  0.00  0.00    -0.384 OA
ATOM     23  H   UNL     1       9.677   3.334  21.528  0.00  0.00    +0.210 HD
ENDBRANCH   8  22
TORSDOF 5
ENDMDL
MODEL 2
REMARK VINA RESULT:      -6.4      2.881      6.131
REMARK  Name = 
REMARK  5 active torsions:
REMARK  status: ('A' for Active; 'I' for Inactive)
REMARK    1  A    between atoms: O5*_1  and  C5*_2
REMARK    2  A    between atoms: C5*_2  and  C4*_3
REMARK    3  A    between atoms: C1*_6  and  N_12
REMARK    4  A    between atoms: C3*_9  and  O3*_11
REMARK    5  A    between atoms: C_21  and  O_23
REMARK                            x       y       z     vdW  Elec       q    Type
REMARK                         _______ _______ _______ _____ _____    ______ ____
ROOT
ATOM      1  N   UNL     1       9.035  -1.991  25.292  0.00  0.00    -0.288 N 
ATOM      2  C   UNL     1       8.685  -3.313  25.452  0.00  0.00    +0.162 A 
ATOM      3  N   UNL     1       9.265  -4.290  24.713  0.00  0.00    -0.221 NA
ATOM      4  C   UNL     1       8.468  -5.157  24.197  0.00  0.00    +0.184 C 
ATOM      5  N   UNL     1       7.102  -5.284  24.244  0.00  0.00    -0.332 N 
ATOM      6  H   UNL     1       6.753  -5.978  23.588  0.00  0.00    +0.147 HD
ATOM      7  C   UNL     1       6.361  -5.363  25.511  0.00  0.00    +0.140 C 
ATOM      8  C   UNL     1       6.716  -4.402  26.678  0.00  0.00    +0.183 C 
ATOM      9  C   UNL     1       7.617  -3.273  26.326  0.00  0.00    +0.115 A 
ATOM     10  N   UNL     1       7.425  -1.992  26.812  0.00  0.00    -0.236 NA
ATOM     11  C   UNL     1       8.316  -1.252  26.185  0.00  0.00    +0.203 A 
ENDROOT
BRANCH   1  15
ATOM     12  C4* UNL     1      10.236   0.290  22.819  0.00  0.00    +0.175 C 
ATOM     13  C3* UNL     1       9.075  -0.363  22.070  0.00  0.00    +0.150 C 
ATOM     14  C2* UNL     1       8.775  -1.605  22.881  0.00  0.00    +0.088 C 
ATOM     15  C1* UNL     1       9.701  -1.513  24.094  0.00  0.00    +0.225 C 
ATOM     16  O4* UNL     1      10.092  -0.134  24.194  0.00  0.00    -0.348 OA
BRANCH  13  17
ATOM     17  O3* UNL     1       9.426  -0.708  20.737  0.00  0.00    -0.389 OA
ATOM     18  H3* UNL     1       9.643  -1.659  20.741  0.00  0.00    +0.210 HD
ENDBRANCH  13  17
BRANCH  12  19
ATOM     19  C5* UNL     1      10.275   1.807  22.693  0.00  0.00    +0.190 C 
BRANCH  19  20
ATOM     20  O5* UNL     1       9.738   2.241  21.445  0.00  0.00    -0.392 OA
ATOM     21  H5* UNL     1       9.096   1.567  21.167  0.00  0.00    +0.210 HD
ENDBRANCH  19  20
ENDBRANCH  12  19
ENDBRANCH   1  15
BRANCH   8  22
ATOM     22  O   UNL     1       7.240  -5.175  27.774  0.00  0.00    -0.384 OA
ATOM     23  H   UNL     1       7.794  -5.870  27.384  0.00  0.00    +0.210 HD
ENDBRANCH   8  22
TORSDOF 5
ENDMDL
MODEL 3
REMARK VINA RESULT:      -6.2      2.305      3.292
REMARK  Name = 
REMARK  5 active torsions:
REMARK  status: ('A' for Active; 'I' for Inactive)
REMARK    1  A    between atoms: O5*_1  and  C5*_2
REMARK    2  A    between atoms: C5*_2  and  C4*_3
REMARK    3  A    between atoms: C1*_6  and  N_12
REMARK    4  A    between atoms: C3*_9  and  O3*_11
REMARK    5  A    between atoms: C_21  and  O_23
REMARK                            x       y       z     vdW  Elec       q    Type
REMARK                         _______ _______ _______ _____ _____    ______ ____
ROOT
ATOM      1  N   UNL     1       7.836  -3.149  23.829  0.00  0.00    -0.288 N 
ATOM      2  C   UNL     1       8.032  -1.789  23.916  0.00  0.00    +0.162 A 
ATOM      3  N   UNL     1       7.008  -0.917  23.745  0.00  0.00    -0.221 NA
ATOM      4  C   UNL     1       7.242   0.085  22.973  0.00  0.00    +0.184 C 
ATOM      5  N   UNL     1       8.358   0.450  22.262  0.00  0.00    -0.332 N 
ATOM      6  H   UNL     1       8.172   1.205  21.608  0.00  0.00    +0.147 HD
ATOM      7  C   UNL     1       9.671   0.637  22.896  0.00  0.00    +0.140 C 
ATOM      8  C   UNL     1      10.180  -0.391  23.943  0.00  0.00    +0.183 C 
ATOM      9  C   UNL     1       9.402  -1.654  24.030  0.00  0.00    +0.115 A 
ATOM     10  N   UNL     1      10.007  -2.889  24.175  0.00  0.00    -0.236 NA
ATOM     11  C   UNL     1       9.027  -3.765  24.076  0.00  0.00    +0.203 A 
ENDROOT
BRANCH   1  15
ATOM     12  C4* UNL     1       4.959  -5.198  23.297  0.00  0.00    +0.175 C 
ATOM     13  C3* UNL     1       5.978  -5.891  22.393  0.00  0.00    +0.150 C 
ATOM     14  C2* UNL     1       7.083  -4.868  22.245  0.00  0.00    +0.088 C 
ATOM     15  C1* UNL     1       6.676  -3.716  23.165  0.00  0.00    +0.225 C 
ATOM     16  O4* UNL     1       5.724  -4.264  24.092  0.00  0.00    -0.348 OA
BRANCH  13  17
ATOM     17  O3* UNL     1       5.429  -6.221  21.125  0.00  0.00    -0.389 OA
ATOM     18  H3* UNL     1       5.088  -5.391  20.742  0.00  0.00    +0.210 HD
ENDBRANCH  13  17
BRANCH  12  19
ATOM     19  C5* UNL     1       4.153  -6.156  24.164  0.00  0.00    +0.190 C 
BRANCH  19  20
ATOM     20  O5* UNL     1       4.452  -7.516  23.856  0.00  0.00    -0.392 OA
ATOM     21  H5* UNL     1       5.190  -7.778  24.431  0.00  0.00    +0.210 HD
ENDBRANCH  19  20
ENDBRANCH  12  19
ENDBRANCH   1  15
BRANCH   8  22
ATOM     22  O   UNL     1      10.277   0.259  25.223  0.00  0.00    -0.384 OA
ATOM     23  H   UNL     1      10.373   1.209  25.047  0.00  0.00    +0.210 HD
ENDBRANCH   8  22
TORSDOF 5
ENDMDL
MODEL 4
REMARK VINA RESULT:      -6.1      2.354      3.118
REMARK  Name = 
REMARK  5 active torsions:
REMARK  status: ('A' for Active; 'I' for Inactive)
REMARK    1  A    between atoms: O5*_1  and  C5*_2
REMARK    2  A    between atoms: C5*_2  and  C4*_3
REMARK    3  A    between atoms: C1*_6  and  N_12
REMARK    4  A    between atoms: C3*_9  and  O3*_11
REMARK    5  A    between atoms: C_21  and  O_23
REMARK                            x       y       z     vdW  Elec       q    Type
REMARK                         _______ _______ _______ _____ _____    ______ ____
ROOT
ATOM      1  N   UNL     1       7.616  -1.543  23.576  0.00  0.00    -0.288 N 
ATOM      2  C   UNL     1       7.942  -0.222  23.364  0.00  0.00    +0.162 A 
ATOM      3  N   UNL     1       7.117   0.605  22.678  0.00  0.00    -0.221 NA
ATOM      4  C   UNL     1       7.672   1.341  21.781  0.00  0.00    +0.184 C 
ATOM      5  N   UNL     1       8.976   1.448  21.366  0.00  0.00    -0.332 N 
ATOM      6  H   UNL     1       9.070   1.996  20.515  0.00  0.00    +0.147 HD
ATOM      7  C   UNL     1      10.075   1.754  22.292  0.00  0.00    +0.140 C 
ATOM      8  C   UNL     1      10.149   1.043  23.671  0.00  0.00    +0.183 C 
ATOM      9  C   UNL     1       9.233  -0.114  23.844  0.00  0.00    +0.115 A 
ATOM     10  N   UNL     1       9.623  -1.282  24.475  0.00  0.00    -0.236 NA
ATOM     11  C   UNL     1       8.611  -2.111  24.316  0.00  0.00    +0.203 A 
ENDROOT
BRANCH   1  15
ATOM     12  C4* UNL     1       5.036  -3.851  22.693  0.00  0.00    +0.175 C 
ATOM     13  C3* UNL     1       6.238  -4.478  21.989  0.00  0.00    +0.150 C 
ATOM     14  C2* UNL     1       7.266  -3.368  21.970  0.00  0.00    +0.088 C 
ATOM     15  C1* UNL     1       6.626  -2.229  22.765  0.00  0.00    +0.225 C 
ATOM     16  O4* UNL     1       5.588  -2.830  23.556  0.00  0.00    -0.348 OA
BRANCH  13  17
ATOM     17  O3* UNL     1       5.925  -4.893  20.666  0.00  0.00    -0.389 OA
ATOM     18  H3* UNL     1       6.368  -4.267  20.063  0.00  0.00    +0.210 HD
ENDBRANCH  13  17
BRANCH  12  19
ATOM     19  C5* UNL     1       4.184  -4.849  23.465  0.00  0.00    +0.190 C 
BRANCH  19  20
ATOM     20  O5* UNL     1       4.187  -6.131  22.841  0.00  0.00    -0.392 OA
ATOM     21  H5* UNL     1       3.633  -6.711  23.390  0.00  0.00    +0.210 HD
ENDBRANCH  19  20
ENDBRANCH  12  19
ENDBRANCH   1  15
BRANCH   8  22
ATOM     22  O   UNL     1       9.965   2.022  24.710  0.00  0.00    -0.384 OA
ATOM     23  H   UNL     1       9.315   2.661  24.378  0.00  0.00    +0.210 HD
ENDBRANCH   8  22
TORSDOF 5
ENDMDL
MODEL 5
REMARK VINA RESULT:      -6.1      1.856      3.115
REMARK  Name = 
REMARK  5 active torsions:
REMARK  status: ('A' for Active; 'I' for Inactive)
REMARK    1  A    between atoms: O5*_1  and  C5*_2
REMARK    2  A    between atoms: C5*_2  and  C4*_3
REMARK    3  A    between atoms: C1*_6  and  N_12
REMARK    4  A    between atoms: C3*_9  and  O3*_11
REMARK    5  A    between atoms: C_21  and  O_23
REMARK                            x       y       z     vdW  Elec       q    Type
REMARK                         _______ _______ _______ _____ _____    ______ ____
ROOT
ATOM      1  N   UNL     1       7.230  -2.120  23.724  0.00  0.00    -0.288 N 
ATOM      2  C   UNL     1       7.987  -1.320  22.898  0.00  0.00    +0.162 A 
ATOM      3  N   UNL     1       9.010  -1.828  22.169  0.00  0.00    -0.221 NA
ATOM      4  C   UNL     1      10.110  -1.163  22.198  0.00  0.00    +0.184 C 
ATOM      5  N   UNL     1      10.462  -0.007  22.850  0.00  0.00    -0.332 N 
ATOM      6  H   UNL     1      11.462   0.172  22.809  0.00  0.00    +0.147 HD
ATOM      7  C   UNL     1       9.713   1.247  22.692  0.00  0.00    +0.140 C 
ATOM      8  C   UNL     1       8.160   1.231  22.714  0.00  0.00    +0.183 C 
ATOM      9  C   UNL     1       7.540  -0.041  23.169  0.00  0.00    +0.115 A 
ATOM     10  N   UNL     1       6.439  -0.071  24.005  0.00  0.00    -0.236 NA
ATOM     11  C   UNL     1       6.265  -1.344  24.297  0.00  0.00    +0.203 A 
ENDROOT
BRANCH   1  15
ATOM     12  C4* UNL     1       7.457  -5.086  25.702  0.00  0.00    +0.175 C 
ATOM     13  C3* UNL     1       8.685  -4.318  26.190  0.00  0.00    +0.150 C 
ATOM     14  C2* UNL     1       8.889  -3.255  25.134  0.00  0.00    +0.088 C 
ATOM     15  C1* UNL     1       7.702  -3.414  24.183  0.00  0.00    +0.225 C 
ATOM     16  O4* UNL     1       6.700  -4.138  24.915  0.00  0.00    -0.348 OA
BRANCH  13  17
ATOM     17  O3* UNL     1       9.831  -5.152  26.290  0.00  0.00    -0.389 OA
ATOM     18  H3* UNL     1      10.084  -5.170  27.232  0.00  0.00    +0.210 HD
ENDBRANCH  13  17
BRANCH  12  19
ATOM     19  C5* UNL     1       6.622  -5.690  26.823  0.00  0.00    +0.190 C 
BRANCH  19  20
ATOM     20  O5* UNL     1       7.436  -6.084  27.925  0.00  0.00    -0.392 OA
ATOM     21  H5* UNL     1       7.035  -5.698  28.722  0.00  0.00    +0.210 HD
ENDBRANCH  19  20
ENDBRANCH  12  19
ENDBRANCH   1  15
BRANCH   8  22
ATOM     22  O   UNL     1       7.673   1.621  21.417  0.00  0.00    -0.384 OA
ATOM     23  H   UNL     1       6.826   1.165  21.289  0.00  0.00    +0.210 HD
ENDBRANCH   8  22
TORSDOF 5
ENDMDL
MODEL 6
REMARK VINA RESULT:      -6.1      3.114      4.289
REMARK  Name = 
REMARK  5 active torsions:
REMARK  status: ('A' for Active; 'I' for Inactive)
REMARK    1  A    between atoms: O5*_1  and  C5*_2
REMARK    2  A    between atoms: C5*_2  and  C4*_3
REMARK    3  A    between atoms: C1*_6  and  N_12
REMARK    4  A    between atoms: C3*_9  and  O3*_11
REMARK    5  A    between atoms: C_21  and  O_23
REMARK                            x       y       z     vdW  Elec       q    Type
REMARK                         _______ _______ _______ _____ _____    ______ ____
ROOT
ATOM      1  N   UNL     1       9.309   2.623  23.585  0.00  0.00    -0.288 N 
ATOM      2  C   UNL     1       8.420   3.675  23.586  0.00  0.00    +0.162 A 
ATOM      3  N   UNL     1       7.084   3.468  23.496  0.00  0.00    -0.221 NA
ATOM      4  C   UNL     1       6.452   4.212  22.658  0.00  0.00    +0.184 C 
ATOM      5  N   UNL     1       6.883   5.198  21.806  0.00  0.00    -0.332 N 
ATOM      6  H   UNL     1       6.165   5.481  21.144  0.00  0.00    +0.147 HD
ATOM      7  C   UNL     1       7.634   6.371  22.274  0.00  0.00    +0.140 C 
ATOM      8  C   UNL     1       8.787   6.195  23.300  0.00  0.00    +0.183 C 
ATOM      9  C   UNL     1       9.227   4.795  23.534  0.00  0.00    +0.115 A 
ATOM     10  N   UNL     1      10.560   4.449  23.664  0.00  0.00    -0.236 NA
ATOM     11  C   UNL     1      10.567   3.132  23.719  0.00  0.00    +0.203 A 
ENDROOT
BRANCH   1  15
ATOM     12  C4* UNL     1       8.996  -0.932  23.449  0.00  0.00    +0.175 C 
ATOM     13  C3* UNL     1      10.091  -0.699  22.409  0.00  0.00    +0.150 C 
ATOM     14  C2* UNL     1       9.997   0.782  22.113  0.00  0.00    +0.088 C 
ATOM     15  C1* UNL     1       8.943   1.310  23.087  0.00  0.00    +0.225 C 
ATOM     16  O4* UNL     1       8.842   0.332  24.134  0.00  0.00    -0.348 OA
BRANCH  13  17
ATOM     17  O3* UNL     1       9.875  -1.459  21.228  0.00  0.00    -0.389 OA
ATOM     18  H3* UNL     1      10.297  -2.327  21.372  0.00  0.00    +0.210 HD
ENDBRANCH  13  17
BRANCH  12  19
ATOM     19  C5* UNL     1       9.298  -2.070  24.416  0.00  0.00    +0.190 C 
BRANCH  19  20
ATOM     20  O5* UNL     1      10.206  -3.011  23.848  0.00  0.00    -0.392 OA
ATOM     21  H5* UNL     1       9.673  -3.640  23.334  0.00  0.00    +0.210 HD
ENDBRANCH  19  20
ENDBRANCH  12  19
ENDBRANCH   1  15
BRANCH   8  22
ATOM     22  O   UNL     1       8.417   6.845  24.530  0.00  0.00    -0.384 OA
ATOM     23  H   UNL     1       9.148   7.440  24.761  0.00  0.00    +0.210 HD
ENDBRANCH   8  22
TORSDOF 5
ENDMDL
MODEL 7
REMARK VINA RESULT:      -6.0      2.972      6.028
REMARK  Name = 
REMARK  5 active torsions:
REMARK  status: ('A' for Active; 'I' for Inactive)
REMARK    1  A    between atoms: O5*_1  and  C5*_2
REMARK    2  A    between atoms: C5*_2  and  C4*_3
REMARK    3  A    between atoms: C1*_6  and  N_12
REMARK    4  A    between atoms: C3*_9  and  O3*_11
REMARK    5  A    between atoms: C_21  and  O_23
REMARK                            x       y       z     vdW  Elec       q    Type
REMARK                         _______ _______ _______ _____ _____    ______ ____
ROOT
ATOM      1  N   UNL     1       7.862  -3.476  24.442  0.00  0.00    -0.288 N 
ATOM      2  C   UNL     1       7.280  -4.642  23.997  0.00  0.00    +0.162 A 
ATOM      3  N   UNL     1       7.899  -5.436  23.089  0.00  0.00    -0.221 NA
ATOM      4  C   UNL     1       7.172  -5.850  22.113  0.00  0.00    +0.184 C 
ATOM      5  N   UNL     1       5.853  -5.632  21.798  0.00  0.00    -0.332 N 
ATOM      6  H   UNL     1       5.617  -5.959  20.865  0.00  0.00    +0.147 HD
ATOM      7  C   UNL     1       4.760  -5.931  22.733  0.00  0.00    +0.140 C 
ATOM      8  C   UNL     1       4.887  -5.531  24.229  0.00  0.00    +0.183 C 
ATOM      9  C   UNL     1       6.016  -4.619  24.553  0.00  0.00    +0.115 A 
ATOM     10  N   UNL     1       5.887  -3.565  25.438  0.00  0.00    -0.236 NA
ATOM     11  C   UNL     1       7.030  -2.914  25.365  0.00  0.00    +0.203 A 
ENDROOT
BRANCH   1  15
ATOM     12  C4* UNL     1      10.177  -0.938  23.465  0.00  0.00    +0.175 C 
ATOM     13  C3* UNL     1       9.161  -0.856  22.326  0.00  0.00    +0.150 C 
ATOM     14  C2* UNL     1       8.383  -2.148  22.444  0.00  0.00    +0.088 C 
ATOM     15  C1* UNL     1       8.927  -2.819  23.706  0.00  0.00    +0.225 C 
ATOM     16  O4* UNL     1       9.563  -1.780  24.467  0.00  0.00    -0.348 OA
BRANCH  13  17
ATOM     17  O3* UNL     1       9.791  -0.764  21.056  0.00  0.00    -0.389 OA
ATOM     18  H3* UNL     1      10.739  -0.607  21.223  0.00  0.00    +0.210 HD
ENDBRANCH  13  17
BRANCH  12  19
ATOM     19  C5* UNL     1      10.579   0.418  24.030  0.00  0.00    +0.190 C 
BRANCH  19  20
ATOM     20  O5* UNL     1      10.543   0.421  25.456  0.00  0.00    -0.392 OA
ATOM     21  H5* UNL     1       9.634   0.653  25.712  0.00  0.00    +0.210 HD
ENDBRANCH  19  20
ENDBRANCH  12  19
ENDBRANCH   1  15
BRANCH   8  22
ATOM     22  O   UNL     1       4.929  -6.727  25.028  0.00  0.00    -0.384 OA
ATOM     23  H   UNL     1       4.694  -7.463  24.441  0.00  0.00    +0.210 HD
ENDBRANCH   8  22
TORSDOF 5
ENDMDL
MODEL 8
REMARK VINA RESULT:      -6.0      2.044      6.071
REMARK  Name = 
REMARK  5 active torsions:
REMARK  status: ('A' for Active; 'I' for Inactive)
REMARK    1  A    between atoms: O5*_1  and  C5*_2
REMARK    2  A    between atoms: C5*_2  and  C4*_3
REMARK    3  A    between atoms: C1*_6  and  N_12
REMARK    4  A    between atoms: C3*_9  and  O3*_11
REMARK    5  A    between atoms: C_21  and  O_23
REMARK                            x       y       z     vdW  Elec       q    Type
REMARK                         _______ _______ _______ _____ _____    ______ ____
ROOT
ATOM      1  N   UNL     1       9.246  -0.727  25.353  0.00  0.00    -0.288 N 
ATOM      2  C   UNL     1       9.286  -1.755  24.438  0.00  0.00    +0.162 A 
ATOM      3  N   UNL     1       9.708  -1.552  23.166  0.00  0.00    -0.221 NA
ATOM      4  C   UNL     1       8.976  -2.059  22.239  0.00  0.00    +0.184 C 
ATOM      5  N   UNL     1       7.810  -2.783  22.288  0.00  0.00    -0.332 N 
ATOM      6  H   UNL     1       7.383  -2.893  21.373  0.00  0.00    +0.147 HD
ATOM      7  C   UNL     1       7.687  -4.026  23.061  0.00  0.00    +0.140 C 
ATOM      8  C   UNL     1       8.271  -4.108  24.498  0.00  0.00    +0.183 C 
ATOM      9  C   UNL     1       8.685  -2.811  25.095  0.00  0.00    +0.115 A 
ATOM     10  N   UNL     1       8.438  -2.492  26.418  0.00  0.00    -0.236 NA
ATOM     11  C   UNL     1       8.814  -1.235  26.542  0.00  0.00    +0.203 A 
ENDROOT
BRANCH   1  15
ATOM     12  C4* UNL     1       8.817   2.145  23.273  0.00  0.00    +0.175 C 
ATOM     13  C3* UNL     1      10.339   2.005  23.262  0.00  0.00    +0.150 C 
ATOM     14  C2* UNL     1      10.625   1.081  24.425  0.00  0.00    +0.088 C 
ATOM     15  C1* UNL     1       9.247   0.665  24.943  0.00  0.00    +0.225 C 
ATOM     16  O4* UNL     1       8.324   0.925  23.872  0.00  0.00    -0.348 OA
BRANCH  13  17
ATOM     17  O3* UNL     1      10.991   3.255  23.443  0.00  0.00    -0.389 OA
ATOM     18  H3* UNL     1      11.782   3.245  22.873  0.00  0.00    +0.210 HD
ENDBRANCH  13  17
BRANCH  12  19
ATOM     19  C5* UNL     1       8.211   2.388  21.897  0.00  0.00    +0.190 C 
BRANCH  19  20
ATOM     20  O5* UNL     1       8.715   1.465  20.934  0.00  0.00    -0.392 OA
ATOM     21  H5* UNL     1       8.256   1.654  20.098  0.00  0.00    +0.210 HD
ENDBRANCH  19  20
ENDBRANCH  12  19
ENDBRANCH   1  15
BRANCH   8  22
ATOM     22  O   UNL     1       9.349  -5.062  24.508  0.00  0.00    -0.384 OA
ATOM     23  H   UNL     1       9.269  -5.582  23.692  0.00  0.00    +0.210 HD
ENDBRANCH   8  22
TORSDOF 5
ENDMDL
MODEL 9
REMARK VINA RESULT:      -6.0      2.161      2.617
REMARK  Name = 
REMARK  5 active torsions:
REMARK  status: ('A' for Active; 'I' for Inactive)
REMARK    1  A    between atoms: O5*_1  and  C5*_2
REMARK    2  A    between atoms: C5*_2  and  C4*_3
REMARK    3  A    between atoms: C1*_6  and  N_12
REMARK    4  A    between atoms: C3*_9  and  O3*_11
REMARK    5  A    between atoms: C_21  and  O_23
REMARK                            x       y       z     vdW  Elec       q    Type
REMARK                         _______ _______ _______ _____ _____    ______ ____
ROOT
ATOM      1  N   UNL     1       8.738  -1.830  23.064  0.00  0.00    -0.288 N 
ATOM      2  C   UNL     1       9.056  -0.836  23.962  0.00  0.00    +0.162 A 
ATOM      3  N   UNL     1       8.727  -0.938  25.273  0.00  0.00    -0.221 NA
ATOM      4  C   UNL     1       8.190   0.103  25.804  0.00  0.00    +0.184 C 
ATOM      5  N   UNL     1       7.870   1.332  25.284  0.00  0.00    -0.332 N 
ATOM      6  H   UNL     1       7.296   1.884  25.916  0.00  0.00    +0.147 HD
ATOM      7  C   UNL     1       8.861   2.188  24.617  0.00  0.00    +0.140 C 
ATOM      8  C   UNL     1       9.861   1.570  23.601  0.00  0.00    +0.183 C 
ATOM      9  C   UNL     1       9.561   0.179  23.173  0.00  0.00    +0.115 A 
ATOM     10  N   UNL     1       9.701  -0.240  21.862  0.00  0.00    -0.236 NA
ATOM     11  C   UNL     1       9.220  -1.466  21.841  0.00  0.00    +0.203 A 
ENDROOT
BRANCH   1  15
ATOM     12  C4* UNL     1       6.788  -4.806  22.750  0.00  0.00    +0.175 C 
ATOM     13  C3* UNL     1       5.820  -3.767  22.186  0.00  0.00    +0.150 C 
ATOM     14  C2* UNL     1       6.397  -2.448  22.652  0.00  0.00    +0.088 C 
ATOM     15  C1* UNL     1       7.710  -2.817  23.344  0.00  0.00    +0.225 C 
ATOM     16  O4* UNL     1       8.058  -4.126  22.865  0.00  0.00    -0.348 OA
BRANCH  13  17
ATOM     17  O3* UNL     1       4.501  -3.940  22.685  0.00  0.00    -0.389 OA
ATOM     18  H3* UNL     1       4.066  -3.068  22.635  0.00  0.00    +0.210 HD
ENDBRANCH  13  17
BRANCH  12  19
ATOM     19  C5* UNL     1       6.894  -6.070  21.907  0.00  0.00    +0.190 C 
BRANCH  19  20
ATOM     20  O5* UNL     1       5.634  -6.430  21.345  0.00  0.00    -0.392 OA
ATOM     21  H5* UNL     1       5.353  -5.684  20.788  0.00  0.00    +0.210 HD
ENDBRANCH  19  20
ENDBRANCH  12  19
ENDBRANCH   1  15
BRANCH   8  22
ATOM     22  O   UNL     1      11.193   1.683  24.135  0.00  0.00    -0.384 OA
ATOM     23  H   UNL     1      11.633   2.391  23.638  0.00  0.00    +0.210 HD
ENDBRANCH   8  22
TORSDOF 5
ENDMDL
