MODEL 1
REMARK VINA RESULT:      -5.2      0.000      0.000
REMARK  Name = 
REMARK  7 active torsions:
REMARK  status: ('A' for Active; 'I' for Inactive)
REMARK    1  A    between atoms: C_1  and  C_2
REMARK    2  A    between atoms: N_4  and  C_5
REMARK    3  A    between atoms: C_8  and  C_10
REMARK    4  A    between atoms: C_10  and  O_11
REMARK    5  A    between atoms: C_12  and  O_14
REMARK    6  A    between atoms: C_15  and  O_17
REMARK    7  A    between atoms: C_18  and  O_20
REMARK                            x       y       z     vdW  Elec       q    Type
REMARK                         _______ _______ _______ _____ _____    ______ ____
ROOT
ATOM      1  C   UNL     1       9.446   0.511  22.441  0.00  0.00    +0.237 C 
ATOM      2  C   UNL     1      10.137   1.826  22.871  0.00  0.00    +0.192 C 
ATOM      3  C   UNL     1       9.222   2.718  23.729  0.00  0.00    +0.178 C 
ATOM      4  C   UNL     1       7.811   2.860  23.156  0.00  0.00    +0.177 C 
ATOM      5  C   UNL     1       7.226   1.527  22.666  0.00  0.00    +0.177 C 
ATOM      6  O   UNL     1       8.135   0.711  21.904  0.00  0.00    -0.348 OA
ENDROOT
BRANCH   1   9
ATOM      7  C   UNL     1       9.459  -2.826  24.191  0.00  0.00    +0.109 C 
ATOM      8  C   UNL     1       9.942  -1.768  23.230  0.00  0.00    +0.212 C 
ATOM      9  N   UNL     1       9.347  -0.544  23.422  0.00  0.00    -0.288 N 
ATOM     10  H   UNL     1       8.480  -0.541  23.949  0.00  0.00    +0.151 HD
ATOM     11  O   UNL     1      10.791  -1.994  22.382  0.00  0.00    -0.276 OA
ENDBRANCH   1   9
BRANCH   2  12
ATOM     12  O   UNL     1      10.568   2.512  21.681  0.00  0.00    -0.385 OA
ATOM     13  H   UNL     1      11.254   1.978  21.248  0.00  0.00    +0.210 HD
ENDBRANCH   2  12
BRANCH   3  14
ATOM     14  O   UNL     1       9.106   2.250  25.078  0.00  0.00    -0.386 OA
ATOM     15  H   UNL     1       9.264   2.993  25.688  0.00  0.00    +0.210 HD
ENDBRANCH   3  14
BRANCH   4  16
ATOM     16  O   UNL     1       7.835   3.810  22.083  0.00  0.00    -0.386 OA
ATOM     17  H   UNL     1       6.921   3.911  21.760  0.00  0.00    +0.210 HD
ENDBRANCH   4  16
BRANCH   5  18
ATOM     18  C   UNL     1       6.572   0.692  23.777  0.00  0.00    +0.190 C 
BRANCH  18  19
ATOM     19  O   UNL     1       6.234  -0.608  23.276  0.00  0.00    -0.392 OA
ATOM     20  H   UNL     1       7.027  -1.172  23.368  0.00  0.00    +0.210 HD
ENDBRANCH  18  19
ENDBRANCH   5  18
TORSDOF 6
ENDMDL
MODEL 2
REMARK VINA RESULT:      -5.0      1.824      3.256
REMARK  Name = 
REMARK  7 active torsions:
REMARK  status: ('A' for Active; 'I' for Inactive)
REMARK    1  A    between atoms: C_1  and  C_2
REMARK    2  A    between atoms: N_4  and  C_5
REMARK    3  A    between atoms: C_8  and  C_10
REMARK    4  A    between atoms: C_10  and  O_11
REMARK    5  A    between atoms: C_12  and  O_14
REMARK    6  A    between atoms: C_15  and  O_17
REMARK    7  A    between atoms: C_18  and  O_20
REMARK                            x       y       z     vdW  Elec       q    Type
REMARK                         _______ _______ _______ _____ _____    ______ ____
ROOT
ATOM      1  C   UNL     1       9.462   0.358  24.704  0.00  0.00    +0.237 C 
ATOM      2  C   UNL     1       8.607   1.557  24.233  0.00  0.00    +0.192 C 
ATOM      3  C   UNL     1       8.211   1.450  22.750  0.00  0.00    +0.178 C 
ATOM      4  C   UNL     1       9.378   1.063  21.840  0.00  0.00    +0.177 C 
ATOM      5  C   UNL     1      10.236  -0.073  22.418  0.00  0.00    +0.177 C 
ATOM      6  O   UNL     1      10.544   0.053  23.818  0.00  0.00    -0.348 OA
ENDROOT
BRANCH   1   9
ATOM      7  C   UNL     1       8.257  -2.842  26.287  0.00  0.00    +0.109 C 
ATOM      8  C   UNL     1       8.717  -1.405  26.252  0.00  0.00    +0.212 C 
ATOM      9  N   UNL     1       8.778  -0.883  24.983  0.00  0.00    -0.288 N 
ATOM     10  H   UNL     1       8.804  -1.551  24.219  0.00  0.00    +0.151 HD
ATOM     11  O   UNL     1       8.988  -0.781  27.266  0.00  0.00    -0.276 OA
ENDBRANCH   1   9
BRANCH   2  12
ATOM     12  O   UNL     1       9.351   2.762  24.488  0.00  0.00    -0.385 OA
ATOM     13  H   UNL     1       9.738   3.070  23.651  0.00  0.00    +0.210 HD
ENDBRANCH   2  12
BRANCH   3  14
ATOM     14  O   UNL     1       7.150   0.512  22.530  0.00  0.00    -0.386 OA
ATOM     15  H   UNL     1       6.296   0.975  22.592  0.00  0.00    +0.210 HD
ENDBRANCH   3  14
BRANCH   4  16
ATOM     16  O   UNL     1      10.191   2.220  21.604  0.00  0.00    -0.386 OA
ATOM     17  H   UNL     1      10.690   2.065  20.781  0.00  0.00    +0.210 HD
ENDBRANCH   4  16
BRANCH   5  18
ATOM     18  C   UNL     1       9.685  -1.476  22.122  0.00  0.00    +0.190 C 
BRANCH  18  19
ATOM     19  O   UNL     1      10.382  -2.451  22.911  0.00  0.00    -0.392 OA
ATOM     20  H   UNL     1       9.820  -3.248  22.953  0.00  0.00    +0.210 HD
ENDBRANCH  18  19
ENDBRANCH   5  18
TORSDOF 6
ENDMDL
MODEL 3
REMARK VINA RESULT:      -4.9      1.747      2.581
REMARK  Name = 
REMARK  7 active torsions:
REMARK  status: ('A' for Active; 'I' for Inactive)
REMARK    1  A    between atoms: C_1  and  C_2
REMARK    2  A    between atoms: N_4  and  C_5
REMARK    3  A    between atoms: C_8  and  C_10
REMARK    4  A    between atoms: C_10  and  O_11
REMARK    5  A    between atoms: C_12  and  O_14
REMARK    6  A    between atoms: C_15  and  O_17
REMARK    7  A    between atoms: C_18  and  O_20
REMARK                            x       y       z     vdW  Elec       q    Type
REMARK                         _______ _______ _______ _____ _____    ______ ____
ROOT
ATOM      1  C   UNL     1       8.780  -2.036  23.126  0.00  0.00    +0.237 C 
ATOM      2  C   UNL     1      10.103  -1.280  22.867  0.00  0.00    +0.192 C 
ATOM      3  C   UNL     1       9.987   0.226  23.164  0.00  0.00    +0.178 C 
ATOM      4  C   UNL     1       8.728   0.861  22.574  0.00  0.00    +0.177 C 
ATOM      5  C   UNL     1       7.469   0.007  22.790  0.00  0.00    +0.177 C 
ATOM      6  O   UNL     1       7.640  -1.399  22.539  0.00  0.00    -0.348 OA
ENDROOT
BRANCH   1   9
ATOM      7  C   UNL     1       8.156  -3.781  26.407  0.00  0.00    +0.109 C 
ATOM      8  C   UNL     1       8.875  -3.487  25.112  0.00  0.00    +0.212 C 
ATOM      9  N   UNL     1       8.438  -2.339  24.495  0.00  0.00    -0.288 N 
ATOM     10  H   UNL     1       7.532  -1.987  24.785  0.00  0.00    +0.151 HD
ATOM     11  O   UNL     1       9.764  -4.204  24.682  0.00  0.00    -0.276 OA
ENDBRANCH   1   9
BRANCH   2  12
ATOM     12  O   UNL     1      10.491  -1.513  21.501  0.00  0.00    -0.385 OA
ATOM     13  H   UNL     1      11.393  -1.876  21.493  0.00  0.00    +0.210 HD
ENDBRANCH   2  12
BRANCH   3  14
ATOM     14  O   UNL     1      10.010   0.513  24.568  0.00  0.00    -0.386 OA
ATOM     15  H   UNL     1       9.996   1.478  24.696  0.00  0.00    +0.210 HD
ENDBRANCH   3  14
BRANCH   4  16
ATOM     16  O   UNL     1       8.932   1.090  21.174  0.00  0.00    -0.386 OA
ATOM     17  H   UNL     1       9.832   1.447  21.062  0.00  0.00    +0.210 HD
ENDBRANCH   4  16
BRANCH   5  18
ATOM     18  C   UNL     1       6.802   0.223  24.157  0.00  0.00    +0.190 C 
BRANCH  18  19
ATOM     19  O   UNL     1       5.660  -0.635  24.283  0.00  0.00    -0.392 OA
ATOM     20  H   UNL     1       5.599  -1.163  23.463  0.00  0.00    +0.210 HD
ENDBRANCH  18  19
ENDBRANCH   5  18
TORSDOF 6
ENDMDL
MODEL 4
REMARK VINA RESULT:      -4.9      3.789      5.638
REMARK  Name = 
REMARK  7 active torsions:
REMARK  status: ('A' for Active; 'I' for Inactive)
REMARK    1  A    between atoms: C_1  and  C_2
REMARK    2  A    between atoms: N_4  and  C_5
REMARK    3  A    between atoms: C_8  and  C_10
REMARK    4  A    between atoms: C_10  and  O_11
REMARK    5  A    between atoms: C_12  and  O_14
REMARK    6  A    between atoms: C_15  and  O_17
REMARK    7  A    between atoms: C_18  and  O_20
REMARK                            x       y       z     vdW  Elec       q    Type
REMARK                         _______ _______ _______ _____ _____    ______ ____
ROOT
ATOM      1  C   UNL     1       7.202  -3.005  23.407  0.00  0.00    +0.237 C 
ATOM      2  C   UNL     1       8.571  -2.318  23.616  0.00  0.00    +0.192 C 
ATOM      3  C   UNL     1       9.357  -2.919  24.795  0.00  0.00    +0.178 C 
ATOM      4  C   UNL     1       8.505  -3.110  26.052  0.00  0.00    +0.177 C 
ATOM      5  C   UNL     1       7.124  -3.712  25.752  0.00  0.00    +0.177 C 
ATOM      6  O   UNL     1       6.449  -3.145  24.615  0.00  0.00    -0.348 OA
ENDROOT
BRANCH   1   9
ATOM      7  C   UNL     1       6.237  -6.046  21.401  0.00  0.00    +0.109 C 
ATOM      8  C   UNL     1       6.317  -4.574  21.729  0.00  0.00    +0.212 C 
ATOM      9  N   UNL     1       7.193  -4.290  22.749  0.00  0.00    -0.288 N 
ATOM     10  H   UNL     1       7.454  -5.066  23.350  0.00  0.00    +0.151 HD
ATOM     11  O   UNL     1       5.671  -3.734  21.123  0.00  0.00    -0.276 OA
ENDBRANCH   1   9
BRANCH   2  12
ATOM     12  O   UNL     1       8.339  -0.910  23.808  0.00  0.00    -0.385 OA
ATOM     13  H   UNL     1       7.688  -0.612  23.151  0.00  0.00    +0.210 HD
ENDBRANCH   2  12
BRANCH   3  14
ATOM     14  O   UNL     1       9.956  -4.180  24.472  0.00  0.00    -0.386 OA
ATOM     15  H   UNL     1       9.538  -4.534  23.667  0.00  0.00    +0.210 HD
ENDBRANCH   3  14
BRANCH   4  16
ATOM     16  O   UNL     1       8.357  -1.847  26.713  0.00  0.00    -0.386 OA
ATOM     17  H   UNL     1       8.378  -2.014  27.673  0.00  0.00    +0.210 HD
ENDBRANCH   4  16
BRANCH   5  18
ATOM     18  C   UNL     1       7.126  -5.245  25.654  0.00  0.00    +0.190 C 
BRANCH  18  19
ATOM     19  O   UNL     1       8.200  -5.783  26.438  0.00  0.00    -0.392 OA
ATOM     20  H   UNL     1       8.691  -5.028  26.818  0.00  0.00    +0.210 HD
ENDBRANCH  18  19
ENDBRANCH   5  18
TORSDOF 6
ENDMDL
MODEL 5
REMARK VINA RESULT:      -4.9      3.456      6.287
REMARK  Name = 
REMARK  7 active torsions:
REMARK  status: ('A' for Active; 'I' for Inactive)
REMARK    1  A    between atoms: C_1  and  C_2
REMARK    2  A    between atoms: N_4  and  C_5
REMARK    3  A    between atoms: C_8  and  C_10
REMARK    4  A    between atoms: C_10  and  O_11
REMARK    5  A    between atoms: C_12  and  O_14
REMARK    6  A    between atoms: C_15  and  O_17
REMARK    7  A    between atoms: C_18  and  O_20
REMARK                            x       y       z     vdW  Elec       q    Type
REMARK                         _______ _______ _______ _____ _____    ______ ____
ROOT
ATOM      1  C   UNL     1       9.213  -3.646  24.682  0.00  0.00    +0.237 C 
ATOM      2  C   UNL     1       8.821  -5.132  24.508  0.00  0.00    +0.192 C 
ATOM      3  C   UNL     1       7.437  -5.448  25.101  0.00  0.00    +0.178 C 
ATOM      4  C   UNL     1       7.231  -4.862  26.498  0.00  0.00    +0.177 C 
ATOM      5  C   UNL     1       7.729  -3.413  26.619  0.00  0.00    +0.177 C 
ATOM      6  O   UNL     1       9.009  -3.160  26.013  0.00  0.00    -0.348 OA
ENDROOT
BRANCH   1   9
ATOM      7  C   UNL     1       8.613  -0.752  22.345  0.00  0.00    +0.109 C 
ATOM      8  C   UNL     1       9.380  -1.900  22.955  0.00  0.00    +0.212 C 
ATOM      9  N   UNL     1       8.616  -2.687  23.783  0.00  0.00    -0.288 N 
ATOM     10  H   UNL     1       7.753  -2.278  24.126  0.00  0.00    +0.151 HD
ATOM     11  O   UNL     1      10.559  -2.100  22.711  0.00  0.00    -0.276 OA
ENDBRANCH   1   9
BRANCH   2  12
ATOM     12  O   UNL     1       9.846  -5.937  25.118  0.00  0.00    -0.385 OA
ATOM     13  H   UNL     1      10.635  -5.917  24.551  0.00  0.00    +0.210 HD
ENDBRANCH   2  12
BRANCH   3  14
ATOM     14  O   UNL     1       6.364  -4.990  24.268  0.00  0.00    -0.386 OA
ATOM     15  H   UNL     1       5.910  -5.760  23.880  0.00  0.00    +0.210 HD
ENDBRANCH   3  14
BRANCH   4  16
ATOM     16  O   UNL     1       7.900  -5.691  27.457  0.00  0.00    -0.386 OA
ATOM     17  H   UNL     1       7.437  -6.549  27.476  0.00  0.00    +0.210 HD
ENDBRANCH   4  16
BRANCH   5  18
ATOM     18  C   UNL     1       6.706  -2.367  26.150  0.00  0.00    +0.190 C 
BRANCH  18  19
ATOM     19  O   UNL     1       7.332  -1.079  26.060  0.00  0.00    -0.392 OA
ATOM     20  H   UNL     1       8.149  -1.113  26.595  0.00  0.00    +0.210 HD
ENDBRANCH  18  19
ENDBRANCH   5  18
TORSDOF 6
ENDMDL
MODEL 6
REMARK VINA RESULT:      -4.9      1.692      2.984
REMARK  Name = 
REMARK  7 active torsions:
REMARK  status: ('A' for Active; 'I' for Inactive)
REMARK    1  A    between atoms: C_1  and  C_2
REMARK    2  A    between atoms: N_4  and  C_5
REMARK    3  A    between atoms: C_8  and  C_10
REMARK    4  A    between atoms: C_10  and  O_11
REMARK    5  A    between atoms: C_12  and  O_14
REMARK    6  A    between atoms: C_15  and  O_17
REMARK    7  A    between atoms: C_18  and  O_20
REMARK                            x       y       z     vdW  Elec       q    Type
REMARK                         _______ _______ _______ _____ _____    ______ ____
ROOT
ATOM      1  C   UNL     1       7.575   0.445  23.512  0.00  0.00    +0.237 C 
ATOM      2  C   UNL     1       7.113   1.326  22.329  0.00  0.00    +0.192 C 
ATOM      3  C   UNL     1       8.131   2.427  21.983  0.00  0.00    +0.178 C 
ATOM      4  C   UNL     1       8.650   3.176  23.211  0.00  0.00    +0.177 C 
ATOM      5  C   UNL     1       9.001   2.240  24.378  0.00  0.00    +0.177 C 
ATOM      6  O   UNL     1       8.037   1.203  24.635  0.00  0.00    -0.348 OA
ENDROOT
BRANCH   1   9
ATOM      7  C   UNL     1       9.874  -2.532  23.746  0.00  0.00    +0.109 C 
ATOM      8  C   UNL     1       8.590  -1.759  23.930  0.00  0.00    +0.212 C 
ATOM      9  N   UNL     1       8.568  -0.568  23.245  0.00  0.00    -0.288 N 
ATOM     10  H   UNL     1       9.467  -0.200  22.949  0.00  0.00    +0.151 HD
ATOM     11  O   UNL     1       7.668  -2.176  24.613  0.00  0.00    -0.276 OA
ENDBRANCH   1   9
BRANCH   2  12
ATOM     12  O   UNL     1       5.831   1.888  22.666  0.00  0.00    -0.385 OA
ATOM     13  H   UNL     1       5.562   2.493  21.954  0.00  0.00    +0.210 HD
ENDBRANCH   2  12
BRANCH   3  14
ATOM     14  O   UNL     1       9.263   1.923  21.263  0.00  0.00    -0.386 OA
ATOM     15  H   UNL     1      10.052   2.437  21.509  0.00  0.00    +0.210 HD
ENDBRANCH   3  14
BRANCH   4  16
ATOM     16  O   UNL     1       7.665   4.130  23.628  0.00  0.00    -0.386 OA
ATOM     17  H   UNL     1       7.108   3.702  24.303  0.00  0.00    +0.210 HD
ENDBRANCH   4  16
BRANCH   5  18
ATOM     18  C   UNL     1      10.412   1.640  24.286  0.00  0.00    +0.190 C 
BRANCH  18  19
ATOM     19  O   UNL     1      10.590   0.651  25.311  0.00  0.00    -0.392 OA
ATOM     20  H   UNL     1      11.180  -0.039  24.951  0.00  0.00    +0.210 HD
ENDBRANCH  18  19
ENDBRANCH   5  18
TORSDOF 6
ENDMDL
MODEL 7
REMARK VINA RESULT:      -4.9      3.579      6.118
REMARK  Name = 
REMARK  7 active torsions:
REMARK  status: ('A' for Active; 'I' for Inactive)
REMARK    1  A    between atoms: C_1  and  C_2
REMARK    2  A    between atoms: N_4  and  C_5
REMARK    3  A    between atoms: C_8  and  C_10
REMARK    4  A    between atoms: C_10  and  O_11
REMARK    5  A    between atoms: C_12  and  O_14
REMARK    6  A    between atoms: C_15  and  O_17
REMARK    7  A    between atoms: C_18  and  O_20
REMARK                            x       y       z     vdW  Elec       q    Type
REMARK                         _______ _______ _______ _____ _____    ______ ____
ROOT
ATOM      1  C   UNL     1       7.496  -3.186  22.234  0.00  0.00    +0.237 C 
ATOM      2  C   UNL     1       5.953  -3.228  22.156  0.00  0.00    +0.192 C 
ATOM      3  C   UNL     1       5.328  -4.054  23.294  0.00  0.00    +0.178 C 
ATOM      4  C   UNL     1       6.023  -5.399  23.514  0.00  0.00    +0.177 C 
ATOM      5  C   UNL     1       7.556  -5.293  23.486  0.00  0.00    +0.177 C 
ATOM      6  O   UNL     1       8.088  -4.475  22.428  0.00  0.00    -0.348 OA
ENDROOT
BRANCH   1   9
ATOM      7  C   UNL     1       9.920  -1.132  24.260  0.00  0.00    +0.109 C 
ATOM      8  C   UNL     1       9.346  -1.760  23.014  0.00  0.00    +0.212 C 
ATOM      9  N   UNL     1       8.093  -2.295  23.200  0.00  0.00    -0.288 N 
ATOM     10  H   UNL     1       7.818  -2.479  24.160  0.00  0.00    +0.151 HD
ATOM     11  O   UNL     1       9.945  -1.768  21.950  0.00  0.00    -0.276 OA
ENDBRANCH   1   9
BRANCH   2  12
ATOM     12  O   UNL     1       5.586  -3.754  20.867  0.00  0.00    -0.385 OA
ATOM     13  H   UNL     1       6.190  -4.483  20.647  0.00  0.00    +0.210 HD
ENDBRANCH   2  12
BRANCH   3  14
ATOM     14  O   UNL     1       5.321  -3.353  24.543  0.00  0.00    -0.386 OA
ATOM     15  H   UNL     1       4.514  -3.588  25.036  0.00  0.00    +0.210 HD
ENDBRANCH   3  14
BRANCH   4  16
ATOM     16  O   UNL     1       5.578  -6.325  22.514  0.00  0.00    -0.386 OA
ATOM     17  H   UNL     1       4.829  -5.913  22.045  0.00  0.00    +0.210 HD
ENDBRANCH   4  16
BRANCH   5  18
ATOM     18  C   UNL     1       8.171  -4.881  24.832  0.00  0.00    +0.190 C 
BRANCH  18  19
ATOM     19  O   UNL     1       9.594  -4.760  24.702  0.00  0.00    -0.392 OA
ATOM     20  H   UNL     1       9.885  -4.053  25.311  0.00  0.00    +0.210 HD
ENDBRANCH  18  19
ENDBRANCH   5  18
TORSDOF 6
ENDMDL
MODEL 8
REMARK VINA RESULT:      -4.8      2.031      4.494
REMARK  Name = 
REMARK  7 active torsions:
REMARK  status: ('A' for Active; 'I' for Inactive)
REMARK    1  A    between atoms: C_1  and  C_2
REMARK    2  A    between atoms: N_4  and  C_5
REMARK    3  A    between atoms: C_8  and  C_10
REMARK    4  A    between atoms: C_10  and  O_11
REMARK    5  A    between atoms: C_12  and  O_14
REMARK    6  A    between atoms: C_15  and  O_17
REMARK    7  A    between atoms: C_18  and  O_20
REMARK                            x       y       z     vdW  Elec       q    Type
REMARK                         _______ _______ _______ _____ _____    ______ ____
ROOT
ATOM      1  C   UNL     1       9.991   0.347  22.994  0.00  0.00    +0.237 C 
ATOM      2  C   UNL     1       9.304  -0.706  22.095  0.00  0.00    +0.192 C 
ATOM      3  C   UNL     1       8.338  -1.611  22.881  0.00  0.00    +0.178 C 
ATOM      4  C   UNL     1       8.934  -2.135  24.189  0.00  0.00    +0.177 C 
ATOM      5  C   UNL     1       9.680  -1.051  24.983  0.00  0.00    +0.177 C 
ATOM      6  O   UNL     1      10.538  -0.206  24.195  0.00  0.00    -0.348 OA
ENDROOT
BRANCH   1   9
ATOM      7  C   UNL     1       8.890   3.675  24.378  0.00  0.00    +0.109 C 
ATOM      8  C   UNL     1       9.823   2.698  23.704  0.00  0.00    +0.212 C 
ATOM      9  N   UNL     1       9.221   1.508  23.372  0.00  0.00    -0.288 N 
ATOM     10  H   UNL     1       8.352   1.293  23.850  0.00  0.00    +0.151 HD
ATOM     11  O   UNL     1      10.992   2.966  23.473  0.00  0.00    -0.276 OA
ENDBRANCH   1   9
BRANCH   2  12
ATOM     12  O   UNL     1      10.331  -1.479  21.447  0.00  0.00    -0.385 OA
ATOM     13  H   UNL     1      11.197  -1.137  21.727  0.00  0.00    +0.210 HD
ENDBRANCH   2  12
BRANCH   3  14
ATOM     14  O   UNL     1       7.101  -0.958  23.190  0.00  0.00    -0.386 OA
ATOM     15  H   UNL     1       6.516  -0.998  22.412  0.00  0.00    +0.210 HD
ENDBRANCH   3  14
BRANCH   4  16
ATOM     16  O   UNL     1       9.817  -3.225  23.897  0.00  0.00    -0.386 OA
ATOM     17  H   UNL     1      10.527  -3.215  24.565  0.00  0.00    +0.210 HD
ENDBRANCH   4  16
BRANCH   5  18
ATOM     18  C   UNL     1       8.765  -0.195  25.871  0.00  0.00    +0.190 C 
BRANCH  18  19
ATOM     19  O   UNL     1       9.032  -0.470  27.254  0.00  0.00    -0.392 OA
ATOM     20  H   UNL     1       9.974  -0.722  27.325  0.00  0.00    +0.210 HD
ENDBRANCH  18  19
ENDBRANCH   5  18
TORSDOF 6
ENDMDL
MODEL 9
REMARK VINA RESULT:      -4.8      1.825      4.314
REMARK  Name = 
REMARK  7 active torsions:
REMARK  status: ('A' for Active; 'I' for Inactive)
REMARK    1  A    between atoms: C_1  and  C_2
REMARK    2  A    between atoms: N_4  and  C_5
REMARK    3  A    between atoms: C_8  and  C_10
REMARK    4  A    between atoms: C_10  and  O_11
REMARK    5  A    between atoms: C_12  and  O_14
REMARK    6  A    between atoms: C_15  and  O_17
REMARK    7  A    between atoms: C_18  and  O_20
REMARK                            x       y       z     vdW  Elec       q    Type
REMARK                         _______ _______ _______ _____ _____    ______ ____
ROOT
ATOM      1  C   UNL     1       7.876  -0.430  24.157  0.00  0.00    +0.237 C 
ATOM      2  C   UNL     1       9.265  -0.896  24.653  0.00  0.00    +0.192 C 
ATOM      3  C   UNL     1      10.416  -0.284  23.835  0.00  0.00    +0.178 C 
ATOM      4  C   UNL     1      10.187  -0.356  22.325  0.00  0.00    +0.177 C 
ATOM      5  C   UNL     1       8.757   0.032  21.917  0.00  0.00    +0.177 C 
ATOM      6  O   UNL     1       7.719  -0.532  22.739  0.00  0.00    -0.348 OA
ENDROOT
BRANCH   1   9
ATOM      7  C   UNL     1       5.825   2.664  24.808  0.00  0.00    +0.109 C 
ATOM      8  C   UNL     1       6.110   1.183  24.740  0.00  0.00    +0.212 C 
ATOM      9  N   UNL     1       7.438   0.891  24.540  0.00  0.00    -0.288 N 
ATOM     10  H   UNL     1       8.016   1.642  24.175  0.00  0.00    +0.151 HD
ATOM     11  O   UNL     1       5.233   0.343  24.869  0.00  0.00    -0.276 OA
ENDBRANCH   1   9
BRANCH   2  12
ATOM     12  O   UNL     1       9.296  -2.334  24.604  0.00  0.00    -0.385 OA
ATOM     13  H   UNL     1       8.385  -2.666  24.665  0.00  0.00    +0.210 HD
ENDBRANCH   2  12
BRANCH   3  14
ATOM     14  O   UNL     1      10.670   1.084  24.179  0.00  0.00    -0.386 OA
ATOM     15  H   UNL     1       9.891   1.447  24.638  0.00  0.00    +0.210 HD
ENDBRANCH   3  14
BRANCH   4  16
ATOM     16  O   UNL     1      10.484  -1.682  21.869  0.00  0.00    -0.386 OA
ATOM     17  H   UNL     1      11.420  -1.697  21.599  0.00  0.00    +0.210 HD
ENDBRANCH   4  16
BRANCH   5  18
ATOM     18  C   UNL     1       8.547   1.546  21.766  0.00  0.00    +0.190 C 
BRANCH  18  19
ATOM     19  O   UNL     1       9.799   2.186  21.478  0.00  0.00    -0.392 OA
ATOM     20  H   UNL     1      10.083   1.887  20.593  0.00  0.00    +0.210 HD
ENDBRANCH  18  19
ENDBRANCH   5  18
TORSDOF 6
ENDMDL
