MODEL 1
REMARK VINA RESULT:      -6.8      0.000      0.000
REMARK  Name = 
REMARK  8 active torsions:
REMARK  status: ('A' for Active; 'I' for Inactive)
REMARK    1  A    between atoms: C_1  and  C_2
REMARK    2  A    between atoms: C_2  and  N_3
REMARK    3  A    between atoms: C_8  and  C_21
REMARK    4  A    between atoms: C_10  and  C_11
REMARK    5  A    between atoms: C_10  and  C_15
REMARK    6  A    between atoms: C_11  and  C_12
REMARK    7  A    between atoms: C_12  and  C_13
REMARK    8  A    between atoms: C_13  and  N_14
REMARK                            x       y       z     vdW  Elec       q    Type
REMARK                         _______ _______ _______ _____ _____    ______ ____
ROOT
ATOM      1  N   UNL     1       8.295   0.314  26.032  0.00  0.00    -0.298 N 
ATOM      2  H   UNL     1       7.310   0.389  25.811  0.00  0.00    +0.150 HD
ATOM      3  C   UNL     1       9.115   0.808  25.041  0.00  0.00    +0.323 C 
ATOM      4  N   UNL     1       8.497   1.666  24.142  0.00  0.00    -0.166 N 
ATOM      5  C   UNL     1       9.163   2.280  22.951  0.00  0.00    +0.092 C 
ATOM      6  C   UNL     1       7.914   2.597  22.114  0.00  0.00    +0.090 C 
ATOM      7  C   UNL     1       6.901   2.766  23.214  0.00  0.00    +0.072 C 
ATOM      8  N   UNL     1       7.192   2.133  24.315  0.00  0.00    -0.179 NA
ATOM      9  O   UNL     1      10.288   0.450  24.956  0.00  0.00    -0.251 OA
ENDROOT
BRANCH   7  10
ATOM     10  C   UNL     1       5.696   3.590  22.999  0.00  0.00    +0.036 A 
ATOM     11  C   UNL     1       4.434   2.998  23.074  0.00  0.00    +0.051 A 
ATOM     12  C   UNL     1       3.299   3.806  23.014  0.00  0.00    +0.124 A 
ATOM     13  F   UNL     1       2.087   3.249  23.127  0.00  0.00    -0.205 F 
ATOM     14  C   UNL     1       3.397   5.188  22.870  0.00  0.00    +0.041 A 
ATOM     15  C   UNL     1       4.655   5.777  22.768  0.00  0.00    +0.042 A 
ATOM     16  C   UNL     1       5.795   4.977  22.833  0.00  0.00    +0.132 A 
ATOM     17  F   UNL     1       6.990   5.578  22.744  0.00  0.00    -0.205 F 
ENDBRANCH   7  10
BRANCH   5  18
ATOM     18  C   UNL     1       9.980   3.531  23.367  0.00  0.00    -0.022 A 
ATOM     19  C   UNL     1      11.358   3.606  23.079  0.00  0.00    +0.006 A 
ATOM     20  C   UNL     1      12.123   4.730  23.409  0.00  0.00    +0.000 A 
ATOM     21  C   UNL     1      11.529   5.820  24.030  0.00  0.00    +0.000 A 
ATOM     22  C   UNL     1      10.175   5.776  24.336  0.00  0.00    +0.000 A 
ATOM     23  C   UNL     1       9.415   4.643  24.020  0.00  0.00    +0.006 A 
ENDBRANCH   5  18
BRANCH   1  25
ATOM     24  C   UNL     1       8.428  -2.132  26.441  0.00  0.00    +0.024 C 
ATOM     25  C   UNL     1       8.815  -0.737  26.881  0.00  0.00    +0.102 C 
ENDBRANCH   1  25
BRANCH   5  26
ATOM     26  C   UNL     1      10.028   1.256  22.158  0.00  0.00    +0.034 C 
BRANCH  26  27
ATOM     27  C   UNL     1       9.223   0.304  21.263  0.00  0.00    +0.017 C 
BRANCH  27  28
ATOM     28  C   UNL     1       9.222  -1.107  21.850  0.00  0.00    +0.078 C 
BRANCH  28  29
ATOM     29  N   UNL     1      10.578  -1.510  22.197  0.00  0.00    -0.330 NA
ATOM     30  H   UNL     1      11.230  -1.105  21.526  0.00  0.00    +0.118 HD
ATOM     31  H   UNL     1      10.831  -1.132  23.108  0.00  0.00    +0.118 HD
ENDBRANCH  28  29
ENDBRANCH  27  28
ENDBRANCH  26  27
ENDBRANCH   5  26
TORSDOF 7
ENDMDL
MODEL 2
REMARK VINA RESULT:      -6.6      3.376      6.364
REMARK  Name = 
REMARK  8 active torsions:
REMARK  status: ('A' for Active; 'I' for Inactive)
REMARK    1  A    between atoms: C_1  and  C_2
REMARK    2  A    between atoms: C_2  and  N_3
REMARK    3  A    between atoms: C_8  and  C_21
REMARK    4  A    between atoms: C_10  and  C_11
REMARK    5  A    between atoms: C_10  and  C_15
REMARK    6  A    between atoms: C_11  and  C_12
REMARK    7  A    between atoms: C_12  and  C_13
REMARK    8  A    between atoms: C_13  and  N_14
REMARK                            x       y       z     vdW  Elec       q    Type
REMARK                         _______ _______ _______ _____ _____    ______ ____
ROOT
ATOM      1  N   UNL     1      12.006   4.610  23.548  0.00  0.00    -0.298 N 
ATOM      2  H   UNL     1      12.245   3.666  23.270  0.00  0.00    +0.150 HD
ATOM      3  C   UNL     1      10.647   4.832  23.612  0.00  0.00    +0.323 C 
ATOM      4  N   UNL     1       9.869   3.686  23.695  0.00  0.00    -0.166 N 
ATOM      5  C   UNL     1       8.373   3.670  23.716  0.00  0.00    +0.092 C 
ATOM      6  C   UNL     1       8.143   2.224  23.248  0.00  0.00    +0.090 C 
ATOM      7  C   UNL     1       9.414   1.586  23.740  0.00  0.00    +0.072 C 
ATOM      8  N   UNL     1      10.413   2.412  23.873  0.00  0.00    -0.179 NA
ATOM      9  O   UNL     1      10.191   5.972  23.540  0.00  0.00    -0.251 OA
ENDROOT
BRANCH   7  10
ATOM     10  C   UNL     1       9.461   0.140  24.026  0.00  0.00    +0.036 A 
ATOM     11  C   UNL     1       9.020  -0.331  25.264  0.00  0.00    +0.051 A 
ATOM     12  C   UNL     1       8.931  -1.707  25.476  0.00  0.00    +0.124 A 
ATOM     13  F   UNL     1       8.469  -2.165  26.646  0.00  0.00    -0.205 F 
ATOM     14  C   UNL     1       9.285  -2.620  24.484  0.00  0.00    +0.041 A 
ATOM     15  C   UNL     1       9.750  -2.151  23.259  0.00  0.00    +0.042 A 
ATOM     16  C   UNL     1       9.836  -0.777  23.037  0.00  0.00    +0.132 A 
ATOM     17  F   UNL     1      10.277  -0.360  21.842  0.00  0.00    -0.205 F 
ENDBRANCH   7  10
BRANCH   5  18
ATOM     18  C   UNL     1       7.843   3.965  25.144  0.00  0.00    -0.022 A 
ATOM     19  C   UNL     1       7.275   2.932  25.916  0.00  0.00    +0.006 A 
ATOM     20  C   UNL     1       6.814   3.151  27.219  0.00  0.00    +0.000 A 
ATOM     21  C   UNL     1       6.919   4.410  27.794  0.00  0.00    +0.000 A 
ATOM     22  C   UNL     1       7.466   5.452  27.057  0.00  0.00    +0.000 A 
ATOM     23  C   UNL     1       7.910   5.236  25.747  0.00  0.00    +0.006 A 
ENDBRANCH   5  18
BRANCH   1  25
ATOM     24  C   UNL     1      13.470   5.711  21.871  0.00  0.00    +0.024 C 
ATOM     25  C   UNL     1      12.866   5.739  23.258  0.00  0.00    +0.102 C 
ENDBRANCH   1  25
BRANCH   5  26
ATOM     26  C   UNL     1       7.752   4.625  22.655  0.00  0.00    +0.034 C 
BRANCH  26  27
ATOM     27  C   UNL     1       6.255   4.904  22.850  0.00  0.00    +0.017 C 
BRANCH  27  28
ATOM     28  C   UNL     1       5.919   6.335  22.432  0.00  0.00    +0.078 C 
BRANCH  28  29
ATOM     29  N   UNL     1       6.843   6.787  21.398  0.00  0.00    -0.330 NA
ATOM     30  H   UNL     1       6.386   7.497  20.828  0.00  0.00    +0.118 HD
ATOM     31  H   UNL     1       7.650   7.237  21.826  0.00  0.00    +0.118 HD
ENDBRANCH  28  29
ENDBRANCH  27  28
ENDBRANCH  26  27
ENDBRANCH   5  26
TORSDOF 7
ENDMDL
MODEL 3
REMARK VINA RESULT:      -6.4      3.688      6.676
REMARK  Name = 
REMARK  8 active torsions:
REMARK  status: ('A' for Active; 'I' for Inactive)
REMARK    1  A    between atoms: C_1  and  C_2
REMARK    2  A    between atoms: C_2  and  N_3
REMARK    3  A    between atoms: C_8  and  C_21
REMARK    4  A    between atoms: C_10  and  C_11
REMARK    5  A    between atoms: C_10  and  C_15
REMARK    6  A    between atoms: C_11  and  C_12
REMARK    7  A    between atoms: C_12  and  C_13
REMARK    8  A    between atoms: C_13  and  N_14
REMARK                            x       y       z     vdW  Elec       q    Type
REMARK                         _______ _______ _______ _____ _____    ______ ____
ROOT
ATOM      1  N   UNL     1       6.263  -3.739  22.385  0.00  0.00    -0.298 N 
ATOM      2  H   UNL     1       7.012  -3.219  21.943  0.00  0.00    +0.150 HD
ATOM      3  C   UNL     1       6.223  -3.580  23.753  0.00  0.00    +0.323 C 
ATOM      4  N   UNL     1       6.902  -2.470  24.235  0.00  0.00    -0.166 N 
ATOM      5  C   UNL     1       7.050  -2.122  25.683  0.00  0.00    +0.092 C 
ATOM      6  C   UNL     1       8.291  -1.221  25.587  0.00  0.00    +0.090 C 
ATOM      7  C   UNL     1       8.133  -0.710  24.180  0.00  0.00    +0.072 C 
ATOM      8  N   UNL     1       7.443  -1.491  23.399  0.00  0.00    -0.179 NA
ATOM      9  O   UNL     1       5.666  -4.412  24.468  0.00  0.00    -0.251 OA
ENDROOT
BRANCH   7  10
ATOM     10  C   UNL     1       8.738   0.575  23.781  0.00  0.00    +0.036 A 
ATOM     11  C   UNL     1       8.536   1.707  24.574  0.00  0.00    +0.051 A 
ATOM     12  C   UNL     1       9.226   2.881  24.271  0.00  0.00    +0.124 A 
ATOM     13  F   UNL     1       9.069   3.957  25.053  0.00  0.00    -0.205 F 
ATOM     14  C   UNL     1      10.101   2.952  23.190  0.00  0.00    +0.041 A 
ATOM     15  C   UNL     1      10.282   1.832  22.383  0.00  0.00    +0.042 A 
ATOM     16  C   UNL     1       9.601   0.653  22.681  0.00  0.00    +0.132 A 
ATOM     17  F   UNL     1       9.808  -0.410  21.891  0.00  0.00    -0.205 F 
ENDBRANCH   7  10
BRANCH   5  18
ATOM     18  C   UNL     1       5.781  -1.397  26.202  0.00  0.00    -0.022 A 
ATOM     19  C   UNL     1       4.753  -2.129  26.829  0.00  0.00    +0.006 A 
ATOM     20  C   UNL     1       3.607  -1.507  27.339  0.00  0.00    +0.000 A 
ATOM     21  C   UNL     1       3.461  -0.130  27.246  0.00  0.00    +0.000 A 
ATOM     22  C   UNL     1       4.451   0.620  26.626  0.00  0.00    +0.000 A 
ATOM     23  C   UNL     1       5.589  -0.005  26.102  0.00  0.00    +0.006 A 
ENDBRANCH   5  18
BRANCH   1  25
ATOM     24  C   UNL     1       6.825  -5.992  21.503  0.00  0.00    +0.024 C 
ATOM     25  C   UNL     1       5.753  -4.975  21.829  0.00  0.00    +0.102 C 
ENDBRANCH   1  25
BRANCH   5  26
ATOM     26  C   UNL     1       7.415  -3.355  26.559  0.00  0.00    +0.034 C 
BRANCH  26  27
ATOM     27  C   UNL     1       8.867  -3.831  26.412  0.00  0.00    +0.017 C 
BRANCH  27  28
ATOM     28  C   UNL     1       8.913  -5.214  25.763  0.00  0.00    +0.078 C 
BRANCH  28  29
ATOM     29  N   UNL     1      10.278  -5.541  25.369  0.00  0.00    -0.330 NA
ATOM     30  H   UNL     1      10.634  -6.278  25.975  0.00  0.00    +0.118 HD
ATOM     31  H   UNL     1      10.286  -5.916  24.422  0.00  0.00    +0.118 HD
ENDBRANCH  28  29
ENDBRANCH  27  28
ENDBRANCH  26  27
ENDBRANCH   5  26
TORSDOF 7
ENDMDL
MODEL 4
REMARK VINA RESULT:      -6.4      3.987      6.850
REMARK  Name = 
REMARK  8 active torsions:
REMARK  status: ('A' for Active; 'I' for Inactive)
REMARK    1  A    between atoms: C_1  and  C_2
REMARK    2  A    between atoms: C_2  and  N_3
REMARK    3  A    between atoms: C_8  and  C_21
REMARK    4  A    between atoms: C_10  and  C_11
REMARK    5  A    between atoms: C_10  and  C_15
REMARK    6  A    between atoms: C_11  and  C_12
REMARK    7  A    between atoms: C_12  and  C_13
REMARK    8  A    between atoms: C_13  and  N_14
REMARK                            x       y       z     vdW  Elec       q    Type
REMARK                         _______ _______ _______ _____ _____    ______ ____
ROOT
ATOM      1  N   UNL     1       4.108  -1.180  26.451  0.00  0.00    -0.298 N 
ATOM      2  H   UNL     1       4.358  -0.266  26.095  0.00  0.00    +0.150 HD
ATOM      3  C   UNL     1       4.597  -2.215  25.684  0.00  0.00    +0.323 C 
ATOM      4  N   UNL     1       5.645  -1.876  24.840  0.00  0.00    -0.166 N 
ATOM      5  C   UNL     1       6.299  -2.811  23.872  0.00  0.00    +0.092 C 
ATOM      6  C   UNL     1       6.904  -1.776  22.910  0.00  0.00    +0.090 C 
ATOM      7  C   UNL     1       7.081  -0.617  23.854  0.00  0.00    +0.072 C 
ATOM      8  N   UNL     1       6.276  -0.631  24.878  0.00  0.00    -0.179 NA
ATOM      9  O   UNL     1       4.080  -3.331  25.728  0.00  0.00    -0.251 OA
ENDROOT
BRANCH   7  10
ATOM     10  C   UNL     1       8.097   0.418  23.583  0.00  0.00    +0.036 A 
ATOM     11  C   UNL     1       9.340   0.344  24.214  0.00  0.00    +0.051 A 
ATOM     12  C   UNL     1      10.344   1.240  23.846  0.00  0.00    +0.124 A 
ATOM     13  F   UNL     1      11.551   1.147  24.418  0.00  0.00    -0.205 F 
ATOM     14  C   UNL     1      10.129   2.212  22.872  0.00  0.00    +0.041 A 
ATOM     15  C   UNL     1       8.882   2.303  22.261  0.00  0.00    +0.042 A 
ATOM     16  C   UNL     1       7.875   1.409  22.618  0.00  0.00    +0.132 A 
ATOM     17  F   UNL     1       6.689   1.517  22.002  0.00  0.00    -0.205 F 
ENDBRANCH   7  10
BRANCH   5  18
ATOM     18  C   UNL     1       7.350  -3.695  24.592  0.00  0.00    -0.022 A 
ATOM     19  C   UNL     1       8.715  -3.587  24.259  0.00  0.00    +0.006 A 
ATOM     20  C   UNL     1       9.697  -4.344  24.908  0.00  0.00    +0.000 A 
ATOM     21  C   UNL     1       9.343  -5.227  25.919  0.00  0.00    +0.000 A 
ATOM     22  C   UNL     1       8.006  -5.365  26.266  0.00  0.00    +0.000 A 
ATOM     23  C   UNL     1       7.022  -4.619  25.604  0.00  0.00    +0.006 A 
ENDBRANCH   5  18
BRANCH   1  25
ATOM     24  C   UNL     1       3.107  -1.544  28.694  0.00  0.00    +0.024 C 
ATOM     25  C   UNL     1       2.892  -1.407  27.202  0.00  0.00    +0.102 C 
ENDBRANCH   1  25
BRANCH   5  26
ATOM     26  C   UNL     1       5.268  -3.663  23.076  0.00  0.00    +0.034 C 
BRANCH  26  27
ATOM     27  C   UNL     1       5.680  -3.974  21.631  0.00  0.00    +0.017 C 
BRANCH  27  28
ATOM     28  C   UNL     1       6.239  -5.393  21.529  0.00  0.00    +0.078 C 
BRANCH  28  29
ATOM     29  N   UNL     1       5.418  -6.315  22.304  0.00  0.00    -0.330 NA
ATOM     30  H   UNL     1       5.787  -6.377  23.251  0.00  0.00    +0.118 HD
ATOM     31  H   UNL     1       4.471  -5.951  22.387  0.00  0.00    +0.118 HD
ENDBRANCH  28  29
ENDBRANCH  27  28
ENDBRANCH  26  27
ENDBRANCH   5  26
TORSDOF 7
ENDMDL
MODEL 5
REMARK VINA RESULT:      -6.3      4.280      6.931
REMARK  Name = 
REMARK  8 active torsions:
REMARK  status: ('A' for Active; 'I' for Inactive)
REMARK    1  A    between atoms: C_1  and  C_2
REMARK    2  A    between atoms: C_2  and  N_3
REMARK    3  A    between atoms: C_8  and  C_21
REMARK    4  A    between atoms: C_10  and  C_11
REMARK    5  A    between atoms: C_10  and  C_15
REMARK    6  A    between atoms: C_11  and  C_12
REMARK    7  A    between atoms: C_12  and  C_13
REMARK    8  A    between atoms: C_13  and  N_14
REMARK                            x       y       z     vdW  Elec       q    Type
REMARK                         _______ _______ _______ _____ _____    ______ ____
ROOT
ATOM      1  N   UNL     1       4.719  -4.738  23.236  0.00  0.00    -0.298 N 
ATOM      2  H   UNL     1       5.302  -4.394  22.483  0.00  0.00    +0.150 HD
ATOM      3  C   UNL     1       5.137  -4.324  24.482  0.00  0.00    +0.323 C 
ATOM      4  N   UNL     1       5.983  -3.224  24.481  0.00  0.00    -0.166 N 
ATOM      5  C   UNL     1       6.612  -2.630  25.702  0.00  0.00    +0.092 C 
ATOM      6  C   UNL     1       7.790  -1.903  25.035  0.00  0.00    +0.090 C 
ATOM      7  C   UNL     1       7.201  -1.649  23.673  0.00  0.00    +0.072 C 
ATOM      8  N   UNL     1       6.260  -2.481  23.331  0.00  0.00    -0.179 NA
ATOM      9  O   UNL     1       4.811  -4.942  25.493  0.00  0.00    -0.251 OA
ENDROOT
BRANCH   7  10
ATOM     10  C   UNL     1       7.695  -0.534  22.843  0.00  0.00    +0.036 A 
ATOM     11  C   UNL     1       6.991   0.672  22.820  0.00  0.00    +0.051 A 
ATOM     12  C   UNL     1       7.538   1.767  22.150  0.00  0.00    +0.124 A 
ATOM     13  F   UNL     1       6.889   2.937  22.161  0.00  0.00    -0.205 F 
ATOM     14  C   UNL     1       8.764   1.679  21.494  0.00  0.00    +0.041 A 
ATOM     15  C   UNL     1       9.453   0.469  21.493  0.00  0.00    +0.042 A 
ATOM     16  C   UNL     1       8.917  -0.628  22.165  0.00  0.00    +0.132 A 
ATOM     17  F   UNL     1       9.612  -1.773  22.154  0.00  0.00    -0.205 F 
ENDBRANCH   7  10
BRANCH   5  18
ATOM     18  C   UNL     1       5.616  -1.687  26.426  0.00  0.00    -0.022 A 
ATOM     19  C   UNL     1       4.893  -2.145  27.545  0.00  0.00    +0.006 A 
ATOM     20  C   UNL     1       4.009  -1.316  28.245  0.00  0.00    +0.000 A 
ATOM     21  C   UNL     1       3.829   0.002  27.851  0.00  0.00    +0.000 A 
ATOM     22  C   UNL     1       4.519   0.484  26.746  0.00  0.00    +0.000 A 
ATOM     23  C   UNL     1       5.391  -0.352  26.037  0.00  0.00    +0.006 A 
ENDBRANCH   5  18
BRANCH   1  25
ATOM     24  C   UNL     1       2.497  -5.842  23.136  0.00  0.00    +0.024 C 
ATOM     25  C   UNL     1       4.003  -5.993  23.142  0.00  0.00    +0.102 C 
ENDBRANCH   1  25
BRANCH   5  26
ATOM     26  C   UNL     1       7.192  -3.711  26.660  0.00  0.00    +0.034 C 
BRANCH  26  27
ATOM     27  C   UNL     1       8.678  -4.026  26.436  0.00  0.00    +0.017 C 
BRANCH  27  28
ATOM     28  C   UNL     1       8.837  -5.371  25.728  0.00  0.00    +0.078 C 
BRANCH  28  29
ATOM     29  N   UNL     1      10.223  -5.563  25.318  0.00  0.00    -0.330 NA
ATOM     30  H   UNL     1      10.316  -5.331  24.331  0.00  0.00    +0.118 HD
ATOM     31  H   UNL     1      10.827  -4.918  25.824  0.00  0.00    +0.118 HD
ENDBRANCH  28  29
ENDBRANCH  27  28
ENDBRANCH  26  27
ENDBRANCH   5  26
TORSDOF 7
ENDMDL
MODEL 6
REMARK VINA RESULT:      -6.3      4.386      7.234
REMARK  Name = 
REMARK  8 active torsions:
REMARK  status: ('A' for Active; 'I' for Inactive)
REMARK    1  A    between atoms: C_1  and  C_2
REMARK    2  A    between atoms: C_2  and  N_3
REMARK    3  A    between atoms: C_8  and  C_21
REMARK    4  A    between atoms: C_10  and  C_11
REMARK    5  A    between atoms: C_10  and  C_15
REMARK    6  A    between atoms: C_11  and  C_12
REMARK    7  A    between atoms: C_12  and  C_13
REMARK    8  A    between atoms: C_13  and  N_14
REMARK                            x       y       z     vdW  Elec       q    Type
REMARK                         _______ _______ _______ _____ _____    ______ ____
ROOT
ATOM      1  N   UNL     1       4.307  -0.816  26.883  0.00  0.00    -0.298 N 
ATOM      2  H   UNL     1       4.524  -0.006  26.315  0.00  0.00    +0.150 HD
ATOM      3  C   UNL     1       4.515  -2.011  26.229  0.00  0.00    +0.323 C 
ATOM      4  N   UNL     1       5.341  -1.935  25.117  0.00  0.00    -0.166 N 
ATOM      5  C   UNL     1       5.666  -3.083  24.214  0.00  0.00    +0.092 C 
ATOM      6  C   UNL     1       6.083  -2.294  22.963  0.00  0.00    +0.090 C 
ATOM      7  C   UNL     1       6.570  -1.024  23.607  0.00  0.00    +0.072 C 
ATOM      8  N   UNL     1       6.048  -0.780  24.775  0.00  0.00    -0.179 NA
ATOM      9  O   UNL     1       3.949  -3.038  26.599  0.00  0.00    -0.251 OA
ENDROOT
BRANCH   7  10
ATOM     10  C   UNL     1       7.556  -0.170  22.919  0.00  0.00    +0.036 A 
ATOM     11  C   UNL     1       7.195   1.120  22.526  0.00  0.00    +0.051 A 
ATOM     12  C   UNL     1       8.170   1.972  22.008  0.00  0.00    +0.124 A 
ATOM     13  F   UNL     1       7.838   3.224  21.669  0.00  0.00    -0.205 F 
ATOM     14  C   UNL     1       9.493   1.561  21.865  0.00  0.00    +0.041 A 
ATOM     15  C   UNL     1       9.849   0.266  22.232  0.00  0.00    +0.042 A 
ATOM     16  C   UNL     1       8.882  -0.590  22.756  0.00  0.00    +0.132 A 
ATOM     17  F   UNL     1       9.262  -1.826  23.110  0.00  0.00    -0.205 F 
ENDBRANCH   7  10
BRANCH   5  18
ATOM     18  C   UNL     1       6.799  -3.951  24.821  0.00  0.00    -0.022 A 
ATOM     19  C   UNL     1       7.857  -4.404  24.009  0.00  0.00    +0.006 A 
ATOM     20  C   UNL     1       8.914  -5.162  24.526  0.00  0.00    +0.000 A 
ATOM     21  C   UNL     1       8.948  -5.483  25.875  0.00  0.00    +0.000 A 
ATOM     22  C   UNL     1       7.916  -5.060  26.703  0.00  0.00    +0.000 A 
ATOM     23  C   UNL     1       6.851  -4.316  26.181  0.00  0.00    +0.006 A 
ENDBRANCH   5  18
BRANCH   1  25
ATOM     24  C   UNL     1       1.983  -0.182  27.488  0.00  0.00    +0.024 C 
ATOM     25  C   UNL     1       3.303  -0.778  27.926  0.00  0.00    +0.102 C 
ENDBRANCH   1  25
BRANCH   5  26
ATOM     26  C   UNL     1       4.411  -3.931  23.853  0.00  0.00    +0.034 C 
BRANCH  26  27
ATOM     27  C   UNL     1       4.709  -5.178  23.009  0.00  0.00    +0.017 C 
BRANCH  27  28
ATOM     28  C   UNL     1       3.711  -6.291  23.329  0.00  0.00    +0.078 C 
BRANCH  28  29
ATOM     29  N   UNL     1       4.374  -7.370  24.049  0.00  0.00    -0.330 NA
ATOM     30  H   UNL     1       4.737  -8.047  23.379  0.00  0.00    +0.118 HD
ATOM     31  H   UNL     1       5.179  -7.007  24.556  0.00  0.00    +0.118 HD
ENDBRANCH  28  29
ENDBRANCH  27  28
ENDBRANCH  26  27
ENDBRANCH   5  26
TORSDOF 7
ENDMDL
MODEL 7
REMARK VINA RESULT:      -6.2      2.975      5.816
REMARK  Name = 
REMARK  8 active torsions:
REMARK  status: ('A' for Active; 'I' for Inactive)
REMARK    1  A    between atoms: C_1  and  C_2
REMARK    2  A    between atoms: C_2  and  N_3
REMARK    3  A    between atoms: C_8  and  C_21
REMARK    4  A    between atoms: C_10  and  C_11
REMARK    5  A    between atoms: C_10  and  C_15
REMARK    6  A    between atoms: C_11  and  C_12
REMARK    7  A    between atoms: C_12  and  C_13
REMARK    8  A    between atoms: C_13  and  N_14
REMARK                            x       y       z     vdW  Elec       q    Type
REMARK                         _______ _______ _______ _____ _____    ______ ____
ROOT
ATOM      1  N   UNL     1       5.326   4.745  22.558  0.00  0.00    -0.298 N 
ATOM      2  H   UNL     1       5.155   3.769  22.350  0.00  0.00    +0.150 HD
ATOM      3  C   UNL     1       6.245   4.933  23.568  0.00  0.00    +0.323 C 
ATOM      4  N   UNL     1       7.058   3.841  23.832  0.00  0.00    -0.166 N 
ATOM      5  C   UNL     1       8.087   3.784  24.918  0.00  0.00    +0.092 C 
ATOM      6  C   UNL     1       8.198   2.259  25.064  0.00  0.00    +0.090 C 
ATOM      7  C   UNL     1       7.815   1.836  23.671  0.00  0.00    +0.072 C 
ATOM      8  N   UNL     1       7.071   2.694  23.034  0.00  0.00    -0.179 NA
ATOM      9  O   UNL     1       6.275   5.986  24.204  0.00  0.00    -0.251 OA
ENDROOT
BRANCH   7  10
ATOM     10  C   UNL     1       8.274   0.542  23.131  0.00  0.00    +0.036 A 
ATOM     11  C   UNL     1       7.734  -0.644  23.632  0.00  0.00    +0.051 A 
ATOM     12  C   UNL     1       8.064  -1.854  23.020  0.00  0.00    +0.124 A 
ATOM     13  F   UNL     1       7.517  -2.990  23.469  0.00  0.00    -0.205 F 
ATOM     14  C   UNL     1       8.929  -1.904  21.929  0.00  0.00    +0.041 A 
ATOM     15  C   UNL     1       9.490  -0.725  21.446  0.00  0.00    +0.042 A 
ATOM     16  C   UNL     1       9.160   0.489  22.048  0.00  0.00    +0.132 A 
ATOM     17  F   UNL     1       9.708   1.606  21.550  0.00  0.00    -0.205 F 
ENDBRANCH   7  10
BRANCH   5  18
ATOM     18  C   UNL     1       9.400   4.473  24.462  0.00  0.00    -0.022 A 
ATOM     19  C   UNL     1       9.656   5.813  24.814  0.00  0.00    +0.006 A 
ATOM     20  C   UNL     1      10.842   6.460  24.450  0.00  0.00    +0.000 A 
ATOM     21  C   UNL     1      11.814   5.781  23.729  0.00  0.00    +0.000 A 
ATOM     22  C   UNL     1      11.590   4.462  23.357  0.00  0.00    +0.000 A 
ATOM     23  C   UNL     1      10.395   3.821  23.708  0.00  0.00    +0.006 A 
ENDBRANCH   5  18
BRANCH   1  25
ATOM     24  C   UNL     1       2.901   5.224  22.317  0.00  0.00    +0.024 C 
ATOM     25  C   UNL     1       4.315   5.762  22.362  0.00  0.00    +0.102 C 
ENDBRANCH   1  25
BRANCH   5  26
ATOM     26  C   UNL     1       7.564   4.361  26.265  0.00  0.00    +0.034 C 
BRANCH  26  27
ATOM     27  C   UNL     1       6.565   3.455  26.999  0.00  0.00    +0.017 C 
BRANCH  27  28
ATOM     28  C   UNL     1       6.773   3.545  28.511  0.00  0.00    +0.078 C 
BRANCH  28  29
ATOM     29  N   UNL     1       7.523   2.390  28.985  0.00  0.00    -0.330 NA
ATOM     30  H   UNL     1       7.301   2.226  29.966  0.00  0.00    +0.118 HD
ATOM     31  H   UNL     1       7.231   1.555  28.481  0.00  0.00    +0.118 HD
ENDBRANCH  28  29
ENDBRANCH  27  28
ENDBRANCH  26  27
ENDBRANCH   5  26
TORSDOF 7
ENDMDL
MODEL 8
REMARK VINA RESULT:      -6.1      5.203      8.317
REMARK  Name = 
REMARK  8 active torsions:
REMARK  status: ('A' for Active; 'I' for Inactive)
REMARK    1  A    between atoms: C_1  and  C_2
REMARK    2  A    between atoms: C_2  and  N_3
REMARK    3  A    between atoms: C_8  and  C_21
REMARK    4  A    between atoms: C_10  and  C_11
REMARK    5  A    between atoms: C_10  and  C_15
REMARK    6  A    between atoms: C_11  and  C_12
REMARK    7  A    between atoms: C_12  and  C_13
REMARK    8  A    between atoms: C_13  and  N_14
REMARK                            x       y       z     vdW  Elec       q    Type
REMARK                         _______ _______ _______ _____ _____    ______ ____
ROOT
ATOM      1  N   UNL     1       7.074  -5.546  27.503  0.00  0.00    -0.298 N 
ATOM      2  H   UNL     1       7.685  -4.772  27.732  0.00  0.00    +0.150 HD
ATOM      3  C   UNL     1       6.158  -5.244  26.519  0.00  0.00    +0.323 C 
ATOM      4  N   UNL     1       6.472  -4.137  25.745  0.00  0.00    -0.166 N 
ATOM      5  C   UNL     1       5.606  -3.580  24.659  0.00  0.00    +0.092 C 
ATOM      6  C   UNL     1       6.168  -2.151  24.612  0.00  0.00    +0.090 C 
ATOM      7  C   UNL     1       7.570  -2.408  25.095  0.00  0.00    +0.072 C 
ATOM      8  N   UNL     1       7.698  -3.473  25.833  0.00  0.00    -0.179 NA
ATOM      9  O   UNL     1       5.121  -5.896  26.403  0.00  0.00    -0.251 OA
ENDROOT
BRANCH   7  10
ATOM     10  C   UNL     1       8.665  -1.490  24.729  0.00  0.00    +0.036 A 
ATOM     11  C   UNL     1       9.026  -1.348  23.388  0.00  0.00    +0.051 A 
ATOM     12  C   UNL     1       9.961  -0.375  23.034  0.00  0.00    +0.124 A 
ATOM     13  F   UNL     1      10.280  -0.206  21.744  0.00  0.00    -0.205 F 
ATOM     14  C   UNL     1      10.549   0.450  23.990  0.00  0.00    +0.041 A 
ATOM     15  C   UNL     1      10.210   0.291  25.331  0.00  0.00    +0.042 A 
ATOM     16  C   UNL     1       9.273  -0.675  25.693  0.00  0.00    +0.132 A 
ATOM     17  F   UNL     1       8.960  -0.792  26.991  0.00  0.00    -0.205 F 
ENDBRANCH   7  10
BRANCH   5  18
ATOM     18  C   UNL     1       5.798  -4.380  23.344  0.00  0.00    -0.022 A 
ATOM     19  C   UNL     1       5.834  -3.708  22.106  0.00  0.00    +0.006 A 
ATOM     20  C   UNL     1       6.037  -4.390  20.900  0.00  0.00    +0.000 A 
ATOM     21  C   UNL     1       6.222  -5.765  20.899  0.00  0.00    +0.000 A 
ATOM     22  C   UNL     1       6.183  -6.459  22.101  0.00  0.00    +0.000 A 
ATOM     23  C   UNL     1       5.963  -5.778  23.304  0.00  0.00    +0.006 A 
ENDBRANCH   5  18
BRANCH   1  25
ATOM     24  C   UNL     1       5.913  -6.035  29.644  0.00  0.00    +0.024 C 
ATOM     25  C   UNL     1       6.719  -6.559  28.475  0.00  0.00    +0.102 C 
ENDBRANCH   1  25
BRANCH   5  26
ATOM     26  C   UNL     1       4.108  -3.496  25.075  0.00  0.00    +0.034 C 
BRANCH  26  27
ATOM     27  C   UNL     1       3.789  -2.375  26.074  0.00  0.00    +0.017 C 
BRANCH  27  28
ATOM     28  C   UNL     1       3.368  -2.963  27.420  0.00  0.00    +0.078 C 
BRANCH  28  29
ATOM     29  N   UNL     1       2.697  -4.241  27.224  0.00  0.00    -0.330 NA
ATOM     30  H   UNL     1       1.696  -4.121  27.373  0.00  0.00    +0.118 HD
ATOM     31  H   UNL     1       2.810  -4.549  26.260  0.00  0.00    +0.118 HD
ENDBRANCH  28  29
ENDBRANCH  27  28
ENDBRANCH  26  27
ENDBRANCH   5  26
TORSDOF 7
ENDMDL
MODEL 9
REMARK VINA RESULT:      -6.0      3.969      7.130
REMARK  Name = 
REMARK  8 active torsions:
REMARK  status: ('A' for Active; 'I' for Inactive)
REMARK    1  A    between atoms: C_1  and  C_2
REMARK    2  A    between atoms: C_2  and  N_3
REMARK    3  A    between atoms: C_8  and  C_21
REMARK    4  A    between atoms: C_10  and  C_11
REMARK    5  A    between atoms: C_10  and  C_15
REMARK    6  A    between atoms: C_11  and  C_12
REMARK    7  A    between atoms: C_12  and  C_13
REMARK    8  A    between atoms: C_13  and  N_14
REMARK                            x       y       z     vdW  Elec       q    Type
REMARK                         _______ _______ _______ _____ _____    ______ ____
ROOT
ATOM      1  N   UNL     1       6.450   1.299  22.754  0.00  0.00    -0.298 N 
ATOM      2  H   UNL     1       5.873   1.493  23.563  0.00  0.00    +0.150 HD
ATOM      3  C   UNL     1       7.260   0.195  22.914  0.00  0.00    +0.323 C 
ATOM      4  N   UNL     1       6.875  -0.673  23.925  0.00  0.00    -0.166 N 
ATOM      5  C   UNL     1       7.626  -1.904  24.327  0.00  0.00    +0.092 C 
ATOM      6  C   UNL     1       7.072  -2.068  25.751  0.00  0.00    +0.090 C 
ATOM      7  C   UNL     1       5.727  -1.415  25.584  0.00  0.00    +0.072 C 
ATOM      8  N   UNL     1       5.670  -0.541  24.620  0.00  0.00    -0.179 NA
ATOM      9  O   UNL     1       8.274   0.053  22.232  0.00  0.00    -0.251 OA
ENDROOT
BRANCH   7  10
ATOM     10  C   UNL     1       4.606  -1.776  26.473  0.00  0.00    +0.036 A 
ATOM     11  C   UNL     1       4.464  -1.125  27.700  0.00  0.00    +0.051 A 
ATOM     12  C   UNL     1       3.326  -1.366  28.470  0.00  0.00    +0.124 A 
ATOM     13  F   UNL     1       3.164  -0.714  29.628  0.00  0.00    -0.205 F 
ATOM     14  C   UNL     1       2.335  -2.249  28.046  0.00  0.00    +0.041 A 
ATOM     15  C   UNL     1       2.489  -2.919  26.835  0.00  0.00    +0.042 A 
ATOM     16  C   UNL     1       3.621  -2.679  26.057  0.00  0.00    +0.132 A 
ATOM     17  F   UNL     1       3.731  -3.331  24.891  0.00  0.00    -0.205 F 
ENDBRANCH   7  10
BRANCH   5  18
ATOM     18  C   UNL     1       7.289  -3.083  23.377  0.00  0.00    -0.022 A 
ATOM     19  C   UNL     1       7.870  -4.349  23.586  0.00  0.00    +0.006 A 
ATOM     20  C   UNL     1       7.568  -5.446  22.771  0.00  0.00    +0.000 A 
ATOM     21  C   UNL     1       6.665  -5.310  21.726  0.00  0.00    +0.000 A 
ATOM     22  C   UNL     1       6.081  -4.073  21.486  0.00  0.00    +0.000 A 
ATOM     23  C   UNL     1       6.398  -2.973  22.292  0.00  0.00    +0.006 A 
ENDBRANCH   5  18
BRANCH   1  25
ATOM     24  C   UNL     1       7.450   3.565  22.568  0.00  0.00    +0.024 C 
ATOM     25  C   UNL     1       6.899   2.346  21.860  0.00  0.00    +0.102 C 
ENDBRANCH   1  25
BRANCH   5  26
ATOM     26  C   UNL     1       9.159  -1.659  24.431  0.00  0.00    +0.034 C 
BRANCH  26  27
ATOM     27  C   UNL     1       9.564  -0.592  25.457  0.00  0.00    +0.017 C 
BRANCH  27  28
ATOM     28  C   UNL     1      10.602   0.357  24.860  0.00  0.00    +0.078 C 
BRANCH  28  29
ATOM     29  N   UNL     1       9.972   1.612  24.470  0.00  0.00    -0.330 NA
ATOM     30  H   UNL     1      10.687   2.331  24.374  0.00  0.00    +0.118 HD
ATOM     31  H   UNL     1       9.539   1.513  23.553  0.00  0.00    +0.118 HD
ENDBRANCH  28  29
ENDBRANCH  27  28
ENDBRANCH  26  27
ENDBRANCH   5  26
TORSDOF 7
ENDMDL
