MODEL 1
REMARK VINA RESULT:      -6.2      0.000      0.000
REMARK  Name = 
REMARK  7 active torsions:
REMARK  status: ('A' for Active; 'I' for Inactive)
REMARK    1  A    between atoms: O_1  and  C_2
REMARK    2  A    between atoms: C_5  and  N_16
REMARK    3  A    between atoms: C_8  and  C_10
REMARK    4  A    between atoms: C_10  and  O_11
REMARK    5  A    between atoms: O_11  and  P_12
REMARK    6  A    between atoms: P_12  and  O_13
REMARK    7  A    between atoms: P_12  and  O_14
REMARK                            x       y       z     vdW  Elec       q    Type
REMARK                         _______ _______ _______ _____ _____    ______ ____
ROOT
ATOM      1  C   UNL     1       8.601  -1.882  22.297  0.00  0.00    +0.150 C 
ATOM      2  C   UNL     1       8.041  -0.750  23.164  0.00  0.00    +0.175 C 
ATOM      3  O   UNL     1       8.666  -0.845  24.462  0.00  0.00    -0.348 OA
ATOM      4  C   UNL     1       9.450  -2.050  24.508  0.00  0.00    +0.226 C 
ATOM      5  C   UNL     1       9.830  -2.323  23.055  0.00  0.00    +0.088 C 
ENDROOT
BRANCH   4   6
ATOM      6  N   UNL     1       8.691  -3.127  25.170  0.00  0.00    -0.273 N 
ATOM      7  C   UNL     1       9.292  -4.381  25.233  0.00  0.00    +0.331 A 
ATOM      8  O   UNL     1      10.399  -4.638  24.767  0.00  0.00    -0.246 OA
ATOM      9  N   UNL     1       8.576  -5.352  25.882  0.00  0.00    -0.274 N 
ATOM     10  H   UNL     1       9.006  -6.261  25.948  0.00  0.00    +0.173 HD
ATOM     11  C   UNL     1       7.433  -5.167  26.614  0.00  0.00    +0.268 A 
ATOM     12  O   UNL     1       6.951  -6.072  27.284  0.00  0.00    -0.267 OA
ATOM     13  C   UNL     1       6.850  -3.802  26.553  0.00  0.00    +0.098 A 
ATOM     14 BR   UNL     1       5.266  -3.437  27.455  0.00  0.00    -0.043 Br
ATOM     15  C   UNL     1       7.516  -2.872  25.853  0.00  0.00    +0.113 A 
ENDBRANCH   4   6
BRANCH   1  16
ATOM     16  O   UNL     1       7.683  -2.975  22.203  0.00  0.00    -0.389 OA
ATOM     17  H   UNL     1       6.844  -2.722  22.624  0.00  0.00    +0.210 HD
ENDBRANCH   1  16
BRANCH   2  18
ATOM     18  C   UNL     1       8.300   0.639  22.595  0.00  0.00    +0.206 C 
BRANCH  18  19
ATOM     19  O   UNL     1       8.548   1.533  23.667  0.00  0.00    -0.284 OA
BRANCH  19  20
ATOM     20  P   UNL     1       9.936   2.540  23.435  0.00  0.00    +0.472 P 
ATOM     21  O   UNL     1      11.178   3.441  23.228  0.00  0.00    -0.228 OA
BRANCH  20  22
ATOM     22  O   UNL     1       9.847   2.117  21.857  0.00  0.00    -0.303 OA
ATOM     23  H   UNL     1       9.721   1.152  21.799  0.00  0.00    +0.222 HD
ENDBRANCH  20  22
BRANCH  20  24
ATOM     24  O   UNL     1      10.800   1.217  23.863  0.00  0.00    -0.303 OA
ATOM     25  H   UNL     1      11.090   1.369  24.781  0.00  0.00    +0.222 HD
ENDBRANCH  20  24
ENDBRANCH  19  20
ENDBRANCH  18  19
ENDBRANCH   2  18
TORSDOF 7
ENDMDL
MODEL 2
REMARK VINA RESULT:      -6.1      2.372      3.417
REMARK  Name = 
REMARK  7 active torsions:
REMARK  status: ('A' for Active; 'I' for Inactive)
REMARK    1  A    between atoms: O_1  and  C_2
REMARK    2  A    between atoms: C_5  and  N_16
REMARK    3  A    between atoms: C_8  and  C_10
REMARK    4  A    between atoms: C_10  and  O_11
REMARK    5  A    between atoms: O_11  and  P_12
REMARK    6  A    between atoms: P_12  and  O_13
REMARK    7  A    between atoms: P_12  and  O_14
REMARK                            x       y       z     vdW  Elec       q    Type
REMARK                         _______ _______ _______ _____ _____    ______ ____
ROOT
ATOM      1  C   UNL     1       9.713  -4.476  25.000  0.00  0.00    +0.150 C 
ATOM      2  C   UNL     1       8.975  -3.433  24.155  0.00  0.00    +0.175 C 
ATOM      3  O   UNL     1       7.845  -2.968  24.925  0.00  0.00    -0.348 OA
ATOM      4  C   UNL     1       7.741  -3.767  26.117  0.00  0.00    +0.226 C 
ATOM      5  C   UNL     1       9.164  -4.248  26.388  0.00  0.00    +0.088 C 
ENDROOT
BRANCH   4   6
ATOM      6  N   UNL     1       6.742  -4.836  25.928  0.00  0.00    -0.273 N 
ATOM      7  C   UNL     1       6.507  -5.680  27.009  0.00  0.00    +0.331 A 
ATOM      8  O   UNL     1       7.081  -5.592  28.091  0.00  0.00    -0.246 OA
ATOM      9  N   UNL     1       5.551  -6.643  26.813  0.00  0.00    -0.274 N 
ATOM     10  H   UNL     1       5.360  -7.252  27.592  0.00  0.00    +0.173 HD
ATOM     11  C   UNL     1       4.699  -6.737  25.745  0.00  0.00    +0.268 A 
ATOM     12  O   UNL     1       3.776  -7.544  25.735  0.00  0.00    -0.267 OA
ATOM     13  C   UNL     1       4.961  -5.787  24.634  0.00  0.00    +0.098 A 
ATOM     14 BR   UNL     1       3.911  -5.854  23.100  0.00  0.00    -0.043 Br
ATOM     15  C   UNL     1       5.948  -4.895  24.798  0.00  0.00    +0.113 A 
ENDBRANCH   4   6
BRANCH   1  16
ATOM     16  O   UNL     1       9.403  -5.807  24.579  0.00  0.00    -0.389 OA
ATOM     17  H   UNL     1       9.648  -6.429  25.285  0.00  0.00    +0.210 HD
ENDBRANCH   1  16
BRANCH   2  18
ATOM     18  C   UNL     1       9.837  -2.234  23.777  0.00  0.00    +0.206 C 
BRANCH  18  19
ATOM     19  O   UNL     1       9.009  -1.089  23.680  0.00  0.00    -0.284 OA
BRANCH  19  20
ATOM     20  P   UNL     1       9.660   0.169  22.686  0.00  0.00    +0.472 P 
ATOM     21  O   UNL     1      10.243   1.294  21.796  0.00  0.00    -0.228 OA
BRANCH  20  22
ATOM     22  O   UNL     1       8.114   0.480  22.251  0.00  0.00    -0.303 OA
ATOM     23  H   UNL     1       8.116   1.172  21.564  0.00  0.00    +0.222 HD
ENDBRANCH  20  22
BRANCH  20  24
ATOM     24  O   UNL     1       9.864  -1.007  21.566  0.00  0.00    -0.303 OA
ATOM     25  H   UNL     1       8.972  -1.226  21.239  0.00  0.00    +0.222 HD
ENDBRANCH  20  24
ENDBRANCH  19  20
ENDBRANCH  18  19
ENDBRANCH   2  18
TORSDOF 7
ENDMDL
MODEL 3
REMARK VINA RESULT:      -6.1      2.292      2.665
REMARK  Name = 
REMARK  7 active torsions:
REMARK  status: ('A' for Active; 'I' for Inactive)
REMARK    1  A    between atoms: O_1  and  C_2
REMARK    2  A    between atoms: C_5  and  N_16
REMARK    3  A    between atoms: C_8  and  C_10
REMARK    4  A    between atoms: C_10  and  O_11
REMARK    5  A    between atoms: O_11  and  P_12
REMARK    6  A    between atoms: P_12  and  O_13
REMARK    7  A    between atoms: P_12  and  O_14
REMARK                            x       y       z     vdW  Elec       q    Type
REMARK                         _______ _______ _______ _____ _____    ______ ____
ROOT
ATOM      1  C   UNL     1       9.895  -1.584  23.554  0.00  0.00    +0.150 C 
ATOM      2  C   UNL     1       9.013  -1.313  22.331  0.00  0.00    +0.175 C 
ATOM      3  O   UNL     1       7.660  -1.126  22.802  0.00  0.00    -0.348 OA
ATOM      4  C   UNL     1       7.619  -1.421  24.209  0.00  0.00    +0.226 C 
ATOM      5  C   UNL     1       9.032  -1.135  24.709  0.00  0.00    +0.088 C 
ENDROOT
BRANCH   4   6
ATOM      6  N   UNL     1       7.143  -2.800  24.427  0.00  0.00    -0.273 N 
ATOM      7  C   UNL     1       6.815  -3.159  25.731  0.00  0.00    +0.331 A 
ATOM      8  O   UNL     1       6.907  -2.406  26.696  0.00  0.00    -0.246 OA
ATOM      9  N   UNL     1       6.347  -4.437  25.895  0.00  0.00    -0.274 N 
ATOM     10  H   UNL     1       6.092  -4.706  26.832  0.00  0.00    +0.173 HD
ATOM     11  C   UNL     1       6.009  -5.313  24.899  0.00  0.00    +0.268 A 
ATOM     12  O   UNL     1       5.454  -6.378  25.146  0.00  0.00    -0.267 OA
ATOM     13  C   UNL     1       6.337  -4.870  23.519  0.00  0.00    +0.098 A 
ATOM     14 BR   UNL     1       5.982  -5.995  22.082  0.00  0.00    -0.043 Br
ATOM     15  C   UNL     1       6.866  -3.647  23.369  0.00  0.00    +0.113 A 
ENDBRANCH   4   6
BRANCH   1  16
ATOM     16  O   UNL     1      10.188  -2.976  23.692  0.00  0.00    -0.389 OA
ATOM     17  H   UNL     1      10.453  -3.333  22.827  0.00  0.00    +0.210 HD
ENDBRANCH   1  16
BRANCH   2  18
ATOM     18  C   UNL     1       9.431  -0.081  21.538  0.00  0.00    +0.206 C 
BRANCH  18  19
ATOM     19  O   UNL     1       8.547   0.982  21.847  0.00  0.00    -0.284 OA
BRANCH  19  20
ATOM     20  P   UNL     1       9.273   2.254  22.770  0.00  0.00    +0.472 P 
ATOM     21  O   UNL     1       9.921   3.391  23.596  0.00  0.00    -0.228 OA
BRANCH  20  22
ATOM     22  O   UNL     1       8.245   3.261  21.992  0.00  0.00    -0.303 OA
ATOM     23  H   UNL     1       7.493   2.740  21.654  0.00  0.00    +0.222 HD
ENDBRANCH  20  22
BRANCH  20  24
ATOM     24  O   UNL     1      10.397   2.292  21.582  0.00  0.00    -0.303 OA
ATOM     25  H   UNL     1       9.919   2.525  20.765  0.00  0.00    +0.222 HD
ENDBRANCH  20  24
ENDBRANCH  19  20
ENDBRANCH  18  19
ENDBRANCH   2  18
TORSDOF 7
ENDMDL
MODEL 4
REMARK VINA RESULT:      -5.9      4.797      7.459
REMARK  Name = 
REMARK  7 active torsions:
REMARK  status: ('A' for Active; 'I' for Inactive)
REMARK    1  A    between atoms: O_1  and  C_2
REMARK    2  A    between atoms: C_5  and  N_16
REMARK    3  A    between atoms: C_8  and  C_10
REMARK    4  A    between atoms: C_10  and  O_11
REMARK    5  A    between atoms: O_11  and  P_12
REMARK    6  A    between atoms: P_12  and  O_13
REMARK    7  A    between atoms: P_12  and  O_14
REMARK                            x       y       z     vdW  Elec       q    Type
REMARK                         _______ _______ _______ _____ _____    ______ ____
ROOT
ATOM      1  C   UNL     1       8.451   1.094  21.927  0.00  0.00    +0.150 C 
ATOM      2  C   UNL     1       9.857   0.537  22.176  0.00  0.00    +0.175 C 
ATOM      3  O   UNL     1      10.195   0.806  23.554  0.00  0.00    -0.348 OA
ATOM      4  C   UNL     1       9.164   1.630  24.127  0.00  0.00    +0.226 C 
ATOM      5  C   UNL     1       7.910   1.302  23.322  0.00  0.00    +0.088 C 
ENDROOT
BRANCH   4   6
ATOM      6  N   UNL     1       9.572   3.047  24.104  0.00  0.00    -0.273 N 
ATOM      7  C   UNL     1       8.770   3.949  24.797  0.00  0.00    +0.331 A 
ATOM      8  O   UNL     1       7.753   3.637  25.410  0.00  0.00    -0.246 OA
ATOM      9  N   UNL     1       9.194   5.252  24.783  0.00  0.00    -0.274 N 
ATOM     10  H   UNL     1       8.630   5.914  25.293  0.00  0.00    +0.173 HD
ATOM     11  C   UNL     1      10.396   5.712  24.316  0.00  0.00    +0.268 A 
ATOM     12  O   UNL     1      10.745   6.874  24.487  0.00  0.00    -0.267 OA
ATOM     13  C   UNL     1      11.239   4.704  23.622  0.00  0.00    +0.098 A 
ATOM     14 BR   UNL     1      12.869   5.216  22.889  0.00  0.00    -0.043 Br
ATOM     15  C   UNL     1      10.785   3.443  23.571  0.00  0.00    +0.113 A 
ENDBRANCH   4   6
BRANCH   1  16
ATOM     16  O   UNL     1       8.495   2.347  21.241  0.00  0.00    -0.389 OA
ATOM     17  H   UNL     1       9.213   2.887  21.613  0.00  0.00    +0.210 HD
ENDBRANCH   1  16
BRANCH   2  18
ATOM     18  C   UNL     1       9.973  -0.961  21.926  0.00  0.00    +0.206 C 
BRANCH  18  19
ATOM     19  O   UNL     1      10.245  -1.610  23.156  0.00  0.00    -0.284 OA
BRANCH  19  20
ATOM     20  P   UNL     1       8.932  -2.566  23.753  0.00  0.00    +0.472 P 
ATOM     21  O   UNL     1       7.757  -3.420  24.288  0.00  0.00    -0.228 OA
BRANCH  20  22
ATOM     22  O   UNL     1       9.021  -1.650  25.106  0.00  0.00    -0.303 OA
ATOM     23  H   UNL     1       8.506  -0.834  24.965  0.00  0.00    +0.222 HD
ENDBRANCH  20  22
BRANCH  20  24
ATOM     24  O   UNL     1      10.092  -3.611  24.242  0.00  0.00    -0.303 OA
ATOM     25  H   UNL     1      10.935  -3.124  24.189  0.00  0.00    +0.222 HD
ENDBRANCH  20  24
ENDBRANCH  19  20
ENDBRANCH  18  19
ENDBRANCH   2  18
TORSDOF 7
ENDMDL
MODEL 5
REMARK VINA RESULT:      -5.9      2.454      3.733
REMARK  Name = 
REMARK  7 active torsions:
REMARK  status: ('A' for Active; 'I' for Inactive)
REMARK    1  A    between atoms: O_1  and  C_2
REMARK    2  A    between atoms: C_5  and  N_16
REMARK    3  A    between atoms: C_8  and  C_10
REMARK    4  A    between atoms: C_10  and  O_11
REMARK    5  A    between atoms: O_11  and  P_12
REMARK    6  A    between atoms: P_12  and  O_13
REMARK    7  A    between atoms: P_12  and  O_14
REMARK                            x       y       z     vdW  Elec       q    Type
REMARK                         _______ _______ _______ _____ _____    ______ ____
ROOT
ATOM      1  C   UNL     1       8.897   2.313  22.340  0.00  0.00    +0.150 C 
ATOM      2  C   UNL     1       9.326   2.782  23.734  0.00  0.00    +0.175 C 
ATOM      3  O   UNL     1      10.333   1.864  24.213  0.00  0.00    -0.348 OA
ATOM      4  C   UNL     1      10.438   0.772  23.282  0.00  0.00    +0.226 C 
ATOM      5  C   UNL     1       9.997   1.357  21.944  0.00  0.00    +0.088 C 
ENDROOT
BRANCH   4   6
ATOM      6  N   UNL     1       9.647  -0.380  23.756  0.00  0.00    -0.273 N 
ATOM      7  C   UNL     1       9.906  -1.612  23.164  0.00  0.00    +0.331 A 
ATOM      8  O   UNL     1      10.737  -1.790  22.277  0.00  0.00    -0.246 OA
ATOM      9  N   UNL     1       9.177  -2.667  23.647  0.00  0.00    -0.274 N 
ATOM     10  H   UNL     1       9.364  -3.569  23.237  0.00  0.00    +0.173 HD
ATOM     11  C   UNL     1       8.368  -2.659  24.752  0.00  0.00    +0.268 A 
ATOM     12  O   UNL     1       7.879  -3.693  25.192  0.00  0.00    -0.267 OA
ATOM     13  C   UNL     1       8.155  -1.329  25.377  0.00  0.00    +0.098 A 
ATOM     14 BR   UNL     1       7.030  -1.173  26.849  0.00  0.00    -0.043 Br
ATOM     15  C   UNL     1       8.812  -0.283  24.854  0.00  0.00    +0.113 A 
ENDBRANCH   4   6
BRANCH   1  16
ATOM     16  O   UNL     1       7.651   1.613  22.381  0.00  0.00    -0.389 OA
ATOM     17  H   UNL     1       7.787   0.704  22.067  0.00  0.00    +0.210 HD
ENDBRANCH   1  16
BRANCH   2  18
ATOM     18  C   UNL     1       9.901   4.193  23.753  0.00  0.00    +0.206 C 
BRANCH  18  19
ATOM     19  O   UNL     1      11.271   4.123  24.106  0.00  0.00    -0.284 OA
BRANCH  19  20
ATOM     20  P   UNL     1      12.322   4.952  23.009  0.00  0.00    +0.472 P 
ATOM     21  O   UNL     1      13.263   5.694  22.029  0.00  0.00    -0.228 OA
BRANCH  20  22
ATOM     22  O   UNL     1      12.833   5.804  24.310  0.00  0.00    -0.303 OA
ATOM     23  H   UNL     1      12.064   6.249  24.713  0.00  0.00    +0.222 HD
ENDBRANCH  20  22
BRANCH  20  24
ATOM     24  O   UNL     1      11.039   5.927  22.727  0.00  0.00    -0.303 OA
ATOM     25  H   UNL     1      10.329   5.618  23.320  0.00  0.00    +0.222 HD
ENDBRANCH  20  24
ENDBRANCH  19  20
ENDBRANCH  18  19
ENDBRANCH   2  18
TORSDOF 7
ENDMDL
MODEL 6
REMARK VINA RESULT:      -5.9      2.846      3.430
REMARK  Name = 
REMARK  7 active torsions:
REMARK  status: ('A' for Active; 'I' for Inactive)
REMARK    1  A    between atoms: O_1  and  C_2
REMARK    2  A    between atoms: C_5  and  N_16
REMARK    3  A    between atoms: C_8  and  C_10
REMARK    4  A    between atoms: C_10  and  O_11
REMARK    5  A    between atoms: O_11  and  P_12
REMARK    6  A    between atoms: P_12  and  O_13
REMARK    7  A    between atoms: P_12  and  O_14
REMARK                            x       y       z     vdW  Elec       q    Type
REMARK                         _______ _______ _______ _____ _____    ______ ____
ROOT
ATOM      1  C   UNL     1       6.751  -1.877  23.326  0.00  0.00    +0.150 C 
ATOM      2  C   UNL     1       7.773  -2.320  24.378  0.00  0.00    +0.175 C 
ATOM      3  O   UNL     1       8.231  -3.640  24.013  0.00  0.00    -0.348 OA
ATOM      4  C   UNL     1       7.445  -4.108  22.902  0.00  0.00    +0.226 C 
ATOM      5  C   UNL     1       6.989  -2.839  22.187  0.00  0.00    +0.088 C 
ENDROOT
BRANCH   4   6
ATOM      6  N   UNL     1       6.359  -4.985  23.379  0.00  0.00    -0.273 N 
ATOM      7  C   UNL     1       5.609  -5.647  22.412  0.00  0.00    +0.331 A 
ATOM      8  O   UNL     1       5.793  -5.537  21.203  0.00  0.00    -0.246 OA
ATOM      9  N   UNL     1       4.629  -6.478  22.887  0.00  0.00    -0.274 N 
ATOM     10  H   UNL     1       4.087  -6.976  22.198  0.00  0.00    +0.173 HD
ATOM     11  C   UNL     1       4.439  -6.849  24.192  0.00  0.00    +0.268 A 
ATOM     12  O   UNL     1       3.630  -7.718  24.497  0.00  0.00    -0.267 OA
ATOM     13  C   UNL     1       5.292  -6.148  25.185  0.00  0.00    +0.098 A 
ATOM     14 BR   UNL     1       5.089  -6.517  26.996  0.00  0.00    -0.043 Br
ATOM     15  C   UNL     1       6.200  -5.277  24.721  0.00  0.00    +0.113 A 
ENDBRANCH   4   6
BRANCH   1  16
ATOM     16  O   UNL     1       5.411  -2.024  23.801  0.00  0.00    -0.389 OA
ATOM     17  H   UNL     1       4.995  -1.147  23.853  0.00  0.00    +0.210 HD
ENDBRANCH   1  16
BRANCH   2  18
ATOM     18  C   UNL     1       8.979  -1.395  24.485  0.00  0.00    +0.206 C 
BRANCH  18  19
ATOM     19  O   UNL     1       8.523  -0.055  24.548  0.00  0.00    -0.284 OA
BRANCH  19  20
ATOM     20  P   UNL     1       9.745   1.121  24.203  0.00  0.00    +0.472 P 
ATOM     21  O   UNL     1      10.838   2.173  23.895  0.00  0.00    -0.228 OA
BRANCH  20  22
ATOM     22  O   UNL     1      10.593   0.443  25.427  0.00  0.00    -0.303 OA
ATOM     23  H   UNL     1      10.182  -0.412  25.656  0.00  0.00    +0.222 HD
ENDBRANCH  20  22
BRANCH  20  24
ATOM     24  O   UNL     1       8.885   2.106  25.187  0.00  0.00    -0.303 OA
ATOM     25  H   UNL     1       8.125   2.417  24.662  0.00  0.00    +0.222 HD
ENDBRANCH  20  24
ENDBRANCH  19  20
ENDBRANCH  18  19
ENDBRANCH   2  18
TORSDOF 7
ENDMDL
MODEL 7
REMARK VINA RESULT:      -5.9      3.793      7.012
REMARK  Name = 
REMARK  7 active torsions:
REMARK  status: ('A' for Active; 'I' for Inactive)
REMARK    1  A    between atoms: O_1  and  C_2
REMARK    2  A    between atoms: C_5  and  N_16
REMARK    3  A    between atoms: C_8  and  C_10
REMARK    4  A    between atoms: C_10  and  O_11
REMARK    5  A    between atoms: O_11  and  P_12
REMARK    6  A    between atoms: P_12  and  O_13
REMARK    7  A    between atoms: P_12  and  O_14
REMARK                            x       y       z     vdW  Elec       q    Type
REMARK                         _______ _______ _______ _____ _____    ______ ____
ROOT
ATOM      1  C   UNL     1       9.701  -0.560  24.853  0.00  0.00    +0.150 C 
ATOM      2  C   UNL     1       8.790  -1.093  23.743  0.00  0.00    +0.175 C 
ATOM      3  O   UNL     1       9.090  -0.354  22.539  0.00  0.00    -0.348 OA
ATOM      4  C   UNL     1      10.006   0.706  22.868  0.00  0.00    +0.226 C 
ATOM      5  C   UNL     1      10.762   0.201  24.094  0.00  0.00    +0.088 C 
ENDROOT
BRANCH   4   6
ATOM      6  N   UNL     1       9.274   1.972  23.059  0.00  0.00    -0.273 N 
ATOM      7  C   UNL     1      10.032   3.109  23.322  0.00  0.00    +0.331 A 
ATOM      8  O   UNL     1      11.257   3.114  23.410  0.00  0.00    -0.246 OA
ATOM      9  N   UNL     1       9.326   4.274  23.463  0.00  0.00    -0.274 N 
ATOM     10  H   UNL     1       9.864   5.108  23.639  0.00  0.00    +0.173 HD
ATOM     11  C   UNL     1       7.994   4.455  23.199  0.00  0.00    +0.268 A 
ATOM     12  O   UNL     1       7.488   5.572  23.209  0.00  0.00    -0.267 OA
ATOM     13  C   UNL     1       7.233   3.220  22.880  0.00  0.00    +0.098 A 
ATOM     14 BR   UNL     1       5.404   3.324  22.561  0.00  0.00    -0.043 Br
ATOM     15  C   UNL     1       7.916   2.068  22.817  0.00  0.00    +0.113 A 
ENDBRANCH   4   6
BRANCH   1  16
ATOM     16  O   UNL     1       9.003   0.335  25.722  0.00  0.00    -0.389 OA
ATOM     17  H   UNL     1       8.632   1.063  25.196  0.00  0.00    +0.210 HD
ENDBRANCH   1  16
BRANCH   2  18
ATOM     18  C   UNL     1       8.973  -2.580  23.463  0.00  0.00    +0.206 C 
BRANCH  18  19
ATOM     19  O   UNL     1       9.736  -3.151  24.512  0.00  0.00    -0.284 OA
BRANCH  19  20
ATOM     20  P   UNL     1       8.980  -4.509  25.273  0.00  0.00    +0.472 P 
ATOM     21  O   UNL     1       8.305  -5.725  25.952  0.00  0.00    -0.228 OA
BRANCH  20  22
ATOM     22  O   UNL     1      10.428  -5.258  25.131  0.00  0.00    -0.303 OA
ATOM     23  H   UNL     1      11.023  -4.692  24.605  0.00  0.00    +0.222 HD
ENDBRANCH  20  22
BRANCH  20  24
ATOM     24  O   UNL     1       8.492  -4.911  23.763  0.00  0.00    -0.303 OA
ATOM     25  H   UNL     1       7.537  -5.094  23.828  0.00  0.00    +0.222 HD
ENDBRANCH  20  24
ENDBRANCH  19  20
ENDBRANCH  18  19
ENDBRANCH   2  18
TORSDOF 7
ENDMDL
MODEL 8
REMARK VINA RESULT:      -5.8      3.399      6.834
REMARK  Name = 
REMARK  7 active torsions:
REMARK  status: ('A' for Active; 'I' for Inactive)
REMARK    1  A    between atoms: O_1  and  C_2
REMARK    2  A    between atoms: C_5  and  N_16
REMARK    3  A    between atoms: C_8  and  C_10
REMARK    4  A    between atoms: C_10  and  O_11
REMARK    5  A    between atoms: O_11  and  P_12
REMARK    6  A    between atoms: P_12  and  O_13
REMARK    7  A    between atoms: P_12  and  O_14
REMARK                            x       y       z     vdW  Elec       q    Type
REMARK                         _______ _______ _______ _____ _____    ______ ____
ROOT
ATOM      1  C   UNL     1       8.367  -2.992  25.860  0.00  0.00    +0.150 C 
ATOM      2  C   UNL     1       6.926  -3.039  25.342  0.00  0.00    +0.175 C 
ATOM      3  O   UNL     1       6.982  -3.070  23.899  0.00  0.00    -0.348 OA
ATOM      4  C   UNL     1       8.348  -2.882  23.489  0.00  0.00    +0.226 C 
ATOM      5  C   UNL     1       9.181  -3.403  24.657  0.00  0.00    +0.088 C 
ENDROOT
BRANCH   4   6
ATOM      6  N   UNL     1       8.583  -1.471  23.130  0.00  0.00    -0.273 N 
ATOM      7  C   UNL     1       9.818  -1.157  22.569  0.00  0.00    +0.331 A 
ATOM      8  O   UNL     1      10.711  -1.976  22.368  0.00  0.00    -0.246 OA
ATOM      9  N   UNL     1       9.994   0.156  22.218  0.00  0.00    -0.274 N 
ATOM     10  H   UNL     1      10.878   0.394  21.797  0.00  0.00    +0.173 HD
ATOM     11  C   UNL     1       9.031   1.129  22.200  0.00  0.00    +0.268 A 
ATOM     12  O   UNL     1       9.251   2.236  21.724  0.00  0.00    -0.267 OA
ATOM     13  C   UNL     1       7.716   0.736  22.769  0.00  0.00    +0.098 A 
ATOM     14 BR   UNL     1       6.342   1.985  22.858  0.00  0.00    -0.043 Br
ATOM     15  C   UNL     1       7.571  -0.531  23.182  0.00  0.00    +0.113 A 
ENDBRANCH   4   6
BRANCH   1  16
ATOM     16  O   UNL     1       8.739  -1.670  26.258  0.00  0.00    -0.389 OA
ATOM     17  H   UNL     1       9.628  -1.695  26.650  0.00  0.00    +0.210 HD
ENDBRANCH   1  16
BRANCH   2  18
ATOM     18  C   UNL     1       6.142  -4.252  25.828  0.00  0.00    +0.206 C 
BRANCH  18  19
ATOM     19  O   UNL     1       6.290  -4.358  27.233  0.00  0.00    -0.284 OA
BRANCH  19  20
ATOM     20  P   UNL     1       5.961  -5.938  27.858  0.00  0.00    +0.472 P 
ATOM     21  O   UNL     1       5.666  -7.352  28.416  0.00  0.00    -0.228 OA
BRANCH  20  22
ATOM     22  O   UNL     1       7.583  -6.143  27.901  0.00  0.00    -0.303 OA
ATOM     23  H   UNL     1       7.883  -6.446  27.024  0.00  0.00    +0.222 HD
ENDBRANCH  20  22
BRANCH  20  24
ATOM     24  O   UNL     1       5.828  -6.383  26.289  0.00  0.00    -0.303 OA
ATOM     25  H   UNL     1       5.092  -7.022  26.250  0.00  0.00    +0.222 HD
ENDBRANCH  20  24
ENDBRANCH  19  20
ENDBRANCH  18  19
ENDBRANCH   2  18
TORSDOF 7
ENDMDL
MODEL 9
REMARK VINA RESULT:      -5.7      4.010      7.114
REMARK  Name = 
REMARK  7 active torsions:
REMARK  status: ('A' for Active; 'I' for Inactive)
REMARK    1  A    between atoms: O_1  and  C_2
REMARK    2  A    between atoms: C_5  and  N_16
REMARK    3  A    between atoms: C_8  and  C_10
REMARK    4  A    between atoms: C_10  and  O_11
REMARK    5  A    between atoms: O_11  and  P_12
REMARK    6  A    between atoms: P_12  and  O_13
REMARK    7  A    between atoms: P_12  and  O_14
REMARK                            x       y       z     vdW  Elec       q    Type
REMARK                         _______ _______ _______ _____ _____    ______ ____
ROOT
ATOM      1  C   UNL     1       6.321  -4.460  25.059  0.00  0.00    +0.150 C 
ATOM      2  C   UNL     1       5.398  -4.043  23.910  0.00  0.00    +0.175 C 
ATOM      3  O   UNL     1       6.223  -3.820  22.746  0.00  0.00    -0.348 OA
ATOM      4  C   UNL     1       7.605  -3.913  23.138  0.00  0.00    +0.226 C 
ATOM      5  C   UNL     1       7.603  -4.835  24.354  0.00  0.00    +0.088 C 
ENDROOT
BRANCH   4   6
ATOM      6  N   UNL     1       8.160  -2.567  23.371  0.00  0.00    -0.273 N 
ATOM      7  C   UNL     1       9.473  -2.493  23.826  0.00  0.00    +0.331 A 
ATOM      8  O   UNL     1      10.181  -3.472  24.048  0.00  0.00    -0.246 OA
ATOM      9  N   UNL     1       9.970  -1.228  24.003  0.00  0.00    -0.274 N 
ATOM     10  H   UNL     1      10.925  -1.160  24.318  0.00  0.00    +0.173 HD
ATOM     11  C   UNL     1       9.374  -0.059  23.613  0.00  0.00    +0.268 A 
ATOM     12  O   UNL     1       9.968   1.012  23.677  0.00  0.00    -0.267 OA
ATOM     13  C   UNL     1       7.989  -0.190  23.093  0.00  0.00    +0.098 A 
ATOM     14 BR   UNL     1       7.048   1.332  22.587  0.00  0.00    -0.043 Br
ATOM     15  C   UNL     1       7.477  -1.425  22.993  0.00  0.00    +0.113 A 
ENDBRANCH   4   6
BRANCH   1  16
ATOM     16  O   UNL     1       6.570  -3.373  25.953  0.00  0.00    -0.389 OA
ATOM     17  H   UNL     1       6.096  -2.586  25.637  0.00  0.00    +0.210 HD
ENDBRANCH   1  16
BRANCH   2  18
ATOM     18  C   UNL     1       4.340  -5.085  23.568  0.00  0.00    +0.206 C 
BRANCH  18  19
ATOM     19  O   UNL     1       3.735  -5.533  24.769  0.00  0.00    -0.284 OA
BRANCH  19  20
ATOM     20  P   UNL     1       3.245  -7.192  24.733  0.00  0.00    +0.472 P 
ATOM     21  O   UNL     1       2.806  -8.676  24.702  0.00  0.00    -0.228 OA
BRANCH  20  22
ATOM     22  O   UNL     1       4.066  -7.354  26.140  0.00  0.00    -0.303 OA
ATOM     23  H   UNL     1       3.542  -7.911  26.745  0.00  0.00    +0.222 HD
ENDBRANCH  20  22
BRANCH  20  24
ATOM     24  O   UNL     1       4.567  -7.423  23.798  0.00  0.00    -0.303 OA
ATOM     25  H   UNL     1       4.235  -7.609  22.900  0.00  0.00    +0.222 HD
ENDBRANCH  20  24
ENDBRANCH  19  20
ENDBRANCH  18  19
ENDBRANCH   2  18
TORSDOF 7
ENDMDL
