MODEL 1
REMARK VINA RESULT:      -8.8      0.000      0.000
REMARK  Name = 
REMARK  8 active torsions:
REMARK  status: ('A' for Active; 'I' for Inactive)
REMARK    1  A    between atoms: C_1  and  C_2
REMARK    2  A    between atoms: N_4  and  C_7
REMARK    3  A    between atoms: C_9  and  C_36
REMARK    4  A    between atoms: C_11  and  N_12
REMARK    5  A    between atoms: C_13  and  C_15
REMARK    6  A    between atoms: C_17  and  N_18
REMARK    7  A    between atoms: C_23  and  C_25
REMARK    8  A    between atoms: C_31  and  C_32
REMARK                            x       y       z     vdW  Elec       q    Type
REMARK                         _______ _______ _______ _____ _____    ______ ____
ROOT
ATOM      1  C   UNL     1       8.632  -1.206  24.107  0.00  0.00    +0.039 A 
ATOM      2  C   UNL     1       8.439  -1.548  22.766  0.00  0.00    +0.013 A 
ATOM      3  C   UNL     1       8.175  -2.868  22.416  0.00  0.00    +0.006 A 
ATOM      4  C   UNL     1       8.123  -3.882  23.392  0.00  0.00    -0.029 A 
ATOM      5  C   UNL     1       7.867  -5.277  22.878  0.00  0.00    +0.045 C 
ATOM      6  C   UNL     1       8.332  -3.553  24.753  0.00  0.00    +0.037 A 
ATOM      7  C   UNL     1       8.524  -2.198  25.082  0.00  0.00    +0.036 A 
ENDROOT
BRANCH   6   8
ATOM      8  N   UNL     1       8.303  -4.542  25.755  0.00  0.00    -0.283 N 
ATOM      9  H   UNL     1       8.953  -4.423  26.518  0.00  0.00    +0.155 HD
ATOM     10  C   UNL     1       7.222  -5.259  26.276  0.00  0.00    +0.220 A 
ATOM     11  N   UNL     1       6.135  -5.536  25.537  0.00  0.00    -0.214 NA
ATOM     12  C   UNL     1       5.106  -6.194  26.111  0.00  0.00    +0.077 A 
ATOM     13  C   UNL     1       5.142  -6.551  27.442  0.00  0.00    +0.048 A 
ATOM     14  C   UNL     1       6.296  -6.247  28.119  0.00  0.00    +0.116 A 
ATOM     15  N   UNL     1       7.343  -5.618  27.561  0.00  0.00    -0.223 NA
BRANCH  12  16
ATOM     16  C   UNL     1       4.007  -6.574  25.206  0.00  0.00    +0.019 A 
ATOM     17  C   UNL     1       3.650  -5.777  24.107  0.00  0.00    +0.013 A 
ATOM     18  C   UNL     1       2.715  -6.226  23.174  0.00  0.00    +0.020 A 
ATOM     19  C   UNL     1       2.129  -7.462  23.377  0.00  0.00    +0.111 A 
ATOM     20  N   UNL     1       2.381  -8.234  24.454  0.00  0.00    -0.263 NA
ATOM     21  C   UNL     1       3.304  -7.773  25.333  0.00  0.00    +0.120 A 
ENDBRANCH  12  16
ENDBRANCH   6   8
BRANCH   1  24
ATOM     22  N   UNL     1       9.158   1.078  23.372  0.00  0.00    -0.281 N 
ATOM     23  H   UNL     1       9.131   0.687  22.437  0.00  0.00    +0.155 HD
ATOM     24  C   UNL     1       8.913   0.212  24.441  0.00  0.00    +0.248 C 
ATOM     25  O   UNL     1       8.875   0.520  25.628  0.00  0.00    -0.270 OA
BRANCH  22  28
ATOM     26  C   UNL     1       8.380   4.709  23.764  0.00  0.00    +0.050 A 
ATOM     27  C   UNL     1       8.233   3.311  23.646  0.00  0.00    +0.049 A 
ATOM     28  C   UNL     1       9.356   2.478  23.462  0.00  0.00    +0.036 A 
ATOM     29  C   UNL     1      10.617   3.070  23.396  0.00  0.00    +0.035 A 
ATOM     30  C   UNL     1      10.790   4.456  23.515  0.00  0.00    +0.059 A 
ATOM     31  C   UNL     1       9.665   5.269  23.699  0.00  0.00    +0.038 A 
BRANCH  26  36
ATOM     32  C   UNL     1       3.990   7.108  23.303  0.00  0.00    +0.067 C 
ATOM     33  C   UNL     1       5.312   6.609  23.739  0.00  0.00    +0.056 A 
ATOM     34  N   UNL     1       5.897   7.102  24.872  0.00  0.00    -0.241 NA
ATOM     35  C   UNL     1       7.042   6.465  24.973  0.00  0.00    +0.204 A 
ATOM     36  N   UNL     1       7.246   5.559  23.950  0.00  0.00    -0.306 N 
ATOM     37  C   UNL     1       6.124   5.659  23.156  0.00  0.00    +0.115 A 
ENDBRANCH  26  36
BRANCH  30  38
ATOM     38  C   UNL     1      12.184   5.032  23.450  0.00  0.00    +0.418 C 
ATOM     39  F   UNL     1      12.434   5.663  22.270  0.00  0.00    -0.166 F 
ATOM     40  F   UNL     1      13.149   4.083  23.586  0.00  0.00    -0.166 F 
ATOM     41  F   UNL     1      12.428   5.955  24.422  0.00  0.00    -0.166 F 
ENDBRANCH  30  38
ENDBRANCH  22  28
ENDBRANCH   1  24
TORSDOF 6
ENDMDL
MODEL 2
REMARK VINA RESULT:      -8.6      3.930     10.345
REMARK  Name = 
REMARK  8 active torsions:
REMARK  status: ('A' for Active; 'I' for Inactive)
REMARK    1  A    between atoms: C_1  and  C_2
REMARK    2  A    between atoms: N_4  and  C_7
REMARK    3  A    between atoms: C_9  and  C_36
REMARK    4  A    between atoms: C_11  and  N_12
REMARK    5  A    between atoms: C_13  and  C_15
REMARK    6  A    between atoms: C_17  and  N_18
REMARK    7  A    between atoms: C_23  and  C_25
REMARK    8  A    between atoms: C_31  and  C_32
REMARK                            x       y       z     vdW  Elec       q    Type
REMARK                         _______ _______ _______ _____ _____    ______ ____
ROOT
ATOM      1  C   UNL     1       9.266   0.484  23.902  0.00  0.00    +0.039 A 
ATOM      2  C   UNL     1      10.192   1.020  23.004  0.00  0.00    +0.013 A 
ATOM      3  C   UNL     1      10.441   2.389  22.998  0.00  0.00    +0.006 A 
ATOM      4  C   UNL     1       9.755   3.257  23.869  0.00  0.00    -0.029 A 
ATOM      5  C   UNL     1      10.088   4.722  23.735  0.00  0.00    +0.045 C 
ATOM      6  C   UNL     1       8.803   2.729  24.773  0.00  0.00    +0.037 A 
ATOM      7  C   UNL     1       8.626   1.333  24.806  0.00  0.00    +0.036 A 
ENDROOT
BRANCH   6   8
ATOM      8  N   UNL     1       8.085   3.567  25.648  0.00  0.00    -0.283 N 
ATOM      9  H   UNL     1       8.602   3.947  26.428  0.00  0.00    +0.155 HD
ATOM     10  C   UNL     1       7.066   4.485  25.376  0.00  0.00    +0.220 A 
ATOM     11  N   UNL     1       6.222   4.319  24.344  0.00  0.00    -0.214 NA
ATOM     12  C   UNL     1       5.287   5.263  24.107  0.00  0.00    +0.077 A 
ATOM     13  C   UNL     1       5.210   6.400  24.882  0.00  0.00    +0.048 A 
ATOM     14  C   UNL     1       6.097   6.482  25.926  0.00  0.00    +0.116 A 
ATOM     15  N   UNL     1       7.017   5.541  26.198  0.00  0.00    -0.223 NA
BRANCH  12  16
ATOM     16  C   UNL     1       4.319   4.950  23.041  0.00  0.00    +0.019 A 
ATOM     17  C   UNL     1       3.938   3.628  22.758  0.00  0.00    +0.013 A 
ATOM     18  C   UNL     1       2.908   3.361  21.855  0.00  0.00    +0.020 A 
ATOM     19  C   UNL     1       2.295   4.429  21.226  0.00  0.00    +0.111 A 
ATOM     20  N   UNL     1       2.672   5.711  21.406  0.00  0.00    -0.263 NA
ATOM     21  C   UNL     1       3.666   5.935  22.300  0.00  0.00    +0.120 A 
ENDBRANCH  12  16
ENDBRANCH   6   8
BRANCH   1  24
ATOM     22  N   UNL     1       7.711  -1.410  24.081  0.00  0.00    -0.281 N 
ATOM     23  H   UNL     1       7.005  -0.699  24.234  0.00  0.00    +0.155 HD
ATOM     24  C   UNL     1       9.026  -0.980  23.878  0.00  0.00    +0.248 C 
ATOM     25  O   UNL     1       9.994  -1.698  23.648  0.00  0.00    -0.270 OA
BRANCH  22  28
ATOM     26  C   UNL     1       6.447  -4.745  25.183  0.00  0.00    +0.050 A 
ATOM     27  C   UNL     1       6.930  -3.420  25.204  0.00  0.00    +0.049 A 
ATOM     28  C   UNL     1       7.251  -2.748  24.008  0.00  0.00    +0.036 A 
ATOM     29  C   UNL     1       7.085  -3.426  22.800  0.00  0.00    +0.035 A 
ATOM     30  C   UNL     1       6.602  -4.741  22.752  0.00  0.00    +0.059 A 
ATOM     31  C   UNL     1       6.285  -5.394  23.950  0.00  0.00    +0.038 A 
BRANCH  26  36
ATOM     32  C   UNL     1       6.068  -6.229  29.968  0.00  0.00    +0.067 C 
ATOM     33  C   UNL     1       5.958  -6.077  28.502  0.00  0.00    +0.056 A 
ATOM     34  N   UNL     1       5.200  -6.951  27.772  0.00  0.00    -0.241 NA
ATOM     35  C   UNL     1       5.314  -6.548  26.527  0.00  0.00    +0.204 A 
ATOM     36  N   UNL     1       6.118  -5.433  26.393  0.00  0.00    -0.306 N 
ATOM     37  C   UNL     1       6.531  -5.136  27.674  0.00  0.00    +0.115 A 
ENDBRANCH  26  36
BRANCH  30  38
ATOM     38  C   UNL     1       6.431  -5.414  21.412  0.00  0.00    +0.418 C 
ATOM     39  F   UNL     1       5.473  -6.380  21.431  0.00  0.00    -0.166 F 
ATOM     40  F   UNL     1       7.572  -6.018  20.980  0.00  0.00    -0.166 F 
ATOM     41  F   UNL     1       6.068  -4.551  20.421  0.00  0.00    -0.166 F 
ENDBRANCH  30  38
ENDBRANCH  22  28
ENDBRANCH   1  24
TORSDOF 6
ENDMDL
MODEL 3
REMARK VINA RESULT:      -8.4      4.021     10.938
REMARK  Name = 
REMARK  8 active torsions:
REMARK  status: ('A' for Active; 'I' for Inactive)
REMARK    1  A    between atoms: C_1  and  C_2
REMARK    2  A    between atoms: N_4  and  C_7
REMARK    3  A    between atoms: C_9  and  C_36
REMARK    4  A    between atoms: C_11  and  N_12
REMARK    5  A    between atoms: C_13  and  C_15
REMARK    6  A    between atoms: C_17  and  N_18
REMARK    7  A    between atoms: C_23  and  C_25
REMARK    8  A    between atoms: C_31  and  C_32
REMARK                            x       y       z     vdW  Elec       q    Type
REMARK                         _______ _______ _______ _____ _____    ______ ____
ROOT
ATOM      1  C   UNL     1       9.680  -0.063  23.726  0.00  0.00    +0.039 A 
ATOM      2  C   UNL     1      10.959   0.298  24.158  0.00  0.00    +0.013 A 
ATOM      3  C   UNL     1      11.387   1.616  24.037  0.00  0.00    +0.006 A 
ATOM      4  C   UNL     1      10.559   2.600  23.461  0.00  0.00    -0.029 A 
ATOM      5  C   UNL     1      11.156   3.980  23.353  0.00  0.00    +0.045 C 
ATOM      6  C   UNL     1       9.267   2.245  23.006  0.00  0.00    +0.037 A 
ATOM      7  C   UNL     1       8.836   0.920  23.208  0.00  0.00    +0.036 A 
ENDROOT
BRANCH   6   8
ATOM      8  N   UNL     1       8.417   3.196  22.410  0.00  0.00    -0.283 N 
ATOM      9  H   UNL     1       8.001   2.934  21.528  0.00  0.00    +0.155 HD
ATOM     10  C   UNL     1       7.531   4.102  23.001  0.00  0.00    +0.220 A 
ATOM     11  N   UNL     1       7.748   4.605  24.227  0.00  0.00    -0.214 NA
ATOM     12  C   UNL     1       6.833   5.442  24.760  0.00  0.00    +0.077 A 
ATOM     13  C   UNL     1       5.673   5.754  24.085  0.00  0.00    +0.048 A 
ATOM     14  C   UNL     1       5.538   5.212  22.831  0.00  0.00    +0.116 A 
ATOM     15  N   UNL     1       6.449   4.400  22.269  0.00  0.00    -0.223 NA
BRANCH  12  16
ATOM     16  C   UNL     1       7.202   6.053  26.050  0.00  0.00    +0.019 A 
ATOM     17  C   UNL     1       6.238   6.337  27.031  0.00  0.00    +0.013 A 
ATOM     18  C   UNL     1       6.621   6.769  28.301  0.00  0.00    +0.020 A 
ATOM     19  C   UNL     1       7.969   6.940  28.557  0.00  0.00    +0.111 A 
ATOM     20  N   UNL     1       8.929   6.753  27.629  0.00  0.00    -0.263 NA
ATOM     21  C   UNL     1       8.523   6.320  26.410  0.00  0.00    +0.120 A 
ENDBRANCH  12  16
ENDBRANCH   6   8
BRANCH   1  24
ATOM     22  N   UNL     1       7.910  -1.714  24.147  0.00  0.00    -0.281 N 
ATOM     23  H   UNL     1       7.303  -0.906  24.236  0.00  0.00    +0.155 HD
ATOM     24  C   UNL     1       9.260  -1.479  23.869  0.00  0.00    +0.248 C 
ATOM     25  O   UNL     1      10.123  -2.334  23.700  0.00  0.00    -0.270 OA
BRANCH  22  28
ATOM     26  C   UNL     1       6.336  -4.750  25.642  0.00  0.00    +0.050 A 
ATOM     27  C   UNL     1       6.977  -3.502  25.505  0.00  0.00    +0.049 A 
ATOM     28  C   UNL     1       7.286  -2.982  24.232  0.00  0.00    +0.036 A 
ATOM     29  C   UNL     1       6.945  -3.735  23.108  0.00  0.00    +0.035 A 
ATOM     30  C   UNL     1       6.303  -4.976  23.217  0.00  0.00    +0.059 A 
ATOM     31  C   UNL     1       6.002  -5.477  24.489  0.00  0.00    +0.038 A 
BRANCH  26  36
ATOM     32  C   UNL     1       3.996  -6.615  29.678  0.00  0.00    +0.067 C 
ATOM     33  C   UNL     1       4.981  -6.103  28.702  0.00  0.00    +0.056 A 
ATOM     34  N   UNL     1       6.306  -6.030  29.031  0.00  0.00    -0.241 NA
ATOM     35  C   UNL     1       6.898  -5.539  27.965  0.00  0.00    +0.204 A 
ATOM     36  N   UNL     1       6.020  -5.283  26.931  0.00  0.00    -0.306 N 
ATOM     37  C   UNL     1       4.783  -5.648  27.415  0.00  0.00    +0.115 A 
ENDBRANCH  26  36
BRANCH  30  38
ATOM     38  C   UNL     1       5.948  -5.735  21.961  0.00  0.00    +0.418 C 
ATOM     39  F   UNL     1       6.088  -4.980  20.837  0.00  0.00    -0.166 F 
ATOM     40  F   UNL     1       4.661  -6.177  21.964  0.00  0.00    -0.166 F 
ATOM     41  F   UNL     1       6.721  -6.840  21.765  0.00  0.00    -0.166 F 
ENDBRANCH  30  38
ENDBRANCH  22  28
ENDBRANCH   1  24
TORSDOF 6
ENDMDL
MODEL 4
REMARK VINA RESULT:      -8.4      4.023     10.143
REMARK  Name = 
REMARK  8 active torsions:
REMARK  status: ('A' for Active; 'I' for Inactive)
REMARK    1  A    between atoms: C_1  and  C_2
REMARK    2  A    between atoms: N_4  and  C_7
REMARK    3  A    between atoms: C_9  and  C_36
REMARK    4  A    between atoms: C_11  and  N_12
REMARK    5  A    between atoms: C_13  and  C_15
REMARK    6  A    between atoms: C_17  and  N_18
REMARK    7  A    between atoms: C_23  and  C_25
REMARK    8  A    between atoms: C_31  and  C_32
REMARK                            x       y       z     vdW  Elec       q    Type
REMARK                         _______ _______ _______ _____ _____    ______ ____
ROOT
ATOM      1  C   UNL     1       8.978   1.157  23.394  0.00  0.00    +0.039 A 
ATOM      2  C   UNL     1      10.348   0.950  23.569  0.00  0.00    +0.013 A 
ATOM      3  C   UNL     1      11.215   2.036  23.611  0.00  0.00    +0.006 A 
ATOM      4  C   UNL     1      10.740   3.353  23.454  0.00  0.00    -0.029 A 
ATOM      5  C   UNL     1      11.787   4.438  23.480  0.00  0.00    +0.045 C 
ATOM      6  C   UNL     1       9.356   3.577  23.261  0.00  0.00    +0.037 A 
ATOM      7  C   UNL     1       8.496   2.463  23.296  0.00  0.00    +0.036 A 
ENDROOT
BRANCH   6   8
ATOM      8  N   UNL     1       8.845   4.877  23.084  0.00  0.00    -0.283 N 
ATOM      9  H   UNL     1       9.393   5.498  22.506  0.00  0.00    +0.155 HD
ATOM     10  C   UNL     1       7.521   5.313  22.972  0.00  0.00    +0.220 A 
ATOM     11  N   UNL     1       6.510   4.661  23.568  0.00  0.00    -0.214 NA
ATOM     12  C   UNL     1       5.249   5.106  23.386  0.00  0.00    +0.077 A 
ATOM     13  C   UNL     1       4.985   6.189  22.575  0.00  0.00    +0.048 A 
ATOM     14  C   UNL     1       6.077   6.807  22.018  0.00  0.00    +0.116 A 
ATOM     15  N   UNL     1       7.342   6.399  22.210  0.00  0.00    -0.223 NA
BRANCH  12  16
ATOM     16  C   UNL     1       4.208   4.420  24.174  0.00  0.00    +0.019 A 
ATOM     17  C   UNL     1       3.010   5.061  24.526  0.00  0.00    +0.013 A 
ATOM     18  C   UNL     1       1.974   4.351  25.134  0.00  0.00    +0.020 A 
ATOM     19  C   UNL     1       2.172   3.010  25.408  0.00  0.00    +0.111 A 
ATOM     20  N   UNL     1       3.329   2.365  25.158  0.00  0.00    -0.263 NA
ATOM     21  C   UNL     1       4.309   3.081  24.555  0.00  0.00    +0.120 A 
ENDBRANCH  12  16
ENDBRANCH   6   8
BRANCH   1  24
ATOM     22  N   UNL     1       8.649  -1.259  23.690  0.00  0.00    -0.281 N 
ATOM     23  H   UNL     1       9.632  -1.271  23.937  0.00  0.00    +0.155 HD
ATOM     24  C   UNL     1       8.084  -0.026  23.353  0.00  0.00    +0.248 C 
ATOM     25  O   UNL     1       6.910   0.175  23.060  0.00  0.00    -0.270 OA
BRANCH  22  28
ATOM     26  C   UNL     1       6.965  -4.202  25.252  0.00  0.00    +0.050 A 
ATOM     27  C   UNL     1       7.670  -2.992  25.087  0.00  0.00    +0.049 A 
ATOM     28  C   UNL     1       7.957  -2.491  23.802  0.00  0.00    +0.036 A 
ATOM     29  C   UNL     1       7.530  -3.222  22.694  0.00  0.00    +0.035 A 
ATOM     30  C   UNL     1       6.824  -4.426  22.831  0.00  0.00    +0.059 A 
ATOM     31  C   UNL     1       6.545  -4.908  24.115  0.00  0.00    +0.038 A 
BRANCH  26  36
ATOM     32  C   UNL     1       4.917  -5.156  29.740  0.00  0.00    +0.067 C 
ATOM     33  C   UNL     1       5.761  -5.128  28.526  0.00  0.00    +0.056 A 
ATOM     34  N   UNL     1       6.858  -5.939  28.430  0.00  0.00    -0.241 NA
ATOM     35  C   UNL     1       7.379  -5.672  27.253  0.00  0.00    +0.204 A 
ATOM     36  N   UNL     1       6.670  -4.715  26.553  0.00  0.00    -0.306 N 
ATOM     37  C   UNL     1       5.627  -4.368  27.384  0.00  0.00    +0.115 A 
ENDBRANCH  26  36
BRANCH  30  38
ATOM     38  C   UNL     1       6.377  -5.162  21.591  0.00  0.00    +0.418 C 
ATOM     39  F   UNL     1       5.320  -5.987  21.826  0.00  0.00    -0.166 F 
ATOM     40  F   UNL     1       7.359  -5.943  21.065  0.00  0.00    -0.166 F 
ATOM     41  F   UNL     1       5.983  -4.331  20.586  0.00  0.00    -0.166 F 
ENDBRANCH  30  38
ENDBRANCH  22  28
ENDBRANCH   1  24
TORSDOF 6
ENDMDL
MODEL 5
REMARK VINA RESULT:      -8.3      3.811      9.748
REMARK  Name = 
REMARK  8 active torsions:
REMARK  status: ('A' for Active; 'I' for Inactive)
REMARK    1  A    between atoms: C_1  and  C_2
REMARK    2  A    between atoms: N_4  and  C_7
REMARK    3  A    between atoms: C_9  and  C_36
REMARK    4  A    between atoms: C_11  and  N_12
REMARK    5  A    between atoms: C_13  and  C_15
REMARK    6  A    between atoms: C_17  and  N_18
REMARK    7  A    between atoms: C_23  and  C_25
REMARK    8  A    between atoms: C_31  and  C_32
REMARK                            x       y       z     vdW  Elec       q    Type
REMARK                         _______ _______ _______ _____ _____    ______ ____
ROOT
ATOM      1  C   UNL     1       6.155   1.397  27.398  0.00  0.00    +0.039 A 
ATOM      2  C   UNL     1       5.637   1.898  28.595  0.00  0.00    +0.013 A 
ATOM      3  C   UNL     1       5.732   3.257  28.878  0.00  0.00    +0.006 A 
ATOM      4  C   UNL     1       6.366   4.143  27.986  0.00  0.00    -0.029 A 
ATOM      5  C   UNL     1       6.436   5.584  28.428  0.00  0.00    +0.045 C 
ATOM      6  C   UNL     1       6.907   3.647  26.776  0.00  0.00    +0.037 A 
ATOM      7  C   UNL     1       6.732   2.281  26.485  0.00  0.00    +0.036 A 
ENDROOT
BRANCH   6   8
ATOM      8  N   UNL     1       7.563   4.499  25.866  0.00  0.00    -0.283 N 
ATOM      9  H   UNL     1       7.668   5.462  26.152  0.00  0.00    +0.155 HD
ATOM     10  C   UNL     1       8.626   4.236  24.997  0.00  0.00    +0.220 A 
ATOM     11  N   UNL     1       8.827   3.014  24.478  0.00  0.00    -0.214 NA
ATOM     12  C   UNL     1       9.897   2.813  23.680  0.00  0.00    +0.077 A 
ATOM     13  C   UNL     1      10.795   3.827  23.423  0.00  0.00    +0.048 A 
ATOM     14  C   UNL     1      10.505   5.048  23.978  0.00  0.00    +0.116 A 
ATOM     15  N   UNL     1       9.431   5.277  24.751  0.00  0.00    -0.223 NA
BRANCH  12  16
ATOM     16  C   UNL     1       9.980   1.485  23.045  0.00  0.00    +0.019 A 
ATOM     17  C   UNL     1      10.503   0.375  23.727  0.00  0.00    +0.013 A 
ATOM     18  C   UNL     1      10.432  -0.902  23.171  0.00  0.00    +0.020 A 
ATOM     19  C   UNL     1       9.860  -1.040  21.919  0.00  0.00    +0.111 A 
ATOM     20  N   UNL     1       9.410   0.001  21.191  0.00  0.00    -0.263 NA
ATOM     21  C   UNL     1       9.483   1.226  21.767  0.00  0.00    +0.120 A 
ENDBRANCH  12  16
ENDBRANCH   6   8
BRANCH   1  24
ATOM     22  N   UNL     1       6.679  -0.547  25.991  0.00  0.00    -0.281 N 
ATOM     23  H   UNL     1       7.183   0.119  25.416  0.00  0.00    +0.155 HD
ATOM     24  C   UNL     1       6.037  -0.058  27.132  0.00  0.00    +0.248 C 
ATOM     25  O   UNL     1       5.413  -0.723  27.952  0.00  0.00    -0.270 OA
BRANCH  22  28
ATOM     26  C   UNL     1       5.679  -3.873  24.622  0.00  0.00    +0.050 A 
ATOM     27  C   UNL     1       5.634  -2.528  25.044  0.00  0.00    +0.049 A 
ATOM     28  C   UNL     1       6.769  -1.907  25.604  0.00  0.00    +0.036 A 
ATOM     29  C   UNL     1       7.938  -2.656  25.736  0.00  0.00    +0.035 A 
ATOM     30  C   UNL     1       8.010  -3.993  25.320  0.00  0.00    +0.059 A 
ATOM     31  C   UNL     1       6.874  -4.594  24.764  0.00  0.00    +0.038 A 
BRANCH  26  36
ATOM     32  C   UNL     1       1.009  -5.342  23.495  0.00  0.00    +0.067 C 
ATOM     33  C   UNL     1       2.473  -5.148  23.564  0.00  0.00    +0.056 A 
ATOM     34  N   UNL     1       3.303  -5.855  22.738  0.00  0.00    -0.241 NA
ATOM     35  C   UNL     1       4.516  -5.459  23.050  0.00  0.00    +0.204 A 
ATOM     36  N   UNL     1       4.532  -4.509  24.053  0.00  0.00    -0.306 N 
ATOM     37  C   UNL     1       3.207  -4.315  24.380  0.00  0.00    +0.115 A 
ENDBRANCH  26  36
BRANCH  30  38
ATOM     38  C   UNL     1       9.309  -4.744  25.477  0.00  0.00    +0.418 C 
ATOM     39  F   UNL     1      10.316  -4.208  24.734  0.00  0.00    -0.166 F 
ATOM     40  F   UNL     1       9.209  -6.047  25.097  0.00  0.00    -0.166 F 
ATOM     41  F   UNL     1       9.766  -4.764  26.761  0.00  0.00    -0.166 F 
ENDBRANCH  30  38
ENDBRANCH  22  28
ENDBRANCH   1  24
TORSDOF 6
ENDMDL
MODEL 6
REMARK VINA RESULT:      -8.3      4.341     11.245
REMARK  Name = 
REMARK  8 active torsions:
REMARK  status: ('A' for Active; 'I' for Inactive)
REMARK    1  A    between atoms: C_1  and  C_2
REMARK    2  A    between atoms: N_4  and  C_7
REMARK    3  A    between atoms: C_9  and  C_36
REMARK    4  A    between atoms: C_11  and  N_12
REMARK    5  A    between atoms: C_13  and  C_15
REMARK    6  A    between atoms: C_17  and  N_18
REMARK    7  A    between atoms: C_23  and  C_25
REMARK    8  A    between atoms: C_31  and  C_32
REMARK                            x       y       z     vdW  Elec       q    Type
REMARK                         _______ _______ _______ _____ _____    ______ ____
ROOT
ATOM      1  C   UNL     1       8.341  -2.001  23.844  0.00  0.00    +0.039 A 
ATOM      2  C   UNL     1       9.713  -1.857  23.629  0.00  0.00    +0.013 A 
ATOM      3  C   UNL     1      10.201  -0.720  22.993  0.00  0.00    +0.006 A 
ATOM      4  C   UNL     1       9.330   0.288  22.535  0.00  0.00    -0.029 A 
ATOM      5  C   UNL     1       9.982   1.450  21.828  0.00  0.00    +0.045 C 
ATOM      6  C   UNL     1       7.936   0.148  22.733  0.00  0.00    +0.037 A 
ATOM      7  C   UNL     1       7.479  -0.978  23.444  0.00  0.00    +0.036 A 
ENDROOT
BRANCH   6   8
ATOM      8  N   UNL     1       7.032   1.126  22.276  0.00  0.00    -0.283 N 
ATOM      9  H   UNL     1       6.185   0.785  21.844  0.00  0.00    +0.155 HD
ATOM     10  C   UNL     1       6.714   2.376  22.816  0.00  0.00    +0.220 A 
ATOM     11  N   UNL     1       7.606   3.086  23.527  0.00  0.00    -0.214 NA
ATOM     12  C   UNL     1       7.224   4.266  24.059  0.00  0.00    +0.077 A 
ATOM     13  C   UNL     1       5.935   4.730  23.913  0.00  0.00    +0.048 A 
ATOM     14  C   UNL     1       5.093   3.953  23.158  0.00  0.00    +0.116 A 
ATOM     15  N   UNL     1       5.460   2.789  22.595  0.00  0.00    -0.223 NA
BRANCH  12  16
ATOM     16  C   UNL     1       8.290   5.046  24.713  0.00  0.00    +0.019 A 
ATOM     17  C   UNL     1       9.425   5.478  24.008  0.00  0.00    +0.013 A 
ATOM     18  C   UNL     1      10.345   6.344  24.599  0.00  0.00    +0.020 A 
ATOM     19  C   UNL     1      10.125   6.740  25.906  0.00  0.00    +0.111 A 
ATOM     20  N   UNL     1       9.093   6.297  26.652  0.00  0.00    -0.263 NA
ATOM     21  C   UNL     1       8.211   5.467  26.041  0.00  0.00    +0.120 A 
ENDBRANCH  12  16
ENDBRANCH   6   8
BRANCH   1  24
ATOM     22  N   UNL     1       6.564  -3.192  25.052  0.00  0.00    -0.281 N 
ATOM     23  H   UNL     1       6.038  -2.333  24.941  0.00  0.00    +0.155 HD
ATOM     24  C   UNL     1       7.858  -3.228  24.524  0.00  0.00    +0.248 C 
ATOM     25  O   UNL     1       8.619  -4.190  24.539  0.00  0.00    -0.270 OA
BRANCH  22  28
ATOM     26  C   UNL     1       4.275  -6.117  25.429  0.00  0.00    +0.050 A 
ATOM     27  C   UNL     1       4.964  -5.016  24.881  0.00  0.00    +0.049 A 
ATOM     28  C   UNL     1       5.880  -4.276  25.655  0.00  0.00    +0.036 A 
ATOM     29  C   UNL     1       6.088  -4.658  26.981  0.00  0.00    +0.035 A 
ATOM     30  C   UNL     1       5.418  -5.751  27.549  0.00  0.00    +0.059 A 
ATOM     31  C   UNL     1       4.513  -6.476  26.764  0.00  0.00    +0.038 A 
BRANCH  26  36
ATOM     32  C   UNL     1       1.071  -7.703  21.898  0.00  0.00    +0.067 C 
ATOM     33  C   UNL     1       1.936  -7.560  23.089  0.00  0.00    +0.056 A 
ATOM     34  N   UNL     1       1.998  -8.559  24.022  0.00  0.00    -0.241 NA
ATOM     35  C   UNL     1       2.837  -8.123  24.935  0.00  0.00    +0.204 A 
ATOM     36  N   UNL     1       3.344  -6.871  24.648  0.00  0.00    -0.306 N 
ATOM     37  C   UNL     1       2.756  -6.514  23.454  0.00  0.00    +0.115 A 
ENDBRANCH  26  36
BRANCH  30  38
ATOM     38  C   UNL     1       5.698  -6.121  28.985  0.00  0.00    +0.418 C 
ATOM     39  F   UNL     1       6.924  -6.687  29.150  0.00  0.00    -0.166 F 
ATOM     40  F   UNL     1       4.797  -7.014  29.479  0.00  0.00    -0.166 F 
ATOM     41  F   UNL     1       5.665  -5.052  29.830  0.00  0.00    -0.166 F 
ENDBRANCH  30  38
ENDBRANCH  22  28
ENDBRANCH   1  24
TORSDOF 6
ENDMDL
MODEL 7
REMARK VINA RESULT:      -8.2      1.620      1.941
REMARK  Name = 
REMARK  8 active torsions:
REMARK  status: ('A' for Active; 'I' for Inactive)
REMARK    1  A    between atoms: C_1  and  C_2
REMARK    2  A    between atoms: N_4  and  C_7
REMARK    3  A    between atoms: C_9  and  C_36
REMARK    4  A    between atoms: C_11  and  N_12
REMARK    5  A    between atoms: C_13  and  C_15
REMARK    6  A    between atoms: C_17  and  N_18
REMARK    7  A    between atoms: C_23  and  C_25
REMARK    8  A    between atoms: C_31  and  C_32
REMARK                            x       y       z     vdW  Elec       q    Type
REMARK                         _______ _______ _______ _____ _____    ______ ____
ROOT
ATOM      1  C   UNL     1       8.563  -1.454  25.232  0.00  0.00    +0.039 A 
ATOM      2  C   UNL     1       9.338  -1.978  24.194  0.00  0.00    +0.013 A 
ATOM      3  C   UNL     1       9.603  -3.343  24.147  0.00  0.00    +0.006 A 
ATOM      4  C   UNL     1       9.124  -4.213  25.146  0.00  0.00    -0.029 A 
ATOM      5  C   UNL     1       9.514  -5.662  24.999  0.00  0.00    +0.045 C 
ATOM      6  C   UNL     1       8.350  -3.692  26.211  0.00  0.00    +0.037 A 
ATOM      7  C   UNL     1       8.038  -2.320  26.192  0.00  0.00    +0.036 A 
ENDROOT
BRANCH   6   8
ATOM      8  N   UNL     1       7.867  -4.528  27.237  0.00  0.00    -0.283 N 
ATOM      9  H   UNL     1       8.258  -4.379  28.155  0.00  0.00    +0.155 HD
ATOM     10  C   UNL     1       6.584  -5.044  27.442  0.00  0.00    +0.220 A 
ATOM     11  N   UNL     1       5.751  -5.297  26.419  0.00  0.00    -0.214 NA
ATOM     12  C   UNL     1       4.510  -5.754  26.686  0.00  0.00    +0.077 A 
ATOM     13  C   UNL     1       4.078  -5.930  27.983  0.00  0.00    +0.048 A 
ATOM     14  C   UNL     1       4.997  -5.666  28.967  0.00  0.00    +0.116 A 
ATOM     15  N   UNL     1       6.247  -5.238  28.724  0.00  0.00    -0.223 NA
BRANCH  12  16
ATOM     16  C   UNL     1       3.701  -6.130  25.512  0.00  0.00    +0.019 A 
ATOM     17  C   UNL     1       3.309  -5.180  24.555  0.00  0.00    +0.013 A 
ATOM     18  C   UNL     1       2.679  -5.576  23.375  0.00  0.00    +0.020 A 
ATOM     19  C   UNL     1       2.427  -6.923  23.187  0.00  0.00    +0.111 A 
ATOM     20  N   UNL     1       2.717  -7.867  24.105  0.00  0.00    -0.263 NA
ATOM     21  C   UNL     1       3.340  -7.449  25.234  0.00  0.00    +0.120 A 
ENDBRANCH  12  16
ENDBRANCH   6   8
BRANCH   1  24
ATOM     22  N   UNL     1       8.582   0.714  24.078  0.00  0.00    -0.281 N 
ATOM     23  H   UNL     1       8.947   0.190  23.290  0.00  0.00    +0.155 HD
ATOM     24  C   UNL     1       8.303   0.006  25.250  0.00  0.00    +0.248 C 
ATOM     25  O   UNL     1       7.830   0.473  26.281  0.00  0.00    -0.270 OA
BRANCH  22  28
ATOM     26  C   UNL     1       6.709   3.839  23.262  0.00  0.00    +0.050 A 
ATOM     27  C   UNL     1       7.023   2.481  23.476  0.00  0.00    +0.049 A 
ATOM     28  C   UNL     1       8.323   2.089  23.852  0.00  0.00    +0.036 A 
ATOM     29  C   UNL     1       9.296   3.077  24.005  0.00  0.00    +0.035 A 
ATOM     30  C   UNL     1       9.008   4.434  23.802  0.00  0.00    +0.059 A 
ATOM     31  C   UNL     1       7.711   4.807  23.431  0.00  0.00    +0.038 A 
BRANCH  26  36
ATOM     32  C   UNL     1       2.557   6.461  22.201  0.00  0.00    +0.067 C 
ATOM     33  C   UNL     1       3.570   5.406  22.415  0.00  0.00    +0.056 A 
ATOM     34  N   UNL     1       3.261   4.094  22.180  0.00  0.00    -0.241 NA
ATOM     35  C   UNL     1       4.357   3.427  22.465  0.00  0.00    +0.204 A 
ATOM     36  N   UNL     1       5.392   4.243  22.880  0.00  0.00    -0.306 N 
ATOM     37  C   UNL     1       4.874   5.519  22.846  0.00  0.00    +0.115 A 
ENDBRANCH  26  36
BRANCH  30  38
ATOM     38  C   UNL     1      10.102   5.456  23.998  0.00  0.00    +0.418 C 
ATOM     39  F   UNL     1      10.038   6.470  23.092  0.00  0.00    -0.166 F 
ATOM     40  F   UNL     1      11.346   4.918  23.881  0.00  0.00    -0.166 F 
ATOM     41  F   UNL     1      10.067   6.051  25.223  0.00  0.00    -0.166 F 
ENDBRANCH  30  38
ENDBRANCH  22  28
ENDBRANCH   1  24
TORSDOF 6
ENDMDL
MODEL 8
REMARK VINA RESULT:      -8.0      4.389      9.365
REMARK  Name = 
REMARK  8 active torsions:
REMARK  status: ('A' for Active; 'I' for Inactive)
REMARK    1  A    between atoms: C_1  and  C_2
REMARK    2  A    between atoms: N_4  and  C_7
REMARK    3  A    between atoms: C_9  and  C_36
REMARK    4  A    between atoms: C_11  and  N_12
REMARK    5  A    between atoms: C_13  and  C_15
REMARK    6  A    between atoms: C_17  and  N_18
REMARK    7  A    between atoms: C_23  and  C_25
REMARK    8  A    between atoms: C_31  and  C_32
REMARK                            x       y       z     vdW  Elec       q    Type
REMARK                         _______ _______ _______ _____ _____    ______ ____
ROOT
ATOM      1  C   UNL     1       9.332   0.751  23.899  0.00  0.00    +0.039 A 
ATOM      2  C   UNL     1      10.580   1.236  23.500  0.00  0.00    +0.013 A 
ATOM      3  C   UNL     1      10.818   2.606  23.479  0.00  0.00    +0.006 A 
ATOM      4  C   UNL     1       9.811   3.525  23.832  0.00  0.00    -0.029 A 
ATOM      5  C   UNL     1      10.186   4.983  23.730  0.00  0.00    +0.045 C 
ATOM      6  C   UNL     1       8.537   3.048  24.224  0.00  0.00    +0.037 A 
ATOM      7  C   UNL     1       8.350   1.656  24.304  0.00  0.00    +0.036 A 
ENDROOT
BRANCH   6   8
ATOM      8  N   UNL     1       7.500   3.937  24.568  0.00  0.00    -0.283 N 
ATOM      9  H   UNL     1       7.472   4.809  24.060  0.00  0.00    +0.155 HD
ATOM     10  C   UNL     1       6.183   3.671  24.953  0.00  0.00    +0.220 A 
ATOM     11  N   UNL     1       5.850   2.540  25.598  0.00  0.00    -0.214 NA
ATOM     12  C   UNL     1       4.554   2.322  25.904  0.00  0.00    +0.077 A 
ATOM     13  C   UNL     1       3.573   3.218  25.536  0.00  0.00    +0.048 A 
ATOM     14  C   UNL     1       4.001   4.354  24.897  0.00  0.00    +0.116 A 
ATOM     15  N   UNL     1       5.289   4.606  24.608  0.00  0.00    -0.223 NA
BRANCH  12  16
ATOM     16  C   UNL     1       4.283   1.126  26.723  0.00  0.00    +0.019 A 
ATOM     17  C   UNL     1       4.894  -0.108  26.447  0.00  0.00    +0.013 A 
ATOM     18  C   UNL     1       4.749  -1.186  27.321  0.00  0.00    +0.020 A 
ATOM     19  C   UNL     1       3.966  -1.015  28.447  0.00  0.00    +0.111 A 
ATOM     20  N   UNL     1       3.298   0.124  28.721  0.00  0.00    -0.263 NA
ATOM     21  C   UNL     1       3.472   1.155  27.858  0.00  0.00    +0.120 A 
ENDBRANCH  12  16
ENDBRANCH   6   8
BRANCH   1  24
ATOM     22  N   UNL     1       7.811  -1.162  24.144  0.00  0.00    -0.281 N 
ATOM     23  H   UNL     1       7.097  -0.459  24.298  0.00  0.00    +0.155 HD
ATOM     24  C   UNL     1       9.114  -0.717  23.907  0.00  0.00    +0.248 C 
ATOM     25  O   UNL     1      10.088  -1.424  23.670  0.00  0.00    -0.270 OA
BRANCH  22  28
ATOM     26  C   UNL     1       6.667  -4.511  25.334  0.00  0.00    +0.050 A 
ATOM     27  C   UNL     1       7.127  -3.178  25.320  0.00  0.00    +0.049 A 
ATOM     28  C   UNL     1       7.370  -2.508  24.104  0.00  0.00    +0.036 A 
ATOM     29  C   UNL     1       7.149  -3.197  22.912  0.00  0.00    +0.035 A 
ATOM     30  C   UNL     1       6.687  -4.521  22.898  0.00  0.00    +0.059 A 
ATOM     31  C   UNL     1       6.448  -5.171  24.116  0.00  0.00    +0.038 A 
BRANCH  26  36
ATOM     32  C   UNL     1       4.530  -6.774  29.279  0.00  0.00    +0.067 C 
ATOM     33  C   UNL     1       5.468  -6.190  28.296  0.00  0.00    +0.056 A 
ATOM     34  N   UNL     1       6.817  -6.237  28.516  0.00  0.00    -0.241 NA
ATOM     35  C   UNL     1       7.355  -5.639  27.476  0.00  0.00    +0.204 A 
ATOM     36  N   UNL     1       6.418  -5.195  26.564  0.00  0.00    -0.306 N 
ATOM     37  C   UNL     1       5.201  -5.553  27.102  0.00  0.00    +0.115 A 
ENDBRANCH  26  36
BRANCH  30  38
ATOM     38  C   UNL     1       6.453  -5.206  21.574  0.00  0.00    +0.418 C 
ATOM     39  F   UNL     1       6.068  -4.339  20.598  0.00  0.00    -0.166 F 
ATOM     40  F   UNL     1       5.483  -6.158  21.642  0.00  0.00    -0.166 F 
ATOM     41  F   UNL     1       7.561  -5.837  21.093  0.00  0.00    -0.166 F 
ENDBRANCH  30  38
ENDBRANCH  22  28
ENDBRANCH   1  24
TORSDOF 6
ENDMDL
MODEL 9
REMARK VINA RESULT:      -7.9      4.389     10.481
REMARK  Name = 
REMARK  8 active torsions:
REMARK  status: ('A' for Active; 'I' for Inactive)
REMARK    1  A    between atoms: C_1  and  C_2
REMARK    2  A    between atoms: N_4  and  C_7
REMARK    3  A    between atoms: C_9  and  C_36
REMARK    4  A    between atoms: C_11  and  N_12
REMARK    5  A    between atoms: C_13  and  C_15
REMARK    6  A    between atoms: C_17  and  N_18
REMARK    7  A    between atoms: C_23  and  C_25
REMARK    8  A    between atoms: C_31  and  C_32
REMARK                            x       y       z     vdW  Elec       q    Type
REMARK                         _______ _______ _______ _____ _____    ______ ____
ROOT
ATOM      1  C   UNL     1       8.559  -1.696  23.959  0.00  0.00    +0.039 A 
ATOM      2  C   UNL     1       9.016  -1.724  22.639  0.00  0.00    +0.013 A 
ATOM      3  C   UNL     1       9.529  -0.569  22.057  0.00  0.00    +0.006 A 
ATOM      4  C   UNL     1       9.576   0.646  22.769  0.00  0.00    -0.029 A 
ATOM      5  C   UNL     1      10.119   1.832  22.012  0.00  0.00    +0.045 C 
ATOM      6  C   UNL     1       9.103   0.691  24.103  0.00  0.00    +0.037 A 
ATOM      7  C   UNL     1       8.657  -0.509  24.687  0.00  0.00    +0.036 A 
ENDROOT
BRANCH   6   8
ATOM      8  N   UNL     1       9.118   1.890  24.841  0.00  0.00    -0.283 N 
ATOM      9  H   UNL     1      10.024   2.219  25.141  0.00  0.00    +0.155 HD
ATOM     10  C   UNL     1       8.315   3.028  24.720  0.00  0.00    +0.220 A 
ATOM     11  N   UNL     1       7.051   2.956  24.272  0.00  0.00    -0.214 NA
ATOM     12  C   UNL     1       6.341   4.096  24.137  0.00  0.00    +0.077 A 
ATOM     13  C   UNL     1       6.903   5.324  24.416  0.00  0.00    +0.048 A 
ATOM     14  C   UNL     1       8.193   5.306  24.885  0.00  0.00    +0.116 A 
ATOM     15  N   UNL     1       8.907   4.181  25.055  0.00  0.00    -0.223 NA
BRANCH  12  16
ATOM     16  C   UNL     1       4.925   3.927  23.764  0.00  0.00    +0.019 A 
ATOM     17  C   UNL     1       4.346   4.663  22.718  0.00  0.00    +0.013 A 
ATOM     18  C   UNL     1       3.053   4.381  22.278  0.00  0.00    +0.020 A 
ATOM     19  C   UNL     1       2.348   3.378  22.918  0.00  0.00    +0.111 A 
ATOM     20  N   UNL     1       2.828   2.691  23.974  0.00  0.00    -0.263 NA
ATOM     21  C   UNL     1       4.093   2.982  24.367  0.00  0.00    +0.120 A 
ENDBRANCH  12  16
ENDBRANCH   6   8
BRANCH   1  24
ATOM     22  N   UNL     1       6.677  -2.931  24.944  0.00  0.00    -0.281 N 
ATOM     23  H   UNL     1       6.160  -2.068  24.812  0.00  0.00    +0.155 HD
ATOM     24  C   UNL     1       8.017  -2.947  24.545  0.00  0.00    +0.248 C 
ATOM     25  O   UNL     1       8.777  -3.908  24.602  0.00  0.00    -0.270 OA
BRANCH  22  28
ATOM     26  C   UNL     1       4.200  -5.722  25.062  0.00  0.00    +0.050 A 
ATOM     27  C   UNL     1       4.945  -4.607  24.623  0.00  0.00    +0.049 A 
ATOM     28  C   UNL     1       5.942  -4.036  25.439  0.00  0.00    +0.036 A 
ATOM     29  C   UNL     1       6.175  -4.597  26.695  0.00  0.00    +0.035 A 
ATOM     30  C   UNL     1       5.452  -5.708  27.152  0.00  0.00    +0.059 A 
ATOM     31  C   UNL     1       4.466  -6.265  26.328  0.00  0.00    +0.038 A 
BRANCH  26  36
ATOM     32  C   UNL     1       0.827  -8.807  22.978  0.00  0.00    +0.067 C 
ATOM     33  C   UNL     1       1.705  -7.671  23.330  0.00  0.00    +0.056 A 
ATOM     34  N   UNL     1       1.659  -6.512  22.605  0.00  0.00    -0.241 NA
ATOM     35  C   UNL     1       2.548  -5.722  23.163  0.00  0.00    +0.204 A 
ATOM     36  N   UNL     1       3.188  -6.306  24.239  0.00  0.00    -0.306 N 
ATOM     37  C   UNL     1       2.639  -7.565  24.339  0.00  0.00    +0.115 A 
ENDBRANCH  26  36
BRANCH  30  38
ATOM     38  C   UNL     1       5.761  -6.278  28.515  0.00  0.00    +0.418 C 
ATOM     39  F   UNL     1       5.181  -7.492  28.719  0.00  0.00    -0.166 F 
ATOM     40  F   UNL     1       5.331  -5.476  29.527  0.00  0.00    -0.166 F 
ATOM     41  F   UNL     1       7.094  -6.463  28.729  0.00  0.00    -0.166 F 
ENDBRANCH  30  38
ENDBRANCH  22  28
ENDBRANCH   1  24
TORSDOF 6
ENDMDL
