MODEL 1
REMARK VINA RESULT:      -4.7      0.000      0.000
REMARK  Name = 
REMARK  5 active torsions:
REMARK  status: ('A' for Active; 'I' for Inactive)
REMARK    1  A    between atoms: O_1  and  C_2
REMARK    2  A    between atoms: C_2  and  C_3
REMARK    3  A    between atoms: C_3  and  O_5
REMARK    4  A    between atoms: C_3  and  C_6
REMARK    5  A    between atoms: C_6  and  C_7
REMARK                            x       y       z     vdW  Elec       q    Type
REMARK                         _______ _______ _______ _____ _____    ______ ____
ROOT
ATOM      1  C   UNL     1       7.111  -4.592  25.473  0.00  0.00    +0.068 C 
ENDROOT
BRANCH   1   2
ATOM      2  C   UNL     1       6.673  -5.128  24.132  0.00  0.00    -0.045 A 
ATOM      3  C   UNL     1       5.316  -5.358  23.868  0.00  0.00    +0.004 A 
ATOM      4  C   UNL     1       4.902  -5.741  22.593  0.00  0.00    +0.000 A 
ATOM      5  C   UNL     1       5.841  -5.902  21.572  0.00  0.00    +0.000 A 
ATOM      6  C   UNL     1       7.193  -5.706  21.833  0.00  0.00    +0.000 A 
ATOM      7  C   UNL     1       7.610  -5.331  23.110  0.00  0.00    +0.004 A 
ENDBRANCH   1   2
BRANCH   1   8
ATOM      8  C   UNL     1       8.217  -5.441  26.110  0.00  0.00    +0.144 C 
BRANCH   8   9
ATOM      9  O   UNL     1       7.841  -5.773  27.454  0.00  0.00    -0.389 OA
ATOM     10  H   UNL     1       8.577  -5.437  28.004  0.00  0.00    +0.210 HD
ENDBRANCH   8   9
BRANCH   8  11
ATOM     11  C   UNL     1       9.572  -4.725  26.152  0.00  0.00    +0.187 C 
BRANCH  11  12
ATOM     12  O   UNL     1      10.440  -5.342  25.196  0.00  0.00    -0.392 OA
ATOM     13  H   UNL     1      10.604  -6.247  25.518  0.00  0.00    +0.210 HD
ENDBRANCH  11  12
ENDBRANCH   8  11
ENDBRANCH   1   8
TORSDOF 5
ENDMDL
MODEL 2
REMARK VINA RESULT:      -4.6      5.376      6.492
REMARK  Name = 
REMARK  5 active torsions:
REMARK  status: ('A' for Active; 'I' for Inactive)
REMARK    1  A    between atoms: O_1  and  C_2
REMARK    2  A    between atoms: C_2  and  C_3
REMARK    3  A    between atoms: C_3  and  O_5
REMARK    4  A    between atoms: C_3  and  C_6
REMARK    5  A    between atoms: C_6  and  C_7
REMARK                            x       y       z     vdW  Elec       q    Type
REMARK                         _______ _______ _______ _____ _____    ______ ____
ROOT
ATOM      1  C   UNL     1      10.241  -1.935  22.921  0.00  0.00    +0.068 C 
ENDROOT
BRANCH   1   2
ATOM      2  C   UNL     1      10.178  -0.428  22.972  0.00  0.00    -0.045 A 
ATOM      3  C   UNL     1      10.605   0.264  24.113  0.00  0.00    +0.004 A 
ATOM      4  C   UNL     1      10.656   1.657  24.115  0.00  0.00    +0.000 A 
ATOM      5  C   UNL     1      10.275   2.372  22.978  0.00  0.00    +0.000 A 
ATOM      6  C   UNL     1       9.821   1.695  21.850  0.00  0.00    +0.000 A 
ATOM      7  C   UNL     1       9.761   0.302  21.849  0.00  0.00    +0.004 A 
ENDBRANCH   1   2
BRANCH   1   8
ATOM      8  C   UNL     1       9.437  -2.593  24.047  0.00  0.00    +0.144 C 
BRANCH   8   9
ATOM      9  O   UNL     1      10.032  -3.855  24.377  0.00  0.00    -0.389 OA
ATOM     10  H   UNL     1      10.932  -3.808  23.997  0.00  0.00    +0.210 HD
ENDBRANCH   8   9
BRANCH   8  11
ATOM     11  C   UNL     1       7.970  -2.836  23.671  0.00  0.00    +0.187 C 
BRANCH  11  12
ATOM     12  O   UNL     1       7.882  -2.962  22.248  0.00  0.00    -0.392 OA
ATOM     13  H   UNL     1       8.515  -2.323  21.876  0.00  0.00    +0.210 HD
ENDBRANCH  11  12
ENDBRANCH   8  11
ENDBRANCH   1   8
TORSDOF 5
ENDMDL
MODEL 3
REMARK VINA RESULT:      -4.6      5.375      6.494
REMARK  Name = 
REMARK  5 active torsions:
REMARK  status: ('A' for Active; 'I' for Inactive)
REMARK    1  A    between atoms: O_1  and  C_2
REMARK    2  A    between atoms: C_2  and  C_3
REMARK    3  A    between atoms: C_3  and  O_5
REMARK    4  A    between atoms: C_3  and  C_6
REMARK    5  A    between atoms: C_6  and  C_7
REMARK                            x       y       z     vdW  Elec       q    Type
REMARK                         _______ _______ _______ _____ _____    ______ ____
ROOT
ATOM      1  C   UNL     1      10.130  -1.951  22.785  0.00  0.00    +0.068 C 
ENDROOT
BRANCH   1   2
ATOM      2  C   UNL     1      10.230  -0.447  22.863  0.00  0.00    -0.045 A 
ATOM      3  C   UNL     1       9.798   0.351  21.796  0.00  0.00    +0.004 A 
ATOM      4  C   UNL     1       9.782   1.739  21.915  0.00  0.00    +0.000 A 
ATOM      5  C   UNL     1      10.202   2.344  23.101  0.00  0.00    +0.000 A 
ATOM      6  C   UNL     1      10.660   1.562  24.156  0.00  0.00    +0.000 A 
ATOM      7  C   UNL     1      10.686   0.173  24.036  0.00  0.00    +0.004 A 
ENDBRANCH   1   2
BRANCH   1   8
ATOM      8  C   UNL     1       9.374  -2.550  23.976  0.00  0.00    +0.144 C 
BRANCH   8   9
ATOM      9  O   UNL     1      10.008  -3.775  24.370  0.00  0.00    -0.389 OA
ATOM     10  H   UNL     1      10.910  -3.508  24.638  0.00  0.00    +0.210 HD
ENDBRANCH   8   9
BRANCH   8  11
ATOM     11  C   UNL     1       7.903  -2.849  23.662  0.00  0.00    +0.187 C 
BRANCH  11  12
ATOM     12  O   UNL     1       7.742  -2.888  22.240  0.00  0.00    -0.392 OA
ATOM     13  H   UNL     1       8.386  -3.540  21.909  0.00  0.00    +0.210 HD
ENDBRANCH  11  12
ENDBRANCH   8  11
ENDBRANCH   1   8
TORSDOF 5
ENDMDL
MODEL 4
REMARK VINA RESULT:      -4.5      3.563      4.679
REMARK  Name = 
REMARK  5 active torsions:
REMARK  status: ('A' for Active; 'I' for Inactive)
REMARK    1  A    between atoms: O_1  and  C_2
REMARK    2  A    between atoms: C_2  and  C_3
REMARK    3  A    between atoms: C_3  and  O_5
REMARK    4  A    between atoms: C_3  and  C_6
REMARK    5  A    between atoms: C_6  and  C_7
REMARK                            x       y       z     vdW  Elec       q    Type
REMARK                         _______ _______ _______ _____ _____    ______ ____
ROOT
ATOM      1  C   UNL     1       8.574  -3.609  23.944  0.00  0.00    +0.068 C 
ENDROOT
BRANCH   1   2
ATOM      2  C   UNL     1       9.146  -2.300  23.456  0.00  0.00    -0.045 A 
ATOM      3  C   UNL     1       9.039  -1.936  22.107  0.00  0.00    +0.004 A 
ATOM      4  C   UNL     1       9.463  -0.679  21.680  0.00  0.00    +0.000 A 
ATOM      5  C   UNL     1      10.001   0.226  22.598  0.00  0.00    +0.000 A 
ATOM      6  C   UNL     1      10.138  -0.137  23.934  0.00  0.00    +0.000 A 
ATOM      7  C   UNL     1       9.724  -1.398  24.361  0.00  0.00    +0.004 A 
ENDBRANCH   1   2
BRANCH   1   8
ATOM      8  C   UNL     1       9.408  -4.228  25.070  0.00  0.00    +0.144 C 
BRANCH   8   9
ATOM      9  O   UNL     1       9.894  -5.509  24.648  0.00  0.00    -0.389 OA
ATOM     10  H   UNL     1       9.448  -5.670  23.793  0.00  0.00    +0.210 HD
ENDBRANCH   8   9
BRANCH   8  11
ATOM     11  C   UNL     1       8.614  -4.418  26.369  0.00  0.00    +0.187 C 
BRANCH  11  12
ATOM     12  O   UNL     1       8.457  -5.821  26.602  0.00  0.00    -0.392 OA
ATOM     13  H   UNL     1       8.720  -6.268  25.777  0.00  0.00    +0.210 HD
ENDBRANCH  11  12
ENDBRANCH   8  11
ENDBRANCH   1   8
TORSDOF 5
ENDMDL
MODEL 5
REMARK VINA RESULT:      -4.5      8.669      9.801
REMARK  Name = 
REMARK  5 active torsions:
REMARK  status: ('A' for Active; 'I' for Inactive)
REMARK    1  A    between atoms: O_1  and  C_2
REMARK    2  A    between atoms: C_2  and  C_3
REMARK    3  A    between atoms: C_3  and  O_5
REMARK    4  A    between atoms: C_3  and  C_6
REMARK    5  A    between atoms: C_6  and  C_7
REMARK                            x       y       z     vdW  Elec       q    Type
REMARK                         _______ _______ _______ _____ _____    ______ ____
ROOT
ATOM      1  C   UNL     1       9.784   1.918  23.650  0.00  0.00    +0.068 C 
ENDROOT
BRANCH   1   2
ATOM      2  C   UNL     1      10.235   3.358  23.628  0.00  0.00    -0.045 A 
ATOM      3  C   UNL     1       9.352   4.386  23.985  0.00  0.00    +0.004 A 
ATOM      4  C   UNL     1       9.801   5.702  24.076  0.00  0.00    +0.000 A 
ATOM      5  C   UNL     1      11.138   6.004  23.808  0.00  0.00    +0.000 A 
ATOM      6  C   UNL     1      12.015   4.996  23.424  0.00  0.00    +0.000 A 
ATOM      7  C   UNL     1      11.565   3.680  23.323  0.00  0.00    +0.004 A 
ENDBRANCH   1   2
BRANCH   1   8
ATOM      8  C   UNL     1       9.959   1.229  22.293  0.00  0.00    +0.144 C 
BRANCH   8   9
ATOM      9  O   UNL     1       9.322   2.017  21.278  0.00  0.00    -0.389 OA
ATOM     10  H   UNL     1       8.476   2.298  21.681  0.00  0.00    +0.210 HD
ENDBRANCH   8   9
BRANCH   8  11
ATOM     11  C   UNL     1       9.357  -0.181  22.256  0.00  0.00    +0.187 C 
BRANCH  11  12
ATOM     12  O   UNL     1       9.633  -0.757  20.975  0.00  0.00    -0.392 OA
ATOM     13  H   UNL     1      10.550  -0.513  20.756  0.00  0.00    +0.210 HD
ENDBRANCH  11  12
ENDBRANCH   8  11
ENDBRANCH   1   8
TORSDOF 5
ENDMDL
MODEL 6
REMARK VINA RESULT:      -4.3      4.320      5.162
REMARK  Name = 
REMARK  5 active torsions:
REMARK  status: ('A' for Active; 'I' for Inactive)
REMARK    1  A    between atoms: O_1  and  C_2
REMARK    2  A    between atoms: C_2  and  C_3
REMARK    3  A    between atoms: C_3  and  O_5
REMARK    4  A    between atoms: C_3  and  C_6
REMARK    5  A    between atoms: C_6  and  C_7
REMARK                            x       y       z     vdW  Elec       q    Type
REMARK                         _______ _______ _______ _____ _____    ______ ____
ROOT
ATOM      1  C   UNL     1       8.705  -1.178  23.195  0.00  0.00    +0.068 C 
ENDROOT
BRANCH   1   2
ATOM      2  C   UNL     1       8.341  -2.643  23.221  0.00  0.00    -0.045 A 
ATOM      3  C   UNL     1       8.888  -3.494  24.191  0.00  0.00    +0.004 A 
ATOM      4  C   UNL     1       8.462  -4.818  24.286  0.00  0.00    +0.000 A 
ATOM      5  C   UNL     1       7.490  -5.305  23.411  0.00  0.00    +0.000 A 
ATOM      6  C   UNL     1       6.964  -4.476  22.425  0.00  0.00    +0.000 A 
ATOM      7  C   UNL     1       7.395  -3.154  22.322  0.00  0.00    +0.004 A 
ENDBRANCH   1   2
BRANCH   1   8
ATOM      8  C   UNL     1       9.240  -0.732  21.829  0.00  0.00    +0.144 C 
BRANCH   8   9
ATOM      9  O   UNL     1      10.370  -1.541  21.478  0.00  0.00    -0.389 OA
ATOM     10  H   UNL     1      10.344  -1.587  20.501  0.00  0.00    +0.210 HD
ENDBRANCH   8   9
BRANCH   8  11
ATOM     11  C   UNL     1       9.675   0.739  21.808  0.00  0.00    +0.187 C 
BRANCH  11  12
ATOM     12  O   UNL     1       8.819   1.451  20.908  0.00  0.00    -0.392 OA
ATOM     13  H   UNL     1       8.251   2.018  21.460  0.00  0.00    +0.210 HD
ENDBRANCH  11  12
ENDBRANCH   8  11
ENDBRANCH   1   8
TORSDOF 5
ENDMDL
MODEL 7
REMARK VINA RESULT:      -4.3      7.232      8.019
REMARK  Name = 
REMARK  5 active torsions:
REMARK  status: ('A' for Active; 'I' for Inactive)
REMARK    1  A    between atoms: O_1  and  C_2
REMARK    2  A    between atoms: C_2  and  C_3
REMARK    3  A    between atoms: C_3  and  O_5
REMARK    4  A    between atoms: C_3  and  C_6
REMARK    5  A    between atoms: C_6  and  C_7
REMARK                            x       y       z     vdW  Elec       q    Type
REMARK                         _______ _______ _______ _____ _____    ______ ____
ROOT
ATOM      1  C   UNL     1      10.638   1.939  24.049  0.00  0.00    +0.068 C 
ENDROOT
BRANCH   1   2
ATOM      2  C   UNL     1      10.268   0.675  23.312  0.00  0.00    -0.045 A 
ATOM      3  C   UNL     1      10.266  -0.560  23.975  0.00  0.00    +0.004 A 
ATOM      4  C   UNL     1       9.812  -1.707  23.326  0.00  0.00    +0.000 A 
ATOM      5  C   UNL     1       9.360  -1.632  22.007  0.00  0.00    +0.000 A 
ATOM      6  C   UNL     1       9.386  -0.416  21.331  0.00  0.00    +0.000 A 
ATOM      7  C   UNL     1       9.848   0.731  21.975  0.00  0.00    +0.004 A 
ENDBRANCH   1   2
BRANCH   1   8
ATOM      8  C   UNL     1      10.354   3.200  23.227  0.00  0.00    +0.144 C 
BRANCH   8   9
ATOM      9  O   UNL     1      11.565   3.957  23.091  0.00  0.00    -0.389 OA
ATOM     10  H   UNL     1      11.358   4.629  22.410  0.00  0.00    +0.210 HD
ENDBRANCH   8   9
BRANCH   8  11
ATOM     11  C   UNL     1       9.290   4.103  23.863  0.00  0.00    +0.187 C 
BRANCH  11  12
ATOM     12  O   UNL     1       8.475   4.647  22.820  0.00  0.00    -0.392 OA
ATOM     13  H   UNL     1       9.086   5.047  22.175  0.00  0.00    +0.210 HD
ENDBRANCH  11  12
ENDBRANCH   8  11
ENDBRANCH   1   8
TORSDOF 5
ENDMDL
MODEL 8
REMARK VINA RESULT:      -4.2      5.181      6.096
REMARK  Name = 
REMARK  5 active torsions:
REMARK  status: ('A' for Active; 'I' for Inactive)
REMARK    1  A    between atoms: O_1  and  C_2
REMARK    2  A    between atoms: C_2  and  C_3
REMARK    3  A    between atoms: C_3  and  O_5
REMARK    4  A    between atoms: C_3  and  C_6
REMARK    5  A    between atoms: C_6  and  C_7
REMARK                            x       y       z     vdW  Elec       q    Type
REMARK                         _______ _______ _______ _____ _____    ______ ____
ROOT
ATOM      1  C   UNL     1      10.153  -0.291  21.965  0.00  0.00    +0.068 C 
ENDROOT
BRANCH   1   2
ATOM      2  C   UNL     1       9.492  -1.498  22.585  0.00  0.00    -0.045 A 
ATOM      3  C   UNL     1      10.113  -2.189  23.633  0.00  0.00    +0.004 A 
ATOM      4  C   UNL     1       9.451  -3.231  24.281  0.00  0.00    +0.000 A 
ATOM      5  C   UNL     1       8.163  -3.594  23.884  0.00  0.00    +0.000 A 
ATOM      6  C   UNL     1       7.550  -2.934  22.825  0.00  0.00    +0.000 A 
ATOM      7  C   UNL     1       8.214  -1.898  22.169  0.00  0.00    +0.004 A 
ENDBRANCH   1   2
BRANCH   1   8
ATOM      8  C   UNL     1       9.670   1.024  22.587  0.00  0.00    +0.144 C 
BRANCH   8   9
ATOM      9  O   UNL     1       9.709   2.057  21.593  0.00  0.00    -0.389 OA
ATOM     10  H   UNL     1       8.774   2.317  21.474  0.00  0.00    +0.210 HD
ENDBRANCH   8   9
BRANCH   8  11
ATOM     11  C   UNL     1      10.524   1.471  23.780  0.00  0.00    +0.187 C 
BRANCH  11  12
ATOM     12  O   UNL     1       9.776   1.247  24.980  0.00  0.00    -0.392 OA
ATOM     13  H   UNL     1       9.764   2.095  25.458  0.00  0.00    +0.210 HD
ENDBRANCH  11  12
ENDBRANCH   8  11
ENDBRANCH   1   8
TORSDOF 5
ENDMDL
MODEL 9
REMARK VINA RESULT:      -4.2      6.983      7.863
REMARK  Name = 
REMARK  5 active torsions:
REMARK  status: ('A' for Active; 'I' for Inactive)
REMARK    1  A    between atoms: O_1  and  C_2
REMARK    2  A    between atoms: C_2  and  C_3
REMARK    3  A    between atoms: C_3  and  O_5
REMARK    4  A    between atoms: C_3  and  C_6
REMARK    5  A    between atoms: C_6  and  C_7
REMARK                            x       y       z     vdW  Elec       q    Type
REMARK                         _______ _______ _______ _____ _____    ______ ____
ROOT
ATOM      1  C   UNL     1       9.377   0.440  21.455  0.00  0.00    +0.068 C 
ENDROOT
BRANCH   1   2
ATOM      2  C   UNL     1       9.202   1.790  22.106  0.00  0.00    -0.045 A 
ATOM      3  C   UNL     1       7.994   2.490  21.979  0.00  0.00    +0.004 A 
ATOM      4  C   UNL     1       7.793   3.680  22.676  0.00  0.00    +0.000 A 
ATOM      5  C   UNL     1       8.799   4.185  23.502  0.00  0.00    +0.000 A 
ATOM      6  C   UNL     1      10.012   3.513  23.611  0.00  0.00    +0.000 A 
ATOM      7  C   UNL     1      10.219   2.327  22.908  0.00  0.00    +0.004 A 
ENDBRANCH   1   2
BRANCH   1   8
ATOM      8  C   UNL     1       9.870  -0.626  22.439  0.00  0.00    +0.144 C 
BRANCH   8   9
ATOM      9  O   UNL     1      10.439  -1.719  21.706  0.00  0.00    -0.389 OA
ATOM     10  H   UNL     1      10.641  -1.343  20.825  0.00  0.00    +0.210 HD
ENDBRANCH   8   9
BRANCH   8  11
ATOM     11  C   UNL     1       8.754  -1.176  23.336  0.00  0.00    +0.187 C 
BRANCH  11  12
ATOM     12  O   UNL     1       9.348  -1.993  24.349  0.00  0.00    -0.392 OA
ATOM     13  H   UNL     1       9.834  -1.389  24.939  0.00  0.00    +0.210 HD
ENDBRANCH  11  12
ENDBRANCH   8  11
ENDBRANCH   1   8
TORSDOF 5
ENDMDL
