MODEL 1
REMARK VINA RESULT:      -6.9      0.000      0.000
REMARK  Name = 
REMARK  7 active torsions:
REMARK  status: ('A' for Active; 'I' for Inactive)
REMARK    1  A    between atoms: C_1  and  C_2
REMARK    2  A    between atoms: C_2  and  C_3
REMARK    3  A    between atoms: C_2  and  C_4
REMARK    4  A    between atoms: C_2  and  N_5
REMARK    5  A    between atoms: C_7  and  C_8
REMARK    6  A    between atoms: C_8  and  C_9
REMARK    7  A    between atoms: C_11  and  O_12
REMARK                            x       y       z     vdW  Elec       q    Type
REMARK                         _______ _______ _______ _____ _____    ______ ____
ROOT
ATOM      1  N   UNL     1       6.694  -4.248  23.564  0.00  0.00    -0.241 N 
ATOM      2  C   UNL     1       6.878  -4.805  24.809  0.00  0.00    +0.164 A 
ATOM      3  N   UNL     1       5.990  -5.520  25.524  0.00  0.00    -0.216 NA
ATOM      4  C   UNL     1       6.482  -5.865  26.722  0.00  0.00    +0.225 A 
ATOM      5  N   UNL     1       7.697  -5.591  27.229  0.00  0.00    -0.220 NA
ATOM      6  C   UNL     1       8.565  -4.884  26.476  0.00  0.00    +0.130 A 
ATOM      7  N   UNL     1       9.815  -4.638  27.030  0.00  0.00    -0.342 N 
ATOM      8  H   UNL     1      10.576  -4.632  26.364  0.00  0.00    +0.144 HD
ATOM      9  H   UNL     1       9.958  -5.239  27.835  0.00  0.00    +0.144 HD
ATOM     10  C   UNL     1       8.164  -4.467  25.202  0.00  0.00    +0.082 A 
ATOM     11  C   UNL     1       8.699  -3.737  24.110  0.00  0.00    +0.080 A 
ATOM     12  N   UNL     1       7.814  -3.633  23.104  0.00  0.00    -0.173 NA
ENDROOT
BRANCH   1  14
ATOM     13  C   UNL     1       5.458  -5.706  22.029  0.00  0.00    +0.036 C 
ATOM     14  C   UNL     1       5.502  -4.323  22.698  0.00  0.00    +0.058 C 
ATOM     15  C   UNL     1       4.190  -4.084  23.476  0.00  0.00    +0.036 C 
ATOM     16  C   UNL     1       5.553  -3.242  21.589  0.00  0.00    +0.036 C 
ENDBRANCH   1  14
BRANCH  11  17
ATOM     17  C   UNL     1      10.026  -3.058  23.993  0.00  0.00    +0.093 C 
BRANCH  17  18
ATOM     18  C   UNL     1       9.840  -1.586  23.674  0.00  0.00    -0.038 A 
ATOM     19  C   UNL     1      10.030  -1.168  22.342  0.00  0.00    +0.004 A 
ATOM     20  C   UNL     1       9.921   0.177  21.981  0.00  0.00    +0.004 A 
ATOM     21  C   UNL     1       9.618   1.133  22.946  0.00  0.00    +0.045 A 
ATOM     22  C   UNL     1       9.451   0.737  24.266  0.00  0.00    +0.117 A 
ATOM     23  C   UNL     1       9.590  -0.598  24.643  0.00  0.00    +0.049 A 
BRANCH  22  24
ATOM     24  O   UNL     1       9.151   1.706  25.181  0.00  0.00    -0.507 OA
ATOM     25  H   UNL     1       8.218   1.608  25.431  0.00  0.00    +0.292 HD
ENDBRANCH  22  24
ENDBRANCH  17  18
ENDBRANCH  11  17
TORSDOF 4
ENDMDL
MODEL 2
REMARK VINA RESULT:      -6.8      2.211      2.534
REMARK  Name = 
REMARK  7 active torsions:
REMARK  status: ('A' for Active; 'I' for Inactive)
REMARK    1  A    between atoms: C_1  and  C_2
REMARK    2  A    between atoms: C_2  and  C_3
REMARK    3  A    between atoms: C_2  and  C_4
REMARK    4  A    between atoms: C_2  and  N_5
REMARK    5  A    between atoms: C_7  and  C_8
REMARK    6  A    between atoms: C_8  and  C_9
REMARK    7  A    between atoms: C_11  and  O_12
REMARK                            x       y       z     vdW  Elec       q    Type
REMARK                         _______ _______ _______ _____ _____    ______ ____
ROOT
ATOM      1  N   UNL     1       7.095  -3.675  23.864  0.00  0.00    -0.241 N 
ATOM      2  C   UNL     1       6.852  -2.953  25.010  0.00  0.00    +0.164 A 
ATOM      3  N   UNL     1       5.733  -2.957  25.756  0.00  0.00    -0.216 NA
ATOM      4  C   UNL     1       5.816  -2.093  26.779  0.00  0.00    +0.225 A 
ATOM      5  N   UNL     1       6.847  -1.293  27.106  0.00  0.00    -0.220 NA
ATOM      6  C   UNL     1       7.958  -1.329  26.342  0.00  0.00    +0.130 A 
ATOM      7  N   UNL     1       9.006  -0.501  26.724  0.00  0.00    -0.342 N 
ATOM      8  H   UNL     1       9.927  -0.882  26.555  0.00  0.00    +0.144 HD
ATOM      9  H   UNL     1       8.850  -0.166  27.669  0.00  0.00    +0.144 HD
ATOM     10  C   UNL     1       7.990  -2.195  25.243  0.00  0.00    +0.082 A 
ATOM     11  C   UNL     1       8.886  -2.555  24.204  0.00  0.00    +0.080 A 
ATOM     12  N   UNL     1       8.351  -3.477  23.386  0.00  0.00    -0.173 NA
ENDROOT
BRANCH   1  14
ATOM     13  C   UNL     1       6.977  -5.298  22.030  0.00  0.00    +0.036 C 
ATOM     14  C   UNL     1       6.210  -4.645  23.192  0.00  0.00    +0.058 C 
ATOM     15  C   UNL     1       5.695  -5.739  24.151  0.00  0.00    +0.036 C 
ATOM     16  C   UNL     1       4.952  -3.944  22.618  0.00  0.00    +0.036 C 
ENDBRANCH   1  14
BRANCH  11  17
ATOM     17  C   UNL     1      10.245  -2.006  23.902  0.00  0.00    +0.093 C 
BRANCH  17  18
ATOM     18  C   UNL     1      10.134  -0.591  23.365  0.00  0.00    -0.038 A 
ATOM     19  C   UNL     1      10.761   0.443  24.089  0.00  0.00    +0.004 A 
ATOM     20  C   UNL     1      10.664   1.776  23.681  0.00  0.00    +0.004 A 
ATOM     21  C   UNL     1       9.939   2.102  22.540  0.00  0.00    +0.045 A 
ATOM     22  C   UNL     1       9.298   1.096  21.830  0.00  0.00    +0.117 A 
ATOM     23  C   UNL     1       9.360  -0.234  22.247  0.00  0.00    +0.049 A 
BRANCH  22  24
ATOM     24  O   UNL     1       8.600   1.458  20.714  0.00  0.00    -0.507 OA
ATOM     25  H   UNL     1       8.420   0.657  20.195  0.00  0.00    +0.292 HD
ENDBRANCH  22  24
ENDBRANCH  17  18
ENDBRANCH  11  17
TORSDOF 4
ENDMDL
MODEL 3
REMARK VINA RESULT:      -6.8      2.259      2.699
REMARK  Name = 
REMARK  7 active torsions:
REMARK  status: ('A' for Active; 'I' for Inactive)
REMARK    1  A    between atoms: C_1  and  C_2
REMARK    2  A    between atoms: C_2  and  C_3
REMARK    3  A    between atoms: C_2  and  C_4
REMARK    4  A    between atoms: C_2  and  N_5
REMARK    5  A    between atoms: C_7  and  C_8
REMARK    6  A    between atoms: C_8  and  C_9
REMARK    7  A    between atoms: C_11  and  O_12
REMARK                            x       y       z     vdW  Elec       q    Type
REMARK                         _______ _______ _______ _____ _____    ______ ____
ROOT
ATOM      1  N   UNL     1       6.739  -2.114  25.825  0.00  0.00    -0.241 N 
ATOM      2  C   UNL     1       6.985  -3.377  26.314  0.00  0.00    +0.164 A 
ATOM      3  N   UNL     1       6.248  -4.066  27.205  0.00  0.00    -0.216 NA
ATOM      4  C   UNL     1       6.807  -5.249  27.500  0.00  0.00    +0.225 A 
ATOM      5  N   UNL     1       7.946  -5.772  27.013  0.00  0.00    -0.220 NA
ATOM      6  C   UNL     1       8.648  -5.057  26.110  0.00  0.00    +0.130 A 
ATOM      7  N   UNL     1       9.810  -5.641  25.619  0.00  0.00    -0.342 N 
ATOM      8  H   UNL     1      10.010  -5.428  24.651  0.00  0.00    +0.144 HD
ATOM      9  H   UNL     1       9.820  -6.629  25.849  0.00  0.00    +0.144 HD
ATOM     10  C   UNL     1       8.163  -3.803  25.722  0.00  0.00    +0.082 A 
ATOM     11  C   UNL     1       8.539  -2.744  24.856  0.00  0.00    +0.080 A 
ATOM     12  N   UNL     1       7.655  -1.734  24.898  0.00  0.00    -0.173 NA
ENDROOT
BRANCH   1  14
ATOM     13  C   UNL     1       5.616  -0.045  25.141  0.00  0.00    +0.036 C 
ATOM     14  C   UNL     1       5.603  -1.224  26.128  0.00  0.00    +0.058 C 
ATOM     15  C   UNL     1       4.243  -1.951  26.046  0.00  0.00    +0.036 C 
ATOM     16  C   UNL     1       5.708  -0.660  27.568  0.00  0.00    +0.036 C 
ENDBRANCH   1  14
BRANCH  11  17
ATOM     17  C   UNL     1       9.766  -2.612  24.010  0.00  0.00    +0.093 C 
BRANCH  17  18
ATOM     18  C   UNL     1       9.807  -1.245  23.351  0.00  0.00    -0.038 A 
ATOM     19  C   UNL     1       9.367  -1.140  22.016  0.00  0.00    +0.004 A 
ATOM     20  C   UNL     1       9.419   0.075  21.329  0.00  0.00    +0.004 A 
ATOM     21  C   UNL     1       9.910   1.211  21.964  0.00  0.00    +0.045 A 
ATOM     22  C   UNL     1      10.369   1.116  23.271  0.00  0.00    +0.117 A 
ATOM     23  C   UNL     1      10.353  -0.099  23.955  0.00  0.00    +0.049 A 
BRANCH  22  24
ATOM     24  O   UNL     1      10.841   2.256  23.858  0.00  0.00    -0.507 OA
ATOM     25  H   UNL     1      11.287   2.008  24.684  0.00  0.00    +0.292 HD
ENDBRANCH  22  24
ENDBRANCH  17  18
ENDBRANCH  11  17
TORSDOF 4
ENDMDL
MODEL 4
REMARK VINA RESULT:      -6.6      1.972      2.761
REMARK  Name = 
REMARK  7 active torsions:
REMARK  status: ('A' for Active; 'I' for Inactive)
REMARK    1  A    between atoms: C_1  and  C_2
REMARK    2  A    between atoms: C_2  and  C_3
REMARK    3  A    between atoms: C_2  and  C_4
REMARK    4  A    between atoms: C_2  and  N_5
REMARK    5  A    between atoms: C_7  and  C_8
REMARK    6  A    between atoms: C_8  and  C_9
REMARK    7  A    between atoms: C_11  and  O_12
REMARK                            x       y       z     vdW  Elec       q    Type
REMARK                         _______ _______ _______ _____ _____    ______ ____
ROOT
ATOM      1  N   UNL     1       4.806  -5.793  24.823  0.00  0.00    -0.241 N 
ATOM      2  C   UNL     1       5.516  -5.845  26.001  0.00  0.00    +0.164 A 
ATOM      3  N   UNL     1       5.053  -6.174  27.220  0.00  0.00    -0.216 NA
ATOM      4  C   UNL     1       6.007  -6.069  28.157  0.00  0.00    +0.225 A 
ATOM      5  N   UNL     1       7.291  -5.703  27.995  0.00  0.00    -0.220 NA
ATOM      6  C   UNL     1       7.721  -5.395  26.754  0.00  0.00    +0.130 A 
ATOM      7  N   UNL     1       9.059  -5.039  26.627  0.00  0.00    -0.342 N 
ATOM      8  H   UNL     1       9.492  -5.336  25.764  0.00  0.00    +0.144 HD
ATOM      9  H   UNL     1       9.563  -5.297  27.469  0.00  0.00    +0.144 HD
ATOM     10  C   UNL     1       6.814  -5.468  25.691  0.00  0.00    +0.082 A 
ATOM     11  C   UNL     1       6.804  -5.245  24.290  0.00  0.00    +0.080 A 
ATOM     12  N   UNL     1       5.590  -5.473  23.762  0.00  0.00    -0.173 NA
ENDROOT
BRANCH   1  14
ATOM     13  C   UNL     1       3.065  -5.958  23.105  0.00  0.00    +0.036 C 
ATOM     14  C   UNL     1       3.383  -6.113  24.602  0.00  0.00    +0.058 C 
ATOM     15  C   UNL     1       3.018  -7.540  25.063  0.00  0.00    +0.036 C 
ATOM     16  C   UNL     1       2.467  -5.151  25.400  0.00  0.00    +0.036 C 
ENDBRANCH   1  14
BRANCH  11  17
ATOM     17  C   UNL     1       7.907  -4.750  23.409  0.00  0.00    +0.093 C 
BRANCH  17  18
ATOM     18  C   UNL     1       8.056  -3.246  23.545  0.00  0.00    -0.038 A 
ATOM     19  C   UNL     1       9.285  -2.743  24.016  0.00  0.00    +0.004 A 
ATOM     20  C   UNL     1       9.481  -1.373  24.210  0.00  0.00    +0.004 A 
ATOM     21  C   UNL     1       8.451  -0.478  23.935  0.00  0.00    +0.045 A 
ATOM     22  C   UNL     1       7.228  -0.963  23.493  0.00  0.00    +0.117 A 
ATOM     23  C   UNL     1       7.011  -2.331  23.327  0.00  0.00    +0.049 A 
BRANCH  22  24
ATOM     24  O   UNL     1       6.246  -0.051  23.233  0.00  0.00    -0.507 OA
ATOM     25  H   UNL     1       5.435  -0.536  23.007  0.00  0.00    +0.292 HD
ENDBRANCH  22  24
ENDBRANCH  17  18
ENDBRANCH  11  17
TORSDOF 4
ENDMDL
MODEL 5
REMARK VINA RESULT:      -6.5      4.740      6.829
REMARK  Name = 
REMARK  7 active torsions:
REMARK  status: ('A' for Active; 'I' for Inactive)
REMARK    1  A    between atoms: C_1  and  C_2
REMARK    2  A    between atoms: C_2  and  C_3
REMARK    3  A    between atoms: C_2  and  C_4
REMARK    4  A    between atoms: C_2  and  N_5
REMARK    5  A    between atoms: C_7  and  C_8
REMARK    6  A    between atoms: C_8  and  C_9
REMARK    7  A    between atoms: C_11  and  O_12
REMARK                            x       y       z     vdW  Elec       q    Type
REMARK                         _______ _______ _______ _____ _____    ______ ____
ROOT
ATOM      1  N   UNL     1       8.723   1.156  23.635  0.00  0.00    -0.241 N 
ATOM      2  C   UNL     1       8.157   1.376  24.870  0.00  0.00    +0.164 A 
ATOM      3  N   UNL     1       7.746   0.451  25.757  0.00  0.00    -0.216 NA
ATOM      4  C   UNL     1       7.191   1.016  26.839  0.00  0.00    +0.225 A 
ATOM      5  N   UNL     1       7.032   2.325  27.102  0.00  0.00    -0.220 NA
ATOM      6  C   UNL     1       7.470   3.222  26.194  0.00  0.00    +0.130 A 
ATOM      7  N   UNL     1       7.302   4.564  26.512  0.00  0.00    -0.342 N 
ATOM      8  H   UNL     1       8.042   5.170  26.181  0.00  0.00    +0.144 HD
ATOM      9  H   UNL     1       7.082   4.658  27.497  0.00  0.00    +0.144 HD
ATOM     10  C   UNL     1       8.070   2.752  25.020  0.00  0.00    +0.082 A 
ATOM     11  C   UNL     1       8.646   3.285  23.839  0.00  0.00    +0.080 A 
ATOM     12  N   UNL     1       9.070   2.313  23.014  0.00  0.00    -0.173 NA
ENDROOT
BRANCH   1  14
ATOM     13  C   UNL     1      10.070  -0.879  23.869  0.00  0.00    +0.036 C 
ATOM     14  C   UNL     1       9.047  -0.134  22.996  0.00  0.00    +0.058 C 
ATOM     15  C   UNL     1       7.800  -1.021  22.790  0.00  0.00    +0.036 C 
ATOM     16  C   UNL     1       9.664   0.082  21.591  0.00  0.00    +0.036 C 
ENDBRANCH   1  14
BRANCH  11  17
ATOM     17  C   UNL     1       8.763   4.713  23.411  0.00  0.00    +0.093 C 
BRANCH  17  18
ATOM     18  C   UNL     1      10.068   5.308  23.908  0.00  0.00    -0.038 A 
ATOM     19  C   UNL     1      10.004   6.322  24.884  0.00  0.00    +0.004 A 
ATOM     20  C   UNL     1      11.161   6.948  25.356  0.00  0.00    +0.004 A 
ATOM     21  C   UNL     1      12.405   6.571  24.862  0.00  0.00    +0.045 A 
ATOM     22  C   UNL     1      12.480   5.590  23.883  0.00  0.00    +0.117 A 
ATOM     23  C   UNL     1      11.329   4.982  23.381  0.00  0.00    +0.049 A 
BRANCH  22  24
ATOM     24  O   UNL     1      13.721   5.248  23.427  0.00  0.00    -0.507 OA
ATOM     25  H   UNL     1      13.840   5.643  22.548  0.00  0.00    +0.292 HD
ENDBRANCH  22  24
ENDBRANCH  17  18
ENDBRANCH  11  17
TORSDOF 4
ENDMDL
MODEL 6
REMARK VINA RESULT:      -6.5      3.321      6.348
REMARK  Name = 
REMARK  7 active torsions:
REMARK  status: ('A' for Active; 'I' for Inactive)
REMARK    1  A    between atoms: C_1  and  C_2
REMARK    2  A    between atoms: C_2  and  C_3
REMARK    3  A    between atoms: C_2  and  C_4
REMARK    4  A    between atoms: C_2  and  N_5
REMARK    5  A    between atoms: C_7  and  C_8
REMARK    6  A    between atoms: C_8  and  C_9
REMARK    7  A    between atoms: C_11  and  O_12
REMARK                            x       y       z     vdW  Elec       q    Type
REMARK                         _______ _______ _______ _____ _____    ______ ____
ROOT
ATOM      1  N   UNL     1       7.736   0.529  25.081  0.00  0.00    -0.241 N 
ATOM      2  C   UNL     1       8.027   0.841  23.772  0.00  0.00    +0.164 A 
ATOM      3  N   UNL     1       7.643   1.933  23.088  0.00  0.00    -0.216 NA
ATOM      4  C   UNL     1       8.061   1.891  21.814  0.00  0.00    +0.225 A 
ATOM      5  N   UNL     1       8.785   0.932  21.210  0.00  0.00    -0.220 NA
ATOM      6  C   UNL     1       9.164  -0.140  21.935  0.00  0.00    +0.130 A 
ATOM      7  N   UNL     1       9.926  -1.100  21.279  0.00  0.00    -0.342 N 
ATOM      8  H   UNL     1      10.623  -1.550  21.856  0.00  0.00    +0.144 HD
ATOM      9  H   UNL     1      10.277  -0.720  20.405  0.00  0.00    +0.144 HD
ATOM     10  C   UNL     1       8.787  -0.210  23.281  0.00  0.00    +0.082 A 
ATOM     11  C   UNL     1       8.938  -1.095  24.379  0.00  0.00    +0.080 A 
ATOM     12  N   UNL     1       8.325  -0.628  25.479  0.00  0.00    -0.173 NA
ENDROOT
BRANCH   1  14
ATOM     13  C   UNL     1       5.488   1.343  25.625  0.00  0.00    +0.036 C 
ATOM     14  C   UNL     1       6.964   1.321  26.057  0.00  0.00    +0.058 C 
ATOM     15  C   UNL     1       7.073   0.763  27.492  0.00  0.00    +0.036 C 
ATOM     16  C   UNL     1       7.479   2.782  26.119  0.00  0.00    +0.036 C 
ENDBRANCH   1  14
BRANCH  11  17
ATOM     17  C   UNL     1       9.604  -2.434  24.422  0.00  0.00    +0.093 C 
BRANCH  17  18
ATOM     18  C   UNL     1       8.619  -3.499  24.868  0.00  0.00    -0.038 A 
ATOM     19  C   UNL     1       7.491  -3.738  24.058  0.00  0.00    +0.004 A 
ATOM     20  C   UNL     1       6.518  -4.670  24.426  0.00  0.00    +0.004 A 
ATOM     21  C   UNL     1       6.653  -5.383  25.613  0.00  0.00    +0.045 A 
ATOM     22  C   UNL     1       7.748  -5.140  26.432  0.00  0.00    +0.117 A 
ATOM     23  C   UNL     1       8.708  -4.188  26.090  0.00  0.00    +0.049 A 
BRANCH  22  24
ATOM     24  O   UNL     1       7.844  -5.864  27.586  0.00  0.00    -0.507 OA
ATOM     25  H   UNL     1       8.513  -5.444  28.152  0.00  0.00    +0.292 HD
ENDBRANCH  22  24
ENDBRANCH  17  18
ENDBRANCH  11  17
TORSDOF 4
ENDMDL
MODEL 7
REMARK VINA RESULT:      -6.4      2.465      3.443
REMARK  Name = 
REMARK  7 active torsions:
REMARK  status: ('A' for Active; 'I' for Inactive)
REMARK    1  A    between atoms: C_1  and  C_2
REMARK    2  A    between atoms: C_2  and  C_3
REMARK    3  A    between atoms: C_2  and  C_4
REMARK    4  A    between atoms: C_2  and  N_5
REMARK    5  A    between atoms: C_7  and  C_8
REMARK    6  A    between atoms: C_8  and  C_9
REMARK    7  A    between atoms: C_11  and  O_12
REMARK                            x       y       z     vdW  Elec       q    Type
REMARK                         _______ _______ _______ _____ _____    ______ ____
ROOT
ATOM      1  N   UNL     1       7.419  -2.548  23.259  0.00  0.00    -0.241 N 
ATOM      2  C   UNL     1       7.874  -2.173  24.503  0.00  0.00    +0.164 A 
ATOM      3  N   UNL     1       7.500  -2.673  25.694  0.00  0.00    -0.216 NA
ATOM      4  C   UNL     1       8.106  -2.039  26.710  0.00  0.00    +0.225 A 
ATOM      5  N   UNL     1       8.996  -1.033  26.645  0.00  0.00    -0.220 NA
ATOM      6  C   UNL     1       9.356  -0.569  25.431  0.00  0.00    +0.130 A 
ATOM      7  N   UNL     1      10.291   0.459  25.408  0.00  0.00    -0.342 N 
ATOM      8  H   UNL     1      10.931   0.428  24.626  0.00  0.00    +0.144 HD
ATOM      9  H   UNL     1      10.733   0.541  26.318  0.00  0.00    +0.144 HD
ATOM     10  C   UNL     1       8.790  -1.154  24.293  0.00  0.00    +0.082 A 
ATOM     11  C   UNL     1       8.854  -1.006  22.883  0.00  0.00    +0.080 A 
ATOM     12  N   UNL     1       8.043  -1.876  22.258  0.00  0.00    -0.173 NA
ENDROOT
BRANCH   1  14
ATOM     13  C   UNL     1       7.050  -4.971  23.265  0.00  0.00    +0.036 C 
ATOM     14  C   UNL     1       6.442  -3.601  22.925  0.00  0.00    +0.058 C 
ATOM     15  C   UNL     1       5.105  -3.428  23.677  0.00  0.00    +0.036 C 
ATOM     16  C   UNL     1       6.096  -3.578  21.414  0.00  0.00    +0.036 C 
ENDBRANCH   1  14
BRANCH  11  17
ATOM     17  C   UNL     1       9.623  -0.008  22.076  0.00  0.00    +0.093 C 
BRANCH  17  18
ATOM     18  C   UNL     1       9.061   1.386  22.286  0.00  0.00    -0.038 A 
ATOM     19  C   UNL     1       9.840   2.312  23.008  0.00  0.00    +0.004 A 
ATOM     20  C   UNL     1       9.369   3.599  23.280  0.00  0.00    +0.004 A 
ATOM     21  C   UNL     1       8.110   3.986  22.834  0.00  0.00    +0.045 A 
ATOM     22  C   UNL     1       7.323   3.076  22.142  0.00  0.00    +0.117 A 
ATOM     23  C   UNL     1       7.769   1.778  21.893  0.00  0.00    +0.049 A 
BRANCH  22  24
ATOM     24  O   UNL     1       6.095   3.498  21.719  0.00  0.00    -0.507 OA
ATOM     25  H   UNL     1       5.420   2.961  22.165  0.00  0.00    +0.292 HD
ENDBRANCH  22  24
ENDBRANCH  17  18
ENDBRANCH  11  17
TORSDOF 4
ENDMDL
MODEL 8
REMARK VINA RESULT:      -6.4      3.388      6.380
REMARK  Name = 
REMARK  7 active torsions:
REMARK  status: ('A' for Active; 'I' for Inactive)
REMARK    1  A    between atoms: C_1  and  C_2
REMARK    2  A    between atoms: C_2  and  C_3
REMARK    3  A    between atoms: C_2  and  C_4
REMARK    4  A    between atoms: C_2  and  N_5
REMARK    5  A    between atoms: C_7  and  C_8
REMARK    6  A    between atoms: C_8  and  C_9
REMARK    7  A    between atoms: C_11  and  O_12
REMARK                            x       y       z     vdW  Elec       q    Type
REMARK                         _______ _______ _______ _____ _____    ______ ____
ROOT
ATOM      1  N   UNL     1       6.809   0.833  24.357  0.00  0.00    -0.241 N 
ATOM      2  C   UNL     1       7.940   1.041  23.601  0.00  0.00    +0.164 A 
ATOM      3  N   UNL     1       8.680   2.161  23.528  0.00  0.00    -0.216 NA
ATOM      4  C   UNL     1       9.686   2.034  22.650  0.00  0.00    +0.225 A 
ATOM      5  N   UNL     1      10.003   0.963  21.902  0.00  0.00    -0.220 NA
ATOM      6  C   UNL     1       9.245  -0.148  22.014  0.00  0.00    +0.130 A 
ATOM      7  N   UNL     1       9.617  -1.238  21.237  0.00  0.00    -0.342 N 
ATOM      8  H   UNL     1       9.459  -2.137  21.672  0.00  0.00    +0.144 HD
ATOM      9  H   UNL     1      10.554  -1.097  20.875  0.00  0.00    +0.144 HD
ATOM     10  C   UNL     1       8.164  -0.136  22.902  0.00  0.00    +0.082 A 
ATOM     11  C   UNL     1       7.136  -1.015  23.331  0.00  0.00    +0.080 A 
ATOM     12  N   UNL     1       6.334  -0.433  24.238  0.00  0.00    -0.173 NA
ENDROOT
BRANCH   1  14
ATOM     13  C   UNL     1       7.170   2.205  26.357  0.00  0.00    +0.036 C 
ATOM     14  C   UNL     1       6.152   1.768  25.290  0.00  0.00    +0.058 C 
ATOM     15  C   UNL     1       5.584   3.014  24.577  0.00  0.00    +0.036 C 
ATOM     16  C   UNL     1       4.954   1.091  26.002  0.00  0.00    +0.036 C 
ENDBRANCH   1  14
BRANCH  11  17
ATOM     17  C   UNL     1       6.830  -2.403  22.863  0.00  0.00    +0.093 C 
BRANCH  17  18
ATOM     18  C   UNL     1       7.339  -3.422  23.866  0.00  0.00    -0.038 A 
ATOM     19  C   UNL     1       6.422  -3.952  24.795  0.00  0.00    +0.004 A 
ATOM     20  C   UNL     1       6.826  -4.860  25.777  0.00  0.00    +0.004 A 
ATOM     21  C   UNL     1       8.158  -5.256  25.849  0.00  0.00    +0.045 A 
ATOM     22  C   UNL     1       9.076  -4.723  24.955  0.00  0.00    +0.117 A 
ATOM     23  C   UNL     1       8.689  -3.792  23.992  0.00  0.00    +0.049 A 
BRANCH  22  24
ATOM     24  O   UNL     1      10.372  -5.142  25.059  0.00  0.00    -0.507 OA
ATOM     25  H   UNL     1      10.454  -5.993  24.600  0.00  0.00    +0.292 HD
ENDBRANCH  22  24
ENDBRANCH  17  18
ENDBRANCH  11  17
TORSDOF 4
ENDMDL
MODEL 9
REMARK VINA RESULT:      -6.4      2.009      2.476
REMARK  Name = 
REMARK  7 active torsions:
REMARK  status: ('A' for Active; 'I' for Inactive)
REMARK    1  A    between atoms: C_1  and  C_2
REMARK    2  A    between atoms: C_2  and  C_3
REMARK    3  A    between atoms: C_2  and  C_4
REMARK    4  A    between atoms: C_2  and  N_5
REMARK    5  A    between atoms: C_7  and  C_8
REMARK    6  A    between atoms: C_8  and  C_9
REMARK    7  A    between atoms: C_11  and  O_12
REMARK                            x       y       z     vdW  Elec       q    Type
REMARK                         _______ _______ _______ _____ _____    ______ ____
ROOT
ATOM      1  N   UNL     1       5.658  -4.369  24.283  0.00  0.00    -0.241 N 
ATOM      2  C   UNL     1       6.692  -4.367  25.191  0.00  0.00    +0.164 A 
ATOM      3  N   UNL     1       7.191  -5.420  25.864  0.00  0.00    -0.216 NA
ATOM      4  C   UNL     1       8.164  -5.050  26.710  0.00  0.00    +0.225 A 
ATOM      5  N   UNL     1       8.656  -3.817  26.919  0.00  0.00    -0.220 NA
ATOM      6  C   UNL     1       8.140  -2.789  26.214  0.00  0.00    +0.130 A 
ATOM      7  N   UNL     1       8.689  -1.534  26.447  0.00  0.00    -0.342 N 
ATOM      8  H   UNL     1       8.731  -0.936  25.633  0.00  0.00    +0.144 HD
ATOM      9  H   UNL     1       9.563  -1.631  26.952  0.00  0.00    +0.144 HD
ATOM     10  C   UNL     1       7.116  -3.051  25.297  0.00  0.00    +0.082 A 
ATOM     11  C   UNL     1       6.303  -2.332  24.383  0.00  0.00    +0.080 A 
ATOM     12  N   UNL     1       5.440  -3.141  23.747  0.00  0.00    -0.173 NA
ENDROOT
BRANCH   1  14
ATOM     13  C   UNL     1       4.646  -6.493  24.973  0.00  0.00    +0.036 C 
ATOM     14  C   UNL     1       4.867  -5.519  23.804  0.00  0.00    +0.058 C 
ATOM     15  C   UNL     1       3.503  -5.097  23.218  0.00  0.00    +0.036 C 
ATOM     16  C   UNL     1       5.612  -6.272  22.672  0.00  0.00    +0.036 C 
ENDBRANCH   1  14
BRANCH  11  17
ATOM     17  C   UNL     1       6.260  -0.860  24.119  0.00  0.00    +0.093 C 
BRANCH  17  18
ATOM     18  C   UNL     1       7.349  -0.468  23.138  0.00  0.00    -0.038 A 
ATOM     19  C   UNL     1       8.155  -1.491  22.599  0.00  0.00    +0.004 A 
ATOM     20  C   UNL     1       9.206  -1.202  21.725  0.00  0.00    +0.004 A 
ATOM     21  C   UNL     1       9.471   0.117  21.371  0.00  0.00    +0.045 A 
ATOM     22  C   UNL     1       8.700   1.136  21.913  0.00  0.00    +0.117 A 
ATOM     23  C   UNL     1       7.670   0.861  22.812  0.00  0.00    +0.049 A 
BRANCH  22  24
ATOM     24  O   UNL     1       8.993   2.416  21.537  0.00  0.00    -0.507 OA
ATOM     25  H   UNL     1       8.797   2.506  20.590  0.00  0.00    +0.292 HD
ENDBRANCH  22  24
ENDBRANCH  17  18
ENDBRANCH  11  17
TORSDOF 4
ENDMDL
