MODEL 1
REMARK VINA RESULT:      -7.3      0.000      0.000
REMARK  Name = 
REMARK  8 active torsions:
REMARK  status: ('A' for Active; 'I' for Inactive)
REMARK    1  A    between atoms: C_1  and  O_2
REMARK    2  A    between atoms: O_2  and  C_3
REMARK    3  A    between atoms: C_5  and  C_6
REMARK    4  A    between atoms: C_6  and  N_7
REMARK    5  A    between atoms: N_7  and  C_8
REMARK    6  A    between atoms: N_7  and  C_9
REMARK    7  A    between atoms: C_21  and  O_22
REMARK    8  A    between atoms: O_22  and  C_23
REMARK                            x       y       z     vdW  Elec       q    Type
REMARK                         _______ _______ _______ _____ _____    ______ ____
ROOT
ATOM      1  C   UNL     1       8.771  -2.494  25.609  0.00  0.00    +0.031 A 
ATOM      2  C   UNL     1       9.213  -2.185  24.313  0.00  0.00    +0.036 A 
ATOM      3  C   UNL     1       9.474  -0.851  23.890  0.00  0.00    +0.042 A 
ATOM      4  C   UNL     1       9.339   0.203  24.790  0.00  0.00    +0.078 A 
ATOM      5  N   UNL     1       9.547   1.478  24.454  0.00  0.00    -0.215 NA
ATOM      6  C   UNL     1       9.869   1.732  23.187  0.00  0.00    +0.215 A 
ATOM      7  N   UNL     1      10.064   0.812  22.243  0.00  0.00    -0.199 NA
ATOM      8  N   UNL     1      10.031   3.057  22.832  0.00  0.00    -0.327 N 
ATOM      9  H   UNL     1      10.636   3.124  22.025  0.00  0.00    +0.145 HD
ATOM     10  H   UNL     1      10.278   3.595  23.649  0.00  0.00    +0.145 HD
ATOM     11  C   UNL     1       8.960  -0.099  26.086  0.00  0.00    +0.030 A 
ATOM     12  C   UNL     1       9.858  -0.464  22.602  0.00  0.00    +0.129 A 
ATOM     13  N   UNL     1      10.077  -1.403  21.583  0.00  0.00    -0.343 N 
ATOM     14  H   UNL     1       9.265  -1.996  21.454  0.00  0.00    +0.144 HD
ATOM     15  H   UNL     1      10.290  -0.875  20.740  0.00  0.00    +0.144 HD
ATOM     16  C   UNL     1       8.669  -1.411  26.488  0.00  0.00    +0.025 A 
ENDROOT
BRANCH   1  17
ATOM     17  N   UNL     1       8.453  -3.789  25.999  0.00  0.00    -0.328 N 
ATOM     18  C   UNL     1       9.281  -4.920  25.591  0.00  0.00    +0.129 C 
BRANCH  17  19
ATOM     19  C   UNL     1       7.137  -4.121  26.588  0.00  0.00    +0.143 C 
BRANCH  19  24
ATOM     20  C   UNL     1       4.924  -4.822  23.515  0.00  0.00    +0.121 A 
ATOM     21  C   UNL     1       4.394  -6.065  23.840  0.00  0.00    +0.049 A 
ATOM     22  C   UNL     1       4.725  -6.663  25.053  0.00  0.00    +0.049 A 
ATOM     23  C   UNL     1       5.597  -6.030  25.948  0.00  0.00    +0.125 A 
ATOM     24  C   UNL     1       6.116  -4.750  25.645  0.00  0.00    +0.015 A 
ATOM     25  C   UNL     1       5.736  -4.149  24.430  0.00  0.00    +0.054 A 
BRANCH  20  27
ATOM     26  C   UNL     1       5.659  -3.196  22.021  0.00  0.00    +0.277 C 
ATOM     27  O   UNL     1       4.688  -4.199  22.320  0.00  0.00    -0.495 OA
ENDBRANCH  20  27
BRANCH  23  28
ATOM     28  O   UNL     1       6.007  -6.593  27.132  0.00  0.00    -0.495 OA
ATOM     29  C   UNL     1       5.000  -6.836  28.111  0.00  0.00    +0.277 C 
ENDBRANCH  23  28
ENDBRANCH  19  24
ENDBRANCH  17  19
ENDBRANCH   1  17
TORSDOF 5
ENDMDL
MODEL 2
REMARK VINA RESULT:      -7.3      0.965      1.933
REMARK  Name = 
REMARK  8 active torsions:
REMARK  status: ('A' for Active; 'I' for Inactive)
REMARK    1  A    between atoms: C_1  and  O_2
REMARK    2  A    between atoms: O_2  and  C_3
REMARK    3  A    between atoms: C_5  and  C_6
REMARK    4  A    between atoms: C_6  and  N_7
REMARK    5  A    between atoms: N_7  and  C_8
REMARK    6  A    between atoms: N_7  and  C_9
REMARK    7  A    between atoms: C_21  and  O_22
REMARK    8  A    between atoms: O_22  and  C_23
REMARK                            x       y       z     vdW  Elec       q    Type
REMARK                         _______ _______ _______ _____ _____    ______ ____
ROOT
ATOM      1  C   UNL     1       9.065  -2.691  24.946  0.00  0.00    +0.031 A 
ATOM      2  C   UNL     1       8.681  -1.407  25.365  0.00  0.00    +0.036 A 
ATOM      3  C   UNL     1       9.091  -0.225  24.685  0.00  0.00    +0.042 A 
ATOM      4  C   UNL     1       9.864  -0.318  23.532  0.00  0.00    +0.078 A 
ATOM      5  N   UNL     1      10.301   0.750  22.859  0.00  0.00    -0.215 NA
ATOM      6  C   UNL     1       9.993   1.949  23.349  0.00  0.00    +0.215 A 
ATOM      7  N   UNL     1       9.232   2.170  24.421  0.00  0.00    -0.199 NA
ATOM      8  N   UNL     1      10.492   3.049  22.680  0.00  0.00    -0.327 N 
ATOM      9  H   UNL     1       9.908   3.854  22.862  0.00  0.00    +0.145 HD
ATOM     10  H   UNL     1      10.665   2.804  21.717  0.00  0.00    +0.145 HD
ATOM     11  C   UNL     1      10.199  -1.582  23.079  0.00  0.00    +0.030 A 
ATOM     12  C   UNL     1       8.797   1.085  25.078  0.00  0.00    +0.129 A 
ATOM     13  N   UNL     1       7.996   1.358  26.197  0.00  0.00    -0.343 N 
ATOM     14  H   UNL     1       8.362   0.906  27.027  0.00  0.00    +0.144 HD
ATOM     15  H   UNL     1       7.977   2.370  26.302  0.00  0.00    +0.144 HD
ATOM     16  C   UNL     1       9.823  -2.742  23.772  0.00  0.00    +0.025 A 
ENDROOT
BRANCH   1  17
ATOM     17  N   UNL     1       8.719  -3.838  25.649  0.00  0.00    -0.328 N 
ATOM     18  C   UNL     1       9.562  -5.030  25.600  0.00  0.00    +0.129 C 
BRANCH  17  19
ATOM     19  C   UNL     1       7.372  -4.012  26.235  0.00  0.00    +0.143 C 
BRANCH  19  24
ATOM     20  C   UNL     1       5.304  -5.344  23.272  0.00  0.00    +0.121 A 
ATOM     21  C   UNL     1       4.683  -6.445  23.848  0.00  0.00    +0.049 A 
ATOM     22  C   UNL     1       4.906  -6.743  25.190  0.00  0.00    +0.049 A 
ATOM     23  C   UNL     1       5.761  -5.950  25.966  0.00  0.00    +0.125 A 
ATOM     24  C   UNL     1       6.372  -4.806  25.401  0.00  0.00    +0.015 A 
ATOM     25  C   UNL     1       6.101  -4.504  24.054  0.00  0.00    +0.054 A 
BRANCH  20  27
ATOM     26  C   UNL     1       6.158  -5.655  21.129  0.00  0.00    +0.277 C 
ATOM     27  O   UNL     1       5.176  -5.021  21.948  0.00  0.00    -0.495 OA
ENDBRANCH  20  27
BRANCH  23  28
ATOM     28  O   UNL     1       6.067  -6.225  27.276  0.00  0.00    -0.495 OA
ATOM     29  C   UNL     1       5.022  -6.768  28.080  0.00  0.00    +0.277 C 
ENDBRANCH  23  28
ENDBRANCH  19  24
ENDBRANCH  17  19
ENDBRANCH   1  17
TORSDOF 5
ENDMDL
MODEL 3
REMARK VINA RESULT:      -6.9      3.264      7.549
REMARK  Name = 
REMARK  8 active torsions:
REMARK  status: ('A' for Active; 'I' for Inactive)
REMARK    1  A    between atoms: C_1  and  O_2
REMARK    2  A    between atoms: O_2  and  C_3
REMARK    3  A    between atoms: C_5  and  C_6
REMARK    4  A    between atoms: C_6  and  N_7
REMARK    5  A    between atoms: N_7  and  C_8
REMARK    6  A    between atoms: N_7  and  C_9
REMARK    7  A    between atoms: C_21  and  O_22
REMARK    8  A    between atoms: O_22  and  C_23
REMARK                            x       y       z     vdW  Elec       q    Type
REMARK                         _______ _______ _______ _____ _____    ______ ____
ROOT
ATOM      1  C   UNL     1       8.118  -2.735  23.829  0.00  0.00    +0.031 A 
ATOM      2  C   UNL     1       8.134  -3.665  24.880  0.00  0.00    +0.036 A 
ATOM      3  C   UNL     1       7.085  -4.605  25.087  0.00  0.00    +0.042 A 
ATOM      4  C   UNL     1       6.013  -4.658  24.201  0.00  0.00    +0.078 A 
ATOM      5  N   UNL     1       4.987  -5.499  24.349  0.00  0.00    -0.215 NA
ATOM      6  C   UNL     1       4.998  -6.295  25.416  0.00  0.00    +0.215 A 
ATOM      7  N   UNL     1       5.980  -6.366  26.315  0.00  0.00    -0.199 NA
ATOM      8  N   UNL     1       3.909  -7.125  25.593  0.00  0.00    -0.327 N 
ATOM      9  H   UNL     1       4.175  -7.927  26.150  0.00  0.00    +0.145 HD
ATOM     10  H   UNL     1       3.472  -7.300  24.700  0.00  0.00    +0.145 HD
ATOM     11  C   UNL     1       6.018  -3.784  23.129  0.00  0.00    +0.030 A 
ATOM     12  C   UNL     1       7.005  -5.518  26.144  0.00  0.00    +0.129 A 
ATOM     13  N   UNL     1       8.021  -5.624  27.106  0.00  0.00    -0.343 N 
ATOM     14  H   UNL     1       8.207  -4.728  27.541  0.00  0.00    +0.144 HD
ATOM     15  H   UNL     1       7.706  -6.310  27.789  0.00  0.00    +0.144 HD
ATOM     16  C   UNL     1       7.036  -2.835  22.949  0.00  0.00    +0.025 A 
ENDROOT
BRANCH   1  17
ATOM     17  N   UNL     1       9.110  -1.774  23.668  0.00  0.00    -0.328 N 
ATOM     18  C   UNL     1       9.888  -1.699  22.434  0.00  0.00    +0.129 C 
BRANCH  17  19
ATOM     19  C   UNL     1       9.616  -0.985  24.812  0.00  0.00    +0.143 C 
BRANCH  19  24
ATOM     20  C   UNL     1      10.413   2.682  23.944  0.00  0.00    +0.121 A 
ATOM     21  C   UNL     1       9.206   3.300  24.245  0.00  0.00    +0.049 A 
ATOM     22  C   UNL     1       8.149   2.548  24.750  0.00  0.00    +0.049 A 
ATOM     23  C   UNL     1       8.285   1.168  24.949  0.00  0.00    +0.125 A 
ATOM     24  C   UNL     1       9.519   0.532  24.679  0.00  0.00    +0.015 A 
ATOM     25  C   UNL     1      10.584   1.321  24.206  0.00  0.00    +0.054 A 
BRANCH  20  27
ATOM     26  C   UNL     1      11.337   4.764  23.467  0.00  0.00    +0.277 C 
ATOM     27  O   UNL     1      11.477   3.346  23.394  0.00  0.00    -0.495 OA
ENDBRANCH  20  27
BRANCH  23  28
ATOM     28  O   UNL     1       7.263   0.362  25.388  0.00  0.00    -0.495 OA
ATOM     29  C   UNL     1       6.063   0.370  24.620  0.00  0.00    +0.277 C 
ENDBRANCH  23  28
ENDBRANCH  19  24
ENDBRANCH  17  19
ENDBRANCH   1  17
TORSDOF 5
ENDMDL
MODEL 4
REMARK VINA RESULT:      -6.8      4.130      8.511
REMARK  Name = 
REMARK  8 active torsions:
REMARK  status: ('A' for Active; 'I' for Inactive)
REMARK    1  A    between atoms: C_1  and  O_2
REMARK    2  A    between atoms: O_2  and  C_3
REMARK    3  A    between atoms: C_5  and  C_6
REMARK    4  A    between atoms: C_6  and  N_7
REMARK    5  A    between atoms: N_7  and  C_8
REMARK    6  A    between atoms: N_7  and  C_9
REMARK    7  A    between atoms: C_21  and  O_22
REMARK    8  A    between atoms: O_22  and  C_23
REMARK                            x       y       z     vdW  Elec       q    Type
REMARK                         _______ _______ _______ _____ _____    ______ ____
ROOT
ATOM      1  C   UNL     1       8.752   0.070  23.267  0.00  0.00    +0.031 A 
ATOM      2  C   UNL     1       8.237  -0.576  24.402  0.00  0.00    +0.036 A 
ATOM      3  C   UNL     1       8.633  -1.889  24.783  0.00  0.00    +0.042 A 
ATOM      4  C   UNL     1       9.602  -2.564  24.045  0.00  0.00    +0.078 A 
ATOM      5  N   UNL     1      10.003  -3.804  24.334  0.00  0.00    -0.215 NA
ATOM      6  C   UNL     1       9.415  -4.414  25.361  0.00  0.00    +0.215 A 
ATOM      7  N   UNL     1       8.505  -3.864  26.164  0.00  0.00    -0.199 NA
ATOM      8  N   UNL     1       9.796  -5.715  25.622  0.00  0.00    -0.327 N 
ATOM      9  H   UNL     1       9.621  -5.936  26.593  0.00  0.00    +0.145 HD
ATOM     10  H   UNL     1      10.727  -5.869  25.267  0.00  0.00    +0.145 HD
ATOM     11  C   UNL     1      10.157  -1.912  22.958  0.00  0.00    +0.030 A 
ATOM     12  C   UNL     1       8.120  -2.615  25.863  0.00  0.00    +0.129 A 
ATOM     13  N   UNL     1       7.165  -2.069  26.733  0.00  0.00    -0.343 N 
ATOM     14  H   UNL     1       6.353  -1.740  26.222  0.00  0.00    +0.144 HD
ATOM     15  H   UNL     1       6.917  -2.803  27.392  0.00  0.00    +0.144 HD
ATOM     16  C   UNL     1       9.737  -0.632  22.567  0.00  0.00    +0.025 A 
ENDROOT
BRANCH   1  17
ATOM     17  N   UNL     1       8.314   1.325  22.861  0.00  0.00    -0.328 N 
ATOM     18  C   UNL     1       8.594   1.818  21.515  0.00  0.00    +0.129 C 
BRANCH  17  19
ATOM     19  C   UNL     1       7.807   2.321  23.830  0.00  0.00    +0.143 C 
BRANCH  19  24
ATOM     20  C   UNL     1      10.270   5.280  23.822  0.00  0.00    +0.121 A 
ATOM     21  C   UNL     1       9.480   6.290  23.287  0.00  0.00    +0.049 A 
ATOM     22  C   UNL     1       8.153   6.029  22.955  0.00  0.00    +0.049 A 
ATOM     23  C   UNL     1       7.607   4.753  23.145  0.00  0.00    +0.125 A 
ATOM     24  C   UNL     1       8.390   3.726  23.720  0.00  0.00    +0.015 A 
ATOM     25  C   UNL     1       9.717   4.025  24.083  0.00  0.00    +0.054 A 
BRANCH  20  27
ATOM     26  C   UNL     1      12.445   5.234  22.993  0.00  0.00    +0.277 C 
ATOM     27  O   UNL     1      11.596   5.448  24.120  0.00  0.00    -0.495 OA
ENDBRANCH  20  27
BRANCH  23  28
ATOM     28  O   UNL     1       6.325   4.417  22.785  0.00  0.00    -0.495 OA
ATOM     29  C   UNL     1       5.308   5.380  23.053  0.00  0.00    +0.277 C 
ENDBRANCH  23  28
ENDBRANCH  19  24
ENDBRANCH  17  19
ENDBRANCH   1  17
TORSDOF 5
ENDMDL
MODEL 5
REMARK VINA RESULT:      -6.8      3.149      7.584
REMARK  Name = 
REMARK  8 active torsions:
REMARK  status: ('A' for Active; 'I' for Inactive)
REMARK    1  A    between atoms: C_1  and  O_2
REMARK    2  A    between atoms: O_2  and  C_3
REMARK    3  A    between atoms: C_5  and  C_6
REMARK    4  A    between atoms: C_6  and  N_7
REMARK    5  A    between atoms: N_7  and  C_8
REMARK    6  A    between atoms: N_7  and  C_9
REMARK    7  A    between atoms: C_21  and  O_22
REMARK    8  A    between atoms: O_22  and  C_23
REMARK                            x       y       z     vdW  Elec       q    Type
REMARK                         _______ _______ _______ _____ _____    ______ ____
ROOT
ATOM      1  C   UNL     1       8.487  -2.040  23.642  0.00  0.00    +0.031 A 
ATOM      2  C   UNL     1       8.889  -2.943  24.640  0.00  0.00    +0.036 A 
ATOM      3  C   UNL     1       8.028  -3.955  25.149  0.00  0.00    +0.042 A 
ATOM      4  C   UNL     1       6.748  -4.109  24.624  0.00  0.00    +0.078 A 
ATOM      5  N   UNL     1       5.883  -5.023  25.071  0.00  0.00    -0.215 NA
ATOM      6  C   UNL     1       6.274  -5.792  26.085  0.00  0.00    +0.215 A 
ATOM      7  N   UNL     1       7.482  -5.767  26.648  0.00  0.00    -0.199 NA
ATOM      8  N   UNL     1       5.357  -6.698  26.577  0.00  0.00    -0.327 N 
ATOM      9  H   UNL     1       5.840  -7.464  27.028  0.00  0.00    +0.145 HD
ATOM     10  H   UNL     1       4.689  -6.925  25.856  0.00  0.00    +0.145 HD
ATOM     11  C   UNL     1       6.363  -3.261  23.600  0.00  0.00    +0.030 A 
ATOM     12  C   UNL     1       8.340  -4.848  26.181  0.00  0.00    +0.129 A 
ATOM     13  N   UNL     1       9.601  -4.855  26.795  0.00  0.00    -0.343 N 
ATOM     14  H   UNL     1       9.836  -3.937  27.155  0.00  0.00    +0.144 HD
ATOM     15  H   UNL     1       9.559  -5.547  27.539  0.00  0.00    +0.144 HD
ATOM     16  C   UNL     1       7.203  -2.242  23.126  0.00  0.00    +0.025 A 
ENDROOT
BRANCH   1  17
ATOM     17  N   UNL     1       9.306  -1.011  23.194  0.00  0.00    -0.328 N 
ATOM     18  C   UNL     1       9.774  -0.973  21.811  0.00  0.00    +0.129 C 
BRANCH  17  19
ATOM     19  C   UNL     1       9.967  -0.081  24.135  0.00  0.00    +0.143 C 
BRANCH  19  24
ATOM     20  C   UNL     1       7.403   2.098  26.007  0.00  0.00    +0.121 A 
ATOM     21  C   UNL     1       7.778   3.372  25.598  0.00  0.00    +0.049 A 
ATOM     22  C   UNL     1       8.833   3.529  24.703  0.00  0.00    +0.049 A 
ATOM     23  C   UNL     1       9.530   2.415  24.218  0.00  0.00    +0.125 A 
ATOM     24  C   UNL     1       9.136   1.111  24.599  0.00  0.00    +0.015 A 
ATOM     25  C   UNL     1       8.042   0.977  25.475  0.00  0.00    +0.054 A 
BRANCH  20  27
ATOM     26  C   UNL     1       6.882   1.944  28.271  0.00  0.00    +0.277 C 
ATOM     27  O   UNL     1       6.413   1.870  26.925  0.00  0.00    -0.495 OA
ENDBRANCH  20  27
BRANCH  23  28
ATOM     28  O   UNL     1      10.615   2.507  23.380  0.00  0.00    -0.495 OA
ATOM     29  C   UNL     1      11.301   3.756  23.351  0.00  0.00    +0.277 C 
ENDBRANCH  23  28
ENDBRANCH  19  24
ENDBRANCH  17  19
ENDBRANCH   1  17
TORSDOF 5
ENDMDL
MODEL 6
REMARK VINA RESULT:      -6.8      1.063      2.756
REMARK  Name = 
REMARK  8 active torsions:
REMARK  status: ('A' for Active; 'I' for Inactive)
REMARK    1  A    between atoms: C_1  and  O_2
REMARK    2  A    between atoms: O_2  and  C_3
REMARK    3  A    between atoms: C_5  and  C_6
REMARK    4  A    between atoms: C_6  and  N_7
REMARK    5  A    between atoms: N_7  and  C_8
REMARK    6  A    between atoms: N_7  and  C_9
REMARK    7  A    between atoms: C_21  and  O_22
REMARK    8  A    between atoms: O_22  and  C_23
REMARK                            x       y       z     vdW  Elec       q    Type
REMARK                         _______ _______ _______ _____ _____    ______ ____
ROOT
ATOM      1  C   UNL     1       8.773  -2.644  25.076  0.00  0.00    +0.031 A 
ATOM      2  C   UNL     1       9.134  -2.153  23.811  0.00  0.00    +0.036 A 
ATOM      3  C   UNL     1       9.333  -0.767  23.556  0.00  0.00    +0.042 A 
ATOM      4  C   UNL     1       9.218   0.155  24.593  0.00  0.00    +0.078 A 
ATOM      5  N   UNL     1       9.371   1.470  24.418  0.00  0.00    -0.215 NA
ATOM      6  C   UNL     1       9.616   1.898  23.181  0.00  0.00    +0.215 A 
ATOM      7  N   UNL     1       9.784   1.116  22.115  0.00  0.00    -0.199 NA
ATOM      8  N   UNL     1       9.720   3.262  22.997  0.00  0.00    -0.327 N 
ATOM      9  H   UNL     1      10.277   3.456  22.176  0.00  0.00    +0.145 HD
ATOM     10  H   UNL     1       9.996   3.698  23.864  0.00  0.00    +0.145 HD
ATOM     11  C   UNL     1       8.920  -0.326  25.855  0.00  0.00    +0.030 A 
ATOM     12  C   UNL     1       9.635  -0.202  22.312  0.00  0.00    +0.129 A 
ATOM     13  N   UNL     1       9.823  -0.992  21.169  0.00  0.00    -0.343 N 
ATOM     14  H   UNL     1       9.023  -1.591  21.003  0.00  0.00    +0.144 HD
ATOM     15  H   UNL     1       9.975  -0.351  20.393  0.00  0.00    +0.144 HD
ATOM     16  C   UNL     1       8.689  -1.689  26.094  0.00  0.00    +0.025 A 
ENDROOT
BRANCH   1  17
ATOM     17  N   UNL     1       8.513  -3.990  25.307  0.00  0.00    -0.328 N 
ATOM     18  C   UNL     1       9.027  -4.659  26.499  0.00  0.00    +0.129 C 
BRANCH  17  19
ATOM     19  C   UNL     1       7.965  -4.866  24.249  0.00  0.00    +0.143 C 
BRANCH  19  24
ATOM     20  C   UNL     1       4.470  -5.681  25.646  0.00  0.00    +0.121 A 
ATOM     21  C   UNL     1       3.686  -5.556  24.505  0.00  0.00    +0.049 A 
ATOM     22  C   UNL     1       4.281  -5.238  23.288  0.00  0.00    +0.049 A 
ATOM     23  C   UNL     1       5.663  -5.031  23.200  0.00  0.00    +0.125 A 
ATOM     24  C   UNL     1       6.477  -5.189  24.345  0.00  0.00    +0.015 A 
ATOM     25  C   UNL     1       5.857  -5.548  25.557  0.00  0.00    +0.054 A 
BRANCH  20  27
ATOM     26  C   UNL     1       4.833  -6.704  27.705  0.00  0.00    +0.277 C 
ATOM     27  O   UNL     1       3.950  -5.937  26.886  0.00  0.00    -0.495 OA
ENDBRANCH  20  27
BRANCH  23  28
ATOM     28  O   UNL     1       6.301  -4.658  22.042  0.00  0.00    -0.495 OA
ATOM     29  C   UNL     1       6.269  -5.588  20.962  0.00  0.00    +0.277 C 
ENDBRANCH  23  28
ENDBRANCH  19  24
ENDBRANCH  17  19
ENDBRANCH   1  17
TORSDOF 5
ENDMDL
MODEL 7
REMARK VINA RESULT:      -6.7      2.097      3.741
REMARK  Name = 
REMARK  8 active torsions:
REMARK  status: ('A' for Active; 'I' for Inactive)
REMARK    1  A    between atoms: C_1  and  O_2
REMARK    2  A    between atoms: O_2  and  C_3
REMARK    3  A    between atoms: C_5  and  C_6
REMARK    4  A    between atoms: C_6  and  N_7
REMARK    5  A    between atoms: N_7  and  C_8
REMARK    6  A    between atoms: N_7  and  C_9
REMARK    7  A    between atoms: C_21  and  O_22
REMARK    8  A    between atoms: O_22  and  C_23
REMARK                            x       y       z     vdW  Elec       q    Type
REMARK                         _______ _______ _______ _____ _____    ______ ____
ROOT
ATOM      1  C   UNL     1       7.814  -1.991  22.429  0.00  0.00    +0.031 A 
ATOM      2  C   UNL     1       7.082  -0.863  22.834  0.00  0.00    +0.036 A 
ATOM      3  C   UNL     1       7.651   0.440  22.889  0.00  0.00    +0.042 A 
ATOM      4  C   UNL     1       8.968   0.642  22.486  0.00  0.00    +0.078 A 
ATOM      5  N   UNL     1       9.569   1.833  22.533  0.00  0.00    -0.215 NA
ATOM      6  C   UNL     1       8.866   2.855  23.017  0.00  0.00    +0.215 A 
ATOM      7  N   UNL     1       7.590   2.799  23.399  0.00  0.00    -0.199 NA
ATOM      8  N   UNL     1       9.509   4.072  23.113  0.00  0.00    -0.327 N 
ATOM      9  H   UNL     1       8.830   4.822  23.096  0.00  0.00    +0.145 HD
ATOM     10  H   UNL     1      10.262   4.107  22.442  0.00  0.00    +0.145 HD
ATOM     11  C   UNL     1       9.679  -0.454  22.030  0.00  0.00    +0.030 A 
ATOM     12  C   UNL     1       7.001   1.595  23.337  0.00  0.00    +0.129 A 
ATOM     13  N   UNL     1       5.659   1.577  23.743  0.00  0.00    -0.343 N 
ATOM     14  H   UNL     1       5.507   0.885  24.469  0.00  0.00    +0.144 HD
ATOM     15  H   UNL     1       5.441   2.515  24.072  0.00  0.00    +0.144 HD
ATOM     16  C   UNL     1       9.125  -1.742  22.012  0.00  0.00    +0.025 A 
ENDROOT
BRANCH   1  17
ATOM     17  N   UNL     1       7.276  -3.272  22.440  0.00  0.00    -0.328 N 
ATOM     18  C   UNL     1       5.951  -3.535  21.883  0.00  0.00    +0.129 C 
BRANCH  17  19
ATOM     19  C   UNL     1       7.872  -4.356  23.251  0.00  0.00    +0.143 C 
BRANCH  19  24
ATOM     20  C   UNL     1       5.707  -5.926  26.023  0.00  0.00    +0.121 A 
ATOM     21  C   UNL     1       6.178  -5.257  27.146  0.00  0.00    +0.049 A 
ATOM     22  C   UNL     1       7.167  -4.286  27.011  0.00  0.00    +0.049 A 
ATOM     23  C   UNL     1       7.703  -3.983  25.753  0.00  0.00    +0.125 A 
ATOM     24  C   UNL     1       7.209  -4.632  24.597  0.00  0.00    +0.015 A 
ATOM     25  C   UNL     1       6.182  -5.582  24.756  0.00  0.00    +0.054 A 
BRANCH  20  27
ATOM     26  C   UNL     1       4.114  -7.142  24.839  0.00  0.00    +0.277 C 
ATOM     27  O   UNL     1       4.778  -6.929  26.085  0.00  0.00    -0.495 OA
ENDBRANCH  20  27
BRANCH  23  28
ATOM     28  O   UNL     1       8.719  -3.079  25.561  0.00  0.00    -0.495 OA
ATOM     29  C   UNL     1       8.544  -1.785  26.131  0.00  0.00    +0.277 C 
ENDBRANCH  23  28
ENDBRANCH  19  24
ENDBRANCH  17  19
ENDBRANCH   1  17
TORSDOF 5
ENDMDL
MODEL 8
REMARK VINA RESULT:      -6.7      3.835      8.408
REMARK  Name = 
REMARK  8 active torsions:
REMARK  status: ('A' for Active; 'I' for Inactive)
REMARK    1  A    between atoms: C_1  and  O_2
REMARK    2  A    between atoms: O_2  and  C_3
REMARK    3  A    between atoms: C_5  and  C_6
REMARK    4  A    between atoms: C_6  and  N_7
REMARK    5  A    between atoms: N_7  and  C_8
REMARK    6  A    between atoms: N_7  and  C_9
REMARK    7  A    between atoms: C_21  and  O_22
REMARK    8  A    between atoms: O_22  and  C_23
REMARK                            x       y       z     vdW  Elec       q    Type
REMARK                         _______ _______ _______ _____ _____    ______ ____
ROOT
ATOM      1  C   UNL     1       9.524  -0.758  23.330  0.00  0.00    +0.031 A 
ATOM      2  C   UNL     1       9.260  -1.659  24.374  0.00  0.00    +0.036 A 
ATOM      3  C   UNL     1       8.429  -2.802  24.208  0.00  0.00    +0.042 A 
ATOM      4  C   UNL     1       7.880  -3.088  22.961  0.00  0.00    +0.078 A 
ATOM      5  N   UNL     1       7.074  -4.130  22.742  0.00  0.00    -0.215 NA
ATOM      6  C   UNL     1       6.774  -4.901  23.785  0.00  0.00    +0.215 A 
ATOM      7  N   UNL     1       7.262  -4.754  25.016  0.00  0.00    -0.199 NA
ATOM      8  N   UNL     1       5.899  -5.945  23.563  0.00  0.00    -0.327 N 
ATOM      9  H   UNL     1       6.045  -6.668  24.255  0.00  0.00    +0.145 HD
ATOM     10  H   UNL     1       5.935  -6.213  22.591  0.00  0.00    +0.145 HD
ATOM     11  C   UNL     1       8.181  -2.237  21.912  0.00  0.00    +0.030 A 
ATOM     12  C   UNL     1       8.075  -3.707  25.215  0.00  0.00    +0.129 A 
ATOM     13  N   UNL     1       8.572  -3.588  26.522  0.00  0.00    -0.343 N 
ATOM     14  H   UNL     1       8.374  -2.671  26.905  0.00  0.00    +0.144 HD
ATOM     15  H   UNL     1       8.130  -4.323  27.069  0.00  0.00    +0.144 HD
ATOM     16  C   UNL     1       8.972  -1.092  22.090  0.00  0.00    +0.025 A 
ENDROOT
BRANCH   1  17
ATOM     17  N   UNL     1      10.281   0.393  23.512  0.00  0.00    -0.328 N 
ATOM     18  C   UNL     1      10.923   0.674  24.794  0.00  0.00    +0.129 C 
BRANCH  17  19
ATOM     19  C   UNL     1      10.243   1.508  22.541  0.00  0.00    +0.143 C 
BRANCH  19  24
ATOM     20  C   UNL     1      11.373   5.021  23.640  0.00  0.00    +0.121 A 
ATOM     21  C   UNL     1      10.163   5.590  24.019  0.00  0.00    +0.049 A 
ATOM     22  C   UNL     1       8.992   4.839  23.947  0.00  0.00    +0.049 A 
ATOM     23  C   UNL     1       9.019   3.516  23.486  0.00  0.00    +0.125 A 
ATOM     24  C   UNL     1      10.248   2.915  23.130  0.00  0.00    +0.015 A 
ATOM     25  C   UNL     1      11.423   3.682  23.248  0.00  0.00    +0.054 A 
BRANCH  20  27
ATOM     26  C   UNL     1      13.300   5.516  22.431  0.00  0.00    +0.277 C 
ATOM     27  O   UNL     1      12.553   5.714  23.632  0.00  0.00    -0.495 OA
ENDBRANCH  20  27
BRANCH  23  28
ATOM     28  O   UNL     1       7.893   2.744  23.336  0.00  0.00    -0.495 OA
ATOM     29  C   UNL     1       6.931   3.187  22.383  0.00  0.00    +0.277 C 
ENDBRANCH  23  28
ENDBRANCH  19  24
ENDBRANCH  17  19
ENDBRANCH   1  17
TORSDOF 5
ENDMDL
MODEL 9
REMARK VINA RESULT:      -6.6      1.989      3.081
REMARK  Name = 
REMARK  8 active torsions:
REMARK  status: ('A' for Active; 'I' for Inactive)
REMARK    1  A    between atoms: C_1  and  O_2
REMARK    2  A    between atoms: O_2  and  C_3
REMARK    3  A    between atoms: C_5  and  C_6
REMARK    4  A    between atoms: C_6  and  N_7
REMARK    5  A    between atoms: N_7  and  C_8
REMARK    6  A    between atoms: N_7  and  C_9
REMARK    7  A    between atoms: C_21  and  O_22
REMARK    8  A    between atoms: O_22  and  C_23
REMARK                            x       y       z     vdW  Elec       q    Type
REMARK                         _______ _______ _______ _____ _____    ______ ____
ROOT
ATOM      1  C   UNL     1       8.630  -0.156  25.371  0.00  0.00    +0.031 A 
ATOM      2  C   UNL     1       8.231   1.189  25.305  0.00  0.00    +0.036 A 
ATOM      3  C   UNL     1       9.029   2.196  24.692  0.00  0.00    +0.042 A 
ATOM      4  C   UNL     1      10.235   1.855  24.086  0.00  0.00    +0.078 A 
ATOM      5  N   UNL     1      11.041   2.752  23.514  0.00  0.00    -0.215 NA
ATOM      6  C   UNL     1      10.668   4.029  23.562  0.00  0.00    +0.215 A 
ATOM      7  N   UNL     1       9.524   4.478  24.079  0.00  0.00    -0.199 NA
ATOM      8  N   UNL     1      11.530   4.958  23.015  0.00  0.00    -0.327 N 
ATOM      9  H   UNL     1      11.016   5.785  22.742  0.00  0.00    +0.145 HD
ATOM     10  H   UNL     1      12.104   4.511  22.316  0.00  0.00    +0.145 HD
ATOM     11  C   UNL     1      10.608   0.523  24.096  0.00  0.00    +0.030 A 
ATOM     12  C   UNL     1       8.723   3.560  24.642  0.00  0.00    +0.129 A 
ATOM     13  N   UNL     1       7.528   4.069  25.171  0.00  0.00    -0.343 N 
ATOM     14  H   UNL     1       7.419   3.806  26.144  0.00  0.00    +0.144 HD
ATOM     15  H   UNL     1       7.568   5.080  25.062  0.00  0.00    +0.144 HD
ATOM     16  C   UNL     1       9.836  -0.460  24.732  0.00  0.00    +0.025 A 
ENDROOT
BRANCH   1  17
ATOM     17  N   UNL     1       7.881  -1.124  26.028  0.00  0.00    -0.328 N 
ATOM     18  C   UNL     1       6.778  -0.749  26.910  0.00  0.00    +0.129 C 
BRANCH  17  19
ATOM     19  C   UNL     1       8.326  -2.533  26.099  0.00  0.00    +0.143 C 
BRANCH  19  24
ATOM     20  C   UNL     1       7.001  -4.675  23.186  0.00  0.00    +0.121 A 
ATOM     21  C   UNL     1       6.165  -5.559  23.857  0.00  0.00    +0.049 A 
ATOM     22  C   UNL     1       6.006  -5.450  25.236  0.00  0.00    +0.049 A 
ATOM     23  C   UNL     1       6.690  -4.464  25.959  0.00  0.00    +0.125 A 
ATOM     24  C   UNL     1       7.517  -3.537  25.284  0.00  0.00    +0.015 A 
ATOM     25  C   UNL     1       7.632  -3.644  23.885  0.00  0.00    +0.054 A 
BRANCH  20  27
ATOM     26  C   UNL     1       6.366  -5.656  21.173  0.00  0.00    +0.277 C 
ATOM     27  O   UNL     1       7.249  -4.756  21.842  0.00  0.00    -0.495 OA
ENDBRANCH  20  27
BRANCH  23  28
ATOM     28  O   UNL     1       6.620  -4.341  27.325  0.00  0.00    -0.495 OA
ATOM     29  C   UNL     1       5.340  -4.053  27.881  0.00  0.00    +0.277 C 
ENDBRANCH  23  28
ENDBRANCH  19  24
ENDBRANCH  17  19
ENDBRANCH   1  17
TORSDOF 5
ENDMDL
