MODEL 1
REMARK VINA RESULT:      -7.8      0.000      0.000
REMARK  Name = 
REMARK  7 active torsions:
REMARK  status: ('A' for Active; 'I' for Inactive)
REMARK    1  A    between atoms: C_2  and  C_6
REMARK    2  A    between atoms: C_11  and  C_15
REMARK    3  A    between atoms: C_17  and  C_29
REMARK    4  A    between atoms: C_19  and  C_22
REMARK    5  A    between atoms: C_29  and  C_31
REMARK    6  A    between atoms: C_29  and  C_35
REMARK    7  A    between atoms: C_31  and  C_32
REMARK                            x       y       z     vdW  Elec       q    Type
REMARK                         _______ _______ _______ _____ _____    ______ ____
ROOT
ATOM      1  C   UNL     1       5.066  -3.572  24.684  0.00  0.00    +0.010 A 
ATOM      2  C   UNL     1       4.253  -4.418  23.820  0.00  0.00    -0.090 A 
ATOM      3  O   UNL     1       4.423  -4.444  22.535  0.00  0.00    -0.873 OA
ATOM      4  C   UNL     1       3.268  -5.225  24.511  0.00  0.00    -0.022 A 
ATOM      5  C   UNL     1       3.213  -5.182  25.945  0.00  0.00    +0.012 A 
ATOM      6  C   UNL     1       4.073  -4.405  26.753  0.00  0.00    -0.037 A 
ATOM      7  C   UNL     1       4.991  -3.607  26.093  0.00  0.00    +0.015 A 
ENDROOT
BRANCH   1  14
ATOM      8  C   UNL     1       8.538   0.659  22.275  0.00  0.00    +0.063 A 
ATOM      9  C   UNL     1       7.422   0.458  23.108  0.00  0.00    +0.045 A 
ATOM     10  C   UNL     1       7.025  -0.849  23.399  0.00  0.00    +0.090 A 
ATOM     11  C   UNL     1       7.717  -1.910  22.843  0.00  0.00    +0.067 A 
ATOM     12  N   UNL     1       7.055  -2.997  23.320  0.00  0.00    -0.338 N 
ATOM     13  H   UNL     1       7.195  -3.992  23.150  0.00  0.00    +0.167 HD
ATOM     14  C   UNL     1       6.006  -2.585  24.108  0.00  0.00    +0.139 A 
ATOM     15  C   UNL     1       8.811  -1.769  21.999  0.00  0.00    +0.028 A 
ATOM     16  N   UNL     1       5.993  -1.263  24.170  0.00  0.00    -0.228 NA
ATOM     17  C   UNL     1       9.216  -0.453  21.735  0.00  0.00    +0.018 A 
BRANCH   8  21
ATOM     18  N   UNL     1       8.092   3.007  22.012  0.00  0.00    -0.250 N 
ATOM     19  H   UNL     1       7.142   2.806  22.305  0.00  0.00    +0.288 HD
ATOM     20  H   UNL     1       8.337   3.963  21.807  0.00  0.00    +0.288 HD
ATOM     21  C   UNL     1       8.971   2.028  21.977  0.00  0.00    +0.266 C 
ATOM     22  N   UNL     1      10.232   2.264  21.682  0.00  0.00    -0.288 N 
ATOM     23  H   UNL     1      10.594   3.186  21.493  0.00  0.00    +0.301 HD
ATOM     24  H   UNL     1      10.892   1.490  21.659  0.00  0.00    +0.301 HD
ENDBRANCH   8  21
ENDBRANCH   1  14
BRANCH   4  25
ATOM     25  C   UNL     1       2.291  -6.121  23.764  0.00  0.00    +0.017 A 
ATOM     26  C   UNL     1       1.296  -5.587  22.911  0.00  0.00    +0.011 A 
ATOM     27  C   UNL     1       0.443  -6.379  22.130  0.00  0.00    +0.001 A 
ATOM     28  C   UNL     1       0.506  -7.760  22.226  0.00  0.00    +0.003 A 
ATOM     29  C   UNL     1       1.424  -8.329  23.099  0.00  0.00    +0.039 A 
ATOM     30  C   UNL     1       2.305  -7.524  23.840  0.00  0.00    +0.131 A 
ATOM     31  F   UNL     1       3.177  -8.178  24.624  0.00  0.00    -0.205 F 
ENDBRANCH   4  25
BRANCH   6  32
ATOM     32  C   UNL     1       4.035  -4.494  28.280  0.00  0.00    +0.070 C 
BRANCH  32  33
ATOM     33  C   UNL     1       3.312  -3.403  29.123  0.00  0.00    +0.049 C 
ATOM     34  O   UNL     1       4.012  -2.362  29.369  0.00  0.00    -0.549 OA
ATOM     35  O   UNL     1       2.199  -3.684  29.662  0.00  0.00    -0.549 OA
ENDBRANCH  32  33
BRANCH  32  36
ATOM     36  C   UNL     1       5.403  -4.902  28.863  0.00  0.00    +0.066 C 
BRANCH  36  37
ATOM     37  C   UNL     1       6.145  -6.175  28.439  0.00  0.00    +0.043 C 
ATOM     38  O   UNL     1       7.276  -5.956  27.891  0.00  0.00    -0.550 OA
ATOM     39  O   UNL     1       5.581  -7.290  28.602  0.00  0.00    -0.550 OA
ENDBRANCH  36  37
ENDBRANCH  32  36
ENDBRANCH   6  32
TORSDOF 7
ENDMDL
MODEL 2
REMARK VINA RESULT:      -7.5      6.111     10.565
REMARK  Name = 
REMARK  7 active torsions:
REMARK  status: ('A' for Active; 'I' for Inactive)
REMARK    1  A    between atoms: C_2  and  C_6
REMARK    2  A    between atoms: C_11  and  C_15
REMARK    3  A    between atoms: C_17  and  C_29
REMARK    4  A    between atoms: C_19  and  C_22
REMARK    5  A    between atoms: C_29  and  C_31
REMARK    6  A    between atoms: C_29  and  C_35
REMARK    7  A    between atoms: C_31  and  C_32
REMARK                            x       y       z     vdW  Elec       q    Type
REMARK                         _______ _______ _______ _____ _____    ______ ____
ROOT
ATOM      1  C   UNL     1       8.033   1.717  23.768  0.00  0.00    +0.010 A 
ATOM      2  C   UNL     1       9.208   2.537  24.032  0.00  0.00    -0.090 A 
ATOM      3  O   UNL     1      10.351   2.010  24.344  0.00  0.00    -0.873 OA
ATOM      4  C   UNL     1       8.996   3.964  23.899  0.00  0.00    -0.022 A 
ATOM      5  C   UNL     1       7.712   4.442  23.471  0.00  0.00    +0.012 A 
ATOM      6  C   UNL     1       6.618   3.609  23.150  0.00  0.00    -0.037 A 
ATOM      7  C   UNL     1       6.808   2.247  23.309  0.00  0.00    +0.015 A 
ENDROOT
BRANCH   1  14
ATOM      8  C   UNL     1       8.496  -4.125  24.958  0.00  0.00    +0.063 A 
ATOM      9  C   UNL     1       8.669  -2.845  25.516  0.00  0.00    +0.045 A 
ATOM     10  C   UNL     1       8.350  -1.725  24.746  0.00  0.00    +0.090 A 
ATOM     11  C   UNL     1       7.900  -1.897  23.449  0.00  0.00    +0.067 A 
ATOM     12  N   UNL     1       7.713  -0.623  23.014  0.00  0.00    -0.338 N 
ATOM     13  H   UNL     1       7.417  -0.263  22.107  0.00  0.00    +0.167 HD
ATOM     14  C   UNL     1       8.059   0.258  24.011  0.00  0.00    +0.139 A 
ATOM     15  C   UNL     1       7.730  -3.135  22.841  0.00  0.00    +0.028 A 
ATOM     16  N   UNL     1       8.440  -0.418  25.085  0.00  0.00    -0.228 NA
ATOM     17  C   UNL     1       8.029  -4.251  23.633  0.00  0.00    +0.018 A 
BRANCH   8  21
ATOM     18  N   UNL     1       9.914  -5.985  25.516  0.00  0.00    -0.250 N 
ATOM     19  H   UNL     1      10.555  -5.640  24.810  0.00  0.00    +0.288 HD
ATOM     20  H   UNL     1      10.172  -6.808  26.035  0.00  0.00    +0.288 HD
ATOM     21  C   UNL     1       8.813  -5.307  25.765  0.00  0.00    +0.266 C 
ATOM     22  N   UNL     1       7.997  -5.678  26.730  0.00  0.00    -0.288 N 
ATOM     23  H   UNL     1       8.174  -6.466  27.333  0.00  0.00    +0.301 HD
ATOM     24  H   UNL     1       7.150  -5.140  26.900  0.00  0.00    +0.301 HD
ENDBRANCH   8  21
ENDBRANCH   1  14
BRANCH   4  25
ATOM     25  C   UNL     1      10.096   4.974  24.196  0.00  0.00    +0.017 A 
ATOM     26  C   UNL     1       9.904   6.031  25.117  0.00  0.00    +0.011 A 
ATOM     27  C   UNL     1      10.920   6.921  25.492  0.00  0.00    +0.001 A 
ATOM     28  C   UNL     1      12.169   6.831  24.898  0.00  0.00    +0.003 A 
ATOM     29  C   UNL     1      12.385   5.848  23.940  0.00  0.00    +0.039 A 
ATOM     30  C   UNL     1      11.372   4.933  23.609  0.00  0.00    +0.131 A 
ATOM     31  F   UNL     1      11.699   4.001  22.700  0.00  0.00    -0.205 F 
ENDBRANCH   4  25
BRANCH   6  32
ATOM     32  C   UNL     1       5.313   4.179  22.591  0.00  0.00    +0.070 C 
BRANCH  32  33
ATOM     33  C   UNL     1       4.701   5.485  23.173  0.00  0.00    +0.049 C 
ATOM     34  O   UNL     1       4.694   6.481  22.370  0.00  0.00    -0.549 OA
ATOM     35  O   UNL     1       4.445   5.541  24.414  0.00  0.00    -0.549 OA
ENDBRANCH  32  33
BRANCH  32  36
ATOM     36  C   UNL     1       4.264   3.074  22.349  0.00  0.00    +0.066 C 
BRANCH  36  37
ATOM     37  C   UNL     1       2.773   3.368  22.153  0.00  0.00    +0.043 C 
ATOM     38  O   UNL     1       2.032   2.942  23.101  0.00  0.00    -0.550 OA
ATOM     39  O   UNL     1       2.399   3.933  21.090  0.00  0.00    -0.550 OA
ENDBRANCH  36  37
ENDBRANCH  32  36
ENDBRANCH   6  32
TORSDOF 7
ENDMDL
MODEL 3
REMARK VINA RESULT:      -7.4      0.447      2.178
REMARK  Name = 
REMARK  7 active torsions:
REMARK  status: ('A' for Active; 'I' for Inactive)
REMARK    1  A    between atoms: C_2  and  C_6
REMARK    2  A    between atoms: C_11  and  C_15
REMARK    3  A    between atoms: C_17  and  C_29
REMARK    4  A    between atoms: C_19  and  C_22
REMARK    5  A    between atoms: C_29  and  C_31
REMARK    6  A    between atoms: C_29  and  C_35
REMARK    7  A    between atoms: C_31  and  C_32
REMARK                            x       y       z     vdW  Elec       q    Type
REMARK                         _______ _______ _______ _____ _____    ______ ____
ROOT
ATOM      1  C   UNL     1       5.489  -3.683  24.644  0.00  0.00    +0.010 A 
ATOM      2  C   UNL     1       4.525  -4.388  23.809  0.00  0.00    -0.090 A 
ATOM      3  O   UNL     1       4.505  -4.244  22.521  0.00  0.00    -0.873 OA
ATOM      4  C   UNL     1       3.620  -5.260  24.529  0.00  0.00    -0.022 A 
ATOM      5  C   UNL     1       3.776  -5.410  25.949  0.00  0.00    +0.012 A 
ATOM      6  C   UNL     1       4.776  -4.767  26.713  0.00  0.00    -0.037 A 
ATOM      7  C   UNL     1       5.619  -3.906  26.032  0.00  0.00    +0.015 A 
ENDROOT
BRANCH   1  14
ATOM      8  C   UNL     1       8.731   0.745  22.271  0.00  0.00    +0.063 A 
ATOM      9  C   UNL     1       7.683   0.474  23.169  0.00  0.00    +0.045 A 
ATOM     10  C   UNL     1       7.321  -0.855  23.402  0.00  0.00    +0.090 A 
ATOM     11  C   UNL     1       7.980  -1.866  22.727  0.00  0.00    +0.067 A 
ATOM     12  N   UNL     1       7.365  -2.992  23.178  0.00  0.00    -0.338 N 
ATOM     13  H   UNL     1       7.501  -3.972  22.933  0.00  0.00    +0.167 HD
ATOM     14  C   UNL     1       6.374  -2.648  24.067  0.00  0.00    +0.139 A 
ATOM     15  C   UNL     1       9.007  -1.655  21.815  0.00  0.00    +0.028 A 
ATOM     16  N   UNL     1       6.353  -1.332  24.217  0.00  0.00    -0.228 NA
ATOM     17  C   UNL     1       9.378  -0.319  21.610  0.00  0.00    +0.018 A 
BRANCH   8  21
ATOM     18  N   UNL     1      10.384   2.411  21.747  0.00  0.00    -0.250 N 
ATOM     19  H   UNL     1      11.042   1.647  21.635  0.00  0.00    +0.288 HD
ATOM     20  H   UNL     1      10.709   3.351  21.584  0.00  0.00    +0.288 HD
ATOM     21  C   UNL     1       9.129   2.137  22.034  0.00  0.00    +0.266 C 
ATOM     22  N   UNL     1       8.228   3.095  22.107  0.00  0.00    -0.288 N 
ATOM     23  H   UNL     1       8.437   4.065  21.929  0.00  0.00    +0.301 HD
ATOM     24  H   UNL     1       7.265   2.858  22.333  0.00  0.00    +0.301 HD
ENDBRANCH   8  21
ENDBRANCH   1  14
BRANCH   4  25
ATOM     25  C   UNL     1       2.509  -6.028  23.827  0.00  0.00    +0.017 A 
ATOM     26  C   UNL     1       1.470  -5.362  23.133  0.00  0.00    +0.011 A 
ATOM     27  C   UNL     1       0.487  -6.031  22.391  0.00  0.00    +0.001 A 
ATOM     28  C   UNL     1       0.461  -7.416  22.372  0.00  0.00    +0.003 A 
ATOM     29  C   UNL     1       1.423  -8.113  23.092  0.00  0.00    +0.039 A 
ATOM     30  C   UNL     1       2.432  -7.430  23.792  0.00  0.00    +0.131 A 
ATOM     31  F   UNL     1       3.332  -8.202  24.422  0.00  0.00    -0.205 F 
ENDBRANCH   4  25
BRANCH   6  32
ATOM     32  C   UNL     1       4.957  -5.059  28.203  0.00  0.00    +0.070 C 
BRANCH  32  33
ATOM     33  C   UNL     1       5.853  -6.238  28.680  0.00  0.00    +0.049 C 
ATOM     34  O   UNL     1       7.076  -6.167  28.313  0.00  0.00    -0.549 OA
ATOM     35  O   UNL     1       5.302  -7.252  29.206  0.00  0.00    -0.549 OA
ENDBRANCH  32  33
BRANCH  32  36
ATOM     36  C   UNL     1       3.622  -4.963  28.971  0.00  0.00    +0.066 C 
BRANCH  36  37
ATOM     37  C   UNL     1       3.119  -3.665  29.610  0.00  0.00    +0.043 C 
ATOM     38  O   UNL     1       2.037  -3.799  30.273  0.00  0.00    -0.550 OA
ATOM     39  O   UNL     1       3.751  -2.596  29.394  0.00  0.00    -0.550 OA
ENDBRANCH  36  37
ENDBRANCH  32  36
ENDBRANCH   6  32
TORSDOF 7
ENDMDL
MODEL 4
REMARK VINA RESULT:      -7.3      3.410      5.416
REMARK  Name = 
REMARK  7 active torsions:
REMARK  status: ('A' for Active; 'I' for Inactive)
REMARK    1  A    between atoms: C_2  and  C_6
REMARK    2  A    between atoms: C_11  and  C_15
REMARK    3  A    between atoms: C_17  and  C_29
REMARK    4  A    between atoms: C_19  and  C_22
REMARK    5  A    between atoms: C_29  and  C_31
REMARK    6  A    between atoms: C_29  and  C_35
REMARK    7  A    between atoms: C_31  and  C_32
REMARK                            x       y       z     vdW  Elec       q    Type
REMARK                         _______ _______ _______ _____ _____    ______ ____
ROOT
ATOM      1  C   UNL     1       6.386  -0.800  24.119  0.00  0.00    +0.010 A 
ATOM      2  C   UNL     1       5.356  -1.022  25.126  0.00  0.00    -0.090 A 
ATOM      3  O   UNL     1       4.737  -0.036  25.696  0.00  0.00    -0.873 OA
ATOM      4  C   UNL     1       5.079  -2.414  25.416  0.00  0.00    -0.022 A 
ATOM      5  C   UNL     1       5.765  -3.432  24.672  0.00  0.00    +0.012 A 
ATOM      6  C   UNL     1       6.702  -3.175  23.646  0.00  0.00    -0.037 A 
ATOM      7  C   UNL     1       6.994  -1.846  23.391  0.00  0.00    +0.015 A 
ENDROOT
BRANCH   1  14
ATOM      8  C   UNL     1       8.503   4.739  23.349  0.00  0.00    +0.063 A 
ATOM      9  C   UNL     1       8.776   3.505  23.967  0.00  0.00    +0.045 A 
ATOM     10  C   UNL     1       7.892   2.442  23.772  0.00  0.00    +0.090 A 
ATOM     11  C   UNL     1       6.758   2.634  23.002  0.00  0.00    +0.067 A 
ATOM     12  N   UNL     1       6.143   1.423  23.048  0.00  0.00    -0.338 N 
ATOM     13  H   UNL     1       5.260   1.106  22.650  0.00  0.00    +0.167 HD
ATOM     14  C   UNL     1       6.879   0.564  23.830  0.00  0.00    +0.139 A 
ATOM     15  C   UNL     1       6.429   3.835  22.387  0.00  0.00    +0.028 A 
ATOM     16  N   UNL     1       7.965   1.185  24.266  0.00  0.00    -0.228 NA
ATOM     17  C   UNL     1       7.338   4.886  22.569  0.00  0.00    +0.018 A 
BRANCH   8  21
ATOM     18  N   UNL     1       8.995   6.990  24.037  0.00  0.00    -0.250 N 
ATOM     19  H   UNL     1       8.030   7.050  24.344  0.00  0.00    +0.288 HD
ATOM     20  H   UNL     1       9.593   7.789  24.177  0.00  0.00    +0.288 HD
ATOM     21  C   UNL     1       9.436   5.855  23.535  0.00  0.00    +0.266 C 
ATOM     22  N   UNL     1      10.702   5.712  23.202  0.00  0.00    -0.288 N 
ATOM     23  H   UNL     1      11.393   6.434  23.330  0.00  0.00    +0.301 HD
ATOM     24  H   UNL     1      11.017   4.826  22.813  0.00  0.00    +0.301 HD
ENDBRANCH   8  21
ENDBRANCH   1  14
BRANCH   4  25
ATOM     25  C   UNL     1       4.079  -2.832  26.484  0.00  0.00    +0.017 A 
ATOM     26  C   UNL     1       4.410  -2.814  27.860  0.00  0.00    +0.011 A 
ATOM     27  C   UNL     1       3.489  -3.095  28.878  0.00  0.00    +0.001 A 
ATOM     28  C   UNL     1       2.198  -3.481  28.553  0.00  0.00    +0.003 A 
ATOM     29  C   UNL     1       1.846  -3.576  27.212  0.00  0.00    +0.039 A 
ATOM     30  C   UNL     1       2.765  -3.244  26.203  0.00  0.00    +0.131 A 
ATOM     31  F   UNL     1       2.309  -3.334  24.944  0.00  0.00    -0.205 F 
ENDBRANCH   4  25
BRANCH   6  32
ATOM     32  C   UNL     1       7.312  -4.305  22.816  0.00  0.00    +0.070 C 
BRANCH  32  33
ATOM     33  C   UNL     1       6.520  -4.946  21.639  0.00  0.00    +0.049 C 
ATOM     34  O   UNL     1       5.711  -4.156  21.042  0.00  0.00    -0.549 OA
ATOM     35  O   UNL     1       6.570  -6.203  21.481  0.00  0.00    -0.549 OA
ENDBRANCH  32  33
BRANCH  32  36
ATOM     36  C   UNL     1       8.025  -5.347  23.703  0.00  0.00    +0.066 C 
BRANCH  36  37
ATOM     37  C   UNL     1       8.960  -4.961  24.854  0.00  0.00    +0.043 C 
ATOM     38  O   UNL     1       8.564  -5.361  25.999  0.00  0.00    -0.550 OA
ATOM     39  O   UNL     1       9.976  -4.257  24.603  0.00  0.00    -0.550 OA
ENDBRANCH  36  37
ENDBRANCH  32  36
ENDBRANCH   6  32
TORSDOF 7
ENDMDL
MODEL 5
REMARK VINA RESULT:      -7.3      2.587      5.391
REMARK  Name = 
REMARK  7 active torsions:
REMARK  status: ('A' for Active; 'I' for Inactive)
REMARK    1  A    between atoms: C_2  and  C_6
REMARK    2  A    between atoms: C_11  and  C_15
REMARK    3  A    between atoms: C_17  and  C_29
REMARK    4  A    between atoms: C_19  and  C_22
REMARK    5  A    between atoms: C_29  and  C_31
REMARK    6  A    between atoms: C_29  and  C_35
REMARK    7  A    between atoms: C_31  and  C_32
REMARK                            x       y       z     vdW  Elec       q    Type
REMARK                         _______ _______ _______ _____ _____    ______ ____
ROOT
ATOM      1  C   UNL     1       6.951  -2.411  24.808  0.00  0.00    +0.010 A 
ATOM      2  C   UNL     1       6.538  -2.584  26.195  0.00  0.00    -0.090 A 
ATOM      3  O   UNL     1       6.733  -1.661  27.085  0.00  0.00    -0.873 OA
ATOM      4  C   UNL     1       5.887  -3.846  26.482  0.00  0.00    -0.022 A 
ATOM      5  C   UNL     1       5.647  -4.768  25.409  0.00  0.00    +0.012 A 
ATOM      6  C   UNL     1       5.994  -4.529  24.060  0.00  0.00    -0.037 A 
ATOM      7  C   UNL     1       6.648  -3.340  23.789  0.00  0.00    +0.015 A 
ENDROOT
BRANCH   1  14
ATOM      8  C   UNL     1       9.925   2.561  23.326  0.00  0.00    +0.063 A 
ATOM      9  C   UNL     1       9.164   1.967  24.350  0.00  0.00    +0.045 A 
ATOM     10  C   UNL     1       8.706   0.659  24.178  0.00  0.00    +0.090 A 
ATOM     11  C   UNL     1       8.986  -0.009  22.999  0.00  0.00    +0.067 A 
ATOM     12  N   UNL     1       8.383  -1.215  23.175  0.00  0.00    -0.338 N 
ATOM     13  H   UNL     1       8.301  -2.019  22.554  0.00  0.00    +0.167 HD
ATOM     14  C   UNL     1       7.760  -1.241  24.401  0.00  0.00    +0.139 A 
ATOM     15  C   UNL     1       9.713   0.535  21.948  0.00  0.00    +0.028 A 
ATOM     16  N   UNL     1       7.968  -0.093  25.027  0.00  0.00    -0.228 NA
ATOM     17  C   UNL     1      10.189   1.838  22.144  0.00  0.00    +0.018 A 
BRANCH   8  21
ATOM     18  N   UNL     1      11.570   4.276  22.957  0.00  0.00    -0.250 N 
ATOM     19  H   UNL     1      12.056   3.609  22.368  0.00  0.00    +0.288 HD
ATOM     20  H   UNL     1      11.960   5.199  23.058  0.00  0.00    +0.288 HD
ATOM     21  C   UNL     1      10.424   3.928  23.506  0.00  0.00    +0.266 C 
ATOM     22  N   UNL     1       9.723   4.792  24.210  0.00  0.00    -0.288 N 
ATOM     23  H   UNL     1      10.002   5.751  24.347  0.00  0.00    +0.301 HD
ATOM     24  H   UNL     1       8.843   4.498  24.626  0.00  0.00    +0.301 HD
ENDBRANCH   8  21
ENDBRANCH   1  14
BRANCH   4  25
ATOM     25  C   UNL     1       5.444  -4.223  27.889  0.00  0.00    +0.017 A 
ATOM     26  C   UNL     1       4.384  -3.548  28.540  0.00  0.00    +0.011 A 
ATOM     27  C   UNL     1       3.881  -3.929  29.792  0.00  0.00    +0.001 A 
ATOM     28  C   UNL     1       4.475  -4.972  30.485  0.00  0.00    +0.003 A 
ATOM     29  C   UNL     1       5.560  -5.624  29.912  0.00  0.00    +0.039 A 
ATOM     30  C   UNL     1       6.023  -5.263  28.636  0.00  0.00    +0.131 A 
ATOM     31  F   UNL     1       7.053  -5.982  28.162  0.00  0.00    -0.205 F 
ENDBRANCH   4  25
BRANCH   6  32
ATOM     32  C   UNL     1       5.608  -5.506  22.948  0.00  0.00    +0.070 C 
BRANCH  32  33
ATOM     33  C   UNL     1       6.261  -5.407  21.539  0.00  0.00    +0.049 C 
ATOM     34  O   UNL     1       7.389  -5.998  21.427  0.00  0.00    -0.549 OA
ATOM     35  O   UNL     1       5.759  -4.615  20.686  0.00  0.00    -0.549 OA
ENDBRANCH  32  33
BRANCH  32  36
ATOM     36  C   UNL     1       4.083  -5.736  22.894  0.00  0.00    +0.066 C 
BRANCH  36  37
ATOM     37  C   UNL     1       3.380  -6.853  23.675  0.00  0.00    +0.043 C 
ATOM     38  O   UNL     1       2.119  -6.901  23.486  0.00  0.00    -0.550 OA
ATOM     39  O   UNL     1       4.062  -7.570  24.455  0.00  0.00    -0.550 OA
ENDBRANCH  36  37
ENDBRANCH  32  36
ENDBRANCH   6  32
TORSDOF 7
ENDMDL
MODEL 6
REMARK VINA RESULT:      -7.1      3.772      5.429
REMARK  Name = 
REMARK  7 active torsions:
REMARK  status: ('A' for Active; 'I' for Inactive)
REMARK    1  A    between atoms: C_2  and  C_6
REMARK    2  A    between atoms: C_11  and  C_15
REMARK    3  A    between atoms: C_17  and  C_29
REMARK    4  A    between atoms: C_19  and  C_22
REMARK    5  A    between atoms: C_29  and  C_31
REMARK    6  A    between atoms: C_29  and  C_35
REMARK    7  A    between atoms: C_31  and  C_32
REMARK                            x       y       z     vdW  Elec       q    Type
REMARK                         _______ _______ _______ _____ _____    ______ ____
ROOT
ATOM      1  C   UNL     1       7.631  -0.120  24.428  0.00  0.00    +0.010 A 
ATOM      2  C   UNL     1       7.766  -1.277  23.554  0.00  0.00    -0.090 A 
ATOM      3  O   UNL     1       8.648  -1.315  22.604  0.00  0.00    -0.873 OA
ATOM      4  C   UNL     1       6.856  -2.367  23.843  0.00  0.00    -0.022 A 
ATOM      5  C   UNL     1       5.970  -2.257  24.967  0.00  0.00    +0.012 A 
ATOM      6  C   UNL     1       5.923  -1.147  25.840  0.00  0.00    -0.037 A 
ATOM      7  C   UNL     1       6.767  -0.090  25.544  0.00  0.00    +0.015 A 
ENDROOT
BRANCH   1  14
ATOM      8  C   UNL     1      11.010   4.731  23.530  0.00  0.00    +0.063 A 
ATOM      9  C   UNL     1      11.032   3.325  23.508  0.00  0.00    +0.045 A 
ATOM     10  C   UNL     1       9.853   2.628  23.785  0.00  0.00    +0.090 A 
ATOM     11  C   UNL     1       8.705   3.333  24.099  0.00  0.00    +0.067 A 
ATOM     12  N   UNL     1       7.790   2.352  24.320  0.00  0.00    -0.338 N 
ATOM     13  H   UNL     1       6.813   2.402  24.607  0.00  0.00    +0.167 HD
ATOM     14  C   UNL     1       8.386   1.124  24.159  0.00  0.00    +0.139 A 
ATOM     15  C   UNL     1       8.632   4.719  24.155  0.00  0.00    +0.028 A 
ATOM     16  N   UNL     1       9.654   1.290  23.816  0.00  0.00    -0.228 NA
ATOM     17  C   UNL     1       9.815   5.406  23.850  0.00  0.00    +0.018 A 
BRANCH   8  21
ATOM     18  N   UNL     1      12.792   6.219  24.155  0.00  0.00    -0.250 N 
ATOM     19  H   UNL     1      12.392   6.222  25.087  0.00  0.00    +0.288 HD
ATOM     20  H   UNL     1      13.631   6.753  23.993  0.00  0.00    +0.288 HD
ATOM     21  C   UNL     1      12.239   5.470  23.224  0.00  0.00    +0.266 C 
ATOM     22  N   UNL     1      12.777   5.377  22.026  0.00  0.00    -0.288 N 
ATOM     23  H   UNL     1      13.633   5.841  21.765  0.00  0.00    +0.301 HD
ATOM     24  H   UNL     1      12.329   4.795  21.323  0.00  0.00    +0.301 HD
ENDBRANCH   8  21
ENDBRANCH   1  14
BRANCH   4  25
ATOM     25  C   UNL     1       6.814  -3.629  22.994  0.00  0.00    +0.017 A 
ATOM     26  C   UNL     1       6.022  -3.711  21.823  0.00  0.00    +0.011 A 
ATOM     27  C   UNL     1       6.032  -4.817  20.962  0.00  0.00    +0.001 A 
ATOM     28  C   UNL     1       6.792  -5.931  21.278  0.00  0.00    +0.003 A 
ATOM     29  C   UNL     1       7.537  -5.921  22.451  0.00  0.00    +0.039 A 
ATOM     30  C   UNL     1       7.555  -4.788  23.281  0.00  0.00    +0.131 A 
ATOM     31  F   UNL     1       8.338  -4.872  24.369  0.00  0.00    -0.205 F 
ENDBRANCH   4  25
BRANCH   6  32
ATOM     32  C   UNL     1       5.035  -1.144  27.084  0.00  0.00    +0.070 C 
BRANCH  32  33
ATOM     33  C   UNL     1       3.731  -1.992  27.135  0.00  0.00    +0.049 C 
ATOM     34  O   UNL     1       3.690  -2.860  28.073  0.00  0.00    -0.549 OA
ATOM     35  O   UNL     1       2.914  -1.917  26.168  0.00  0.00    -0.549 OA
ENDBRANCH  32  33
BRANCH  32  36
ATOM     36  C   UNL     1       4.854   0.279  27.654  0.00  0.00    +0.066 C 
BRANCH  36  37
ATOM     37  C   UNL     1       3.654   1.169  27.310  0.00  0.00    +0.043 C 
ATOM     38  O   UNL     1       3.557   1.451  26.070  0.00  0.00    -0.550 OA
ATOM     39  O   UNL     1       2.919   1.584  28.246  0.00  0.00    -0.550 OA
ENDBRANCH  36  37
ENDBRANCH  32  36
ENDBRANCH   6  32
TORSDOF 7
ENDMDL
MODEL 7
REMARK VINA RESULT:      -7.1      3.536      5.092
REMARK  Name = 
REMARK  7 active torsions:
REMARK  status: ('A' for Active; 'I' for Inactive)
REMARK    1  A    between atoms: C_2  and  C_6
REMARK    2  A    between atoms: C_11  and  C_15
REMARK    3  A    between atoms: C_17  and  C_29
REMARK    4  A    between atoms: C_19  and  C_22
REMARK    5  A    between atoms: C_29  and  C_31
REMARK    6  A    between atoms: C_29  and  C_35
REMARK    7  A    between atoms: C_31  and  C_32
REMARK                            x       y       z     vdW  Elec       q    Type
REMARK                         _______ _______ _______ _____ _____    ______ ____
ROOT
ATOM      1  C   UNL     1       7.383   0.053  24.312  0.00  0.00    +0.010 A 
ATOM      2  C   UNL     1       7.613  -1.155  23.531  0.00  0.00    -0.090 A 
ATOM      3  O   UNL     1       8.612  -1.256  22.710  0.00  0.00    -0.873 OA
ATOM      4  C   UNL     1       6.656  -2.218  23.759  0.00  0.00    -0.022 A 
ATOM      5  C   UNL     1       5.632  -2.035  24.748  0.00  0.00    +0.012 A 
ATOM      6  C   UNL     1       5.489  -0.876  25.542  0.00  0.00    -0.037 A 
ATOM      7  C   UNL     1       6.381   0.155  25.301  0.00  0.00    +0.015 A 
ENDROOT
BRANCH   1  14
ATOM      8  C   UNL     1      10.953   4.787  23.534  0.00  0.00    +0.063 A 
ATOM      9  C   UNL     1      10.917   3.382  23.475  0.00  0.00    +0.045 A 
ATOM     10  C   UNL     1       9.712   2.726  23.736  0.00  0.00    +0.090 A 
ATOM     11  C   UNL     1       8.594   3.467  24.073  0.00  0.00    +0.067 A 
ATOM     12  N   UNL     1       7.641   2.518  24.270  0.00  0.00    -0.338 N 
ATOM     13  H   UNL     1       6.668   2.599  24.562  0.00  0.00    +0.167 HD
ATOM     14  C   UNL     1       8.187   1.272  24.074  0.00  0.00    +0.139 A 
ATOM     15  C   UNL     1       8.578   4.853  24.167  0.00  0.00    +0.028 A 
ATOM     16  N   UNL     1       9.460   1.396  23.732  0.00  0.00    -0.228 NA
ATOM     17  C   UNL     1       9.786   5.501  23.877  0.00  0.00    +0.018 A 
BRANCH   8  21
ATOM     18  N   UNL     1      12.757   5.363  22.053  0.00  0.00    -0.250 N 
ATOM     19  H   UNL     1      12.266   4.839  21.337  0.00  0.00    +0.288 HD
ATOM     20  H   UNL     1      13.624   5.815  21.807  0.00  0.00    +0.288 HD
ATOM     21  C   UNL     1      12.209   5.484  23.245  0.00  0.00    +0.266 C 
ATOM     22  N   UNL     1      12.776   6.224  24.175  0.00  0.00    -0.288 N 
ATOM     23  H   UNL     1      13.625   6.746  24.027  0.00  0.00    +0.301 HD
ATOM     24  H   UNL     1      12.335   6.299  25.089  0.00  0.00    +0.301 HD
ENDBRANCH   8  21
ENDBRANCH   1  14
BRANCH   4  25
ATOM     25  C   UNL     1       6.705  -3.528  22.985  0.00  0.00    +0.017 A 
ATOM     26  C   UNL     1       5.957  -3.719  21.799  0.00  0.00    +0.011 A 
ATOM     27  C   UNL     1       6.051  -4.870  21.005  0.00  0.00    +0.001 A 
ATOM     28  C   UNL     1       6.856  -5.923  21.410  0.00  0.00    +0.003 A 
ATOM     29  C   UNL     1       7.561  -5.806  22.602  0.00  0.00    +0.039 A 
ATOM     30  C   UNL     1       7.495  -4.628  23.363  0.00  0.00    +0.131 A 
ATOM     31  F   UNL     1       8.245  -4.607  24.476  0.00  0.00    -0.205 F 
ENDBRANCH   4  25
BRANCH   6  32
ATOM     32  C   UNL     1       4.445  -0.791  26.656  0.00  0.00    +0.070 C 
BRANCH  32  33
ATOM     33  C   UNL     1       3.907   0.586  27.142  0.00  0.00    +0.049 C 
ATOM     34  O   UNL     1       3.102   1.165  26.334  0.00  0.00    -0.549 OA
ATOM     35  O   UNL     1       4.432   1.121  28.165  0.00  0.00    -0.549 OA
ENDBRANCH  32  33
BRANCH  32  36
ATOM     36  C   UNL     1       4.765  -1.759  27.815  0.00  0.00    +0.066 C 
BRANCH  36  37
ATOM     37  C   UNL     1       4.023  -3.084  28.024  0.00  0.00    +0.043 C 
ATOM     38  O   UNL     1       3.060  -3.012  28.858  0.00  0.00    -0.550 OA
ATOM     39  O   UNL     1       4.438  -4.113  27.427  0.00  0.00    -0.550 OA
ENDBRANCH  36  37
ENDBRANCH  32  36
ENDBRANCH   6  32
TORSDOF 7
ENDMDL
MODEL 8
REMARK VINA RESULT:      -6.7      3.692      5.494
REMARK  Name = 
REMARK  7 active torsions:
REMARK  status: ('A' for Active; 'I' for Inactive)
REMARK    1  A    between atoms: C_2  and  C_6
REMARK    2  A    between atoms: C_11  and  C_15
REMARK    3  A    between atoms: C_17  and  C_29
REMARK    4  A    between atoms: C_19  and  C_22
REMARK    5  A    between atoms: C_29  and  C_31
REMARK    6  A    between atoms: C_29  and  C_35
REMARK    7  A    between atoms: C_31  and  C_32
REMARK                            x       y       z     vdW  Elec       q    Type
REMARK                         _______ _______ _______ _____ _____    ______ ____
ROOT
ATOM      1  C   UNL     1       6.574  -0.872  24.717  0.00  0.00    +0.010 A 
ATOM      2  C   UNL     1       5.300  -0.872  25.423  0.00  0.00    -0.090 A 
ATOM      3  O   UNL     1       4.651   0.226  25.658  0.00  0.00    -0.873 OA
ATOM      4  C   UNL     1       4.822  -2.182  25.816  0.00  0.00    -0.022 A 
ATOM      5  C   UNL     1       5.577  -3.343  25.438  0.00  0.00    +0.012 A 
ATOM      6  C   UNL     1       6.771  -3.306  24.685  0.00  0.00    -0.037 A 
ATOM      7  C   UNL     1       7.248  -2.054  24.338  0.00  0.00    +0.015 A 
ENDROOT
BRANCH   1  14
ATOM      8  C   UNL     1       9.584   4.197  23.718  0.00  0.00    +0.063 A 
ATOM      9  C   UNL     1       9.741   2.849  24.088  0.00  0.00    +0.045 A 
ATOM     10  C   UNL     1       8.614   2.026  24.133  0.00  0.00    +0.090 A 
ATOM     11  C   UNL     1       7.371   2.560  23.841  0.00  0.00    +0.067 A 
ATOM     12  N   UNL     1       6.534   1.500  24.000  0.00  0.00    -0.338 N 
ATOM     13  H   UNL     1       5.520   1.432  23.920  0.00  0.00    +0.167 HD
ATOM     14  C   UNL     1       7.257   0.398  24.389  0.00  0.00    +0.139 A 
ATOM     15  C   UNL     1       7.155   3.886  23.491  0.00  0.00    +0.028 A 
ATOM     16  N   UNL     1       8.541   0.715  24.458  0.00  0.00    -0.228 NA
ATOM     17  C   UNL     1       8.298   4.695  23.424  0.00  0.00    +0.018 A 
BRANCH   8  21
ATOM     18  N   UNL     1      10.742   6.235  24.254  0.00  0.00    -0.250 N 
ATOM     19  H   UNL     1       9.929   6.490  24.805  0.00  0.00    +0.288 HD
ATOM     20  H   UNL     1      11.524   6.871  24.231  0.00  0.00    +0.288 HD
ATOM     21  C   UNL     1      10.765   5.064  23.652  0.00  0.00    +0.266 C 
ATOM     22  N   UNL     1      11.834   4.663  22.996  0.00  0.00    -0.288 N 
ATOM     23  H   UNL     1      12.683   5.204  22.937  0.00  0.00    +0.301 HD
ATOM     24  H   UNL     1      11.825   3.756  22.537  0.00  0.00    +0.301 HD
ENDBRANCH   8  21
ENDBRANCH   1  14
BRANCH   4  25
ATOM     25  C   UNL     1       3.539  -2.367  26.615  0.00  0.00    +0.017 A 
ATOM     26  C   UNL     1       2.380  -2.936  26.037  0.00  0.00    +0.011 A 
ATOM     27  C   UNL     1       1.214  -3.215  26.763  0.00  0.00    +0.001 A 
ATOM     28  C   UNL     1       1.135  -2.863  28.102  0.00  0.00    +0.003 A 
ATOM     29  C   UNL     1       2.227  -2.243  28.695  0.00  0.00    +0.039 A 
ATOM     30  C   UNL     1       3.406  -2.013  27.969  0.00  0.00    +0.131 A 
ATOM     31  F   UNL     1       4.412  -1.442  28.650  0.00  0.00    -0.205 F 
ENDBRANCH   4  25
BRANCH   6  32
ATOM     32  C   UNL     1       7.465  -4.588  24.219  0.00  0.00    +0.070 C 
BRANCH  32  33
ATOM     33  C   UNL     1       8.715  -5.134  24.967  0.00  0.00    +0.049 C 
ATOM     34  O   UNL     1       8.457  -5.890  25.966  0.00  0.00    -0.549 OA
ATOM     35  O   UNL     1       9.855  -4.656  24.683  0.00  0.00    -0.549 OA
ENDBRANCH  32  33
BRANCH  32  36
ATOM     36  C   UNL     1       7.610  -4.634  22.684  0.00  0.00    +0.066 C 
BRANCH  36  37
ATOM     37  C   UNL     1       6.579  -5.304  21.769  0.00  0.00    +0.043 C 
ATOM     38  O   UNL     1       5.866  -4.482  21.102  0.00  0.00    -0.550 OA
ATOM     39  O   UNL     1       6.477  -6.561  21.786  0.00  0.00    -0.550 OA
ENDBRANCH  36  37
ENDBRANCH  32  36
ENDBRANCH   6  32
TORSDOF 7
ENDMDL
MODEL 9
REMARK VINA RESULT:      -6.6      5.473     10.487
REMARK  Name = 
REMARK  7 active torsions:
REMARK  status: ('A' for Active; 'I' for Inactive)
REMARK    1  A    between atoms: C_2  and  C_6
REMARK    2  A    between atoms: C_11  and  C_15
REMARK    3  A    between atoms: C_17  and  C_29
REMARK    4  A    between atoms: C_19  and  C_22
REMARK    5  A    between atoms: C_29  and  C_31
REMARK    6  A    between atoms: C_29  and  C_35
REMARK    7  A    between atoms: C_31  and  C_32
REMARK                            x       y       z     vdW  Elec       q    Type
REMARK                         _______ _______ _______ _____ _____    ______ ____
ROOT
ATOM      1  C   UNL     1       7.577   1.382  23.984  0.00  0.00    +0.010 A 
ATOM      2  C   UNL     1       8.868   2.054  24.049  0.00  0.00    -0.090 A 
ATOM      3  O   UNL     1       9.962   1.407  24.306  0.00  0.00    -0.873 OA
ATOM      4  C   UNL     1       8.826   3.479  23.789  0.00  0.00    -0.022 A 
ATOM      5  C   UNL     1       7.575   4.087  23.436  0.00  0.00    +0.012 A 
ATOM      6  C   UNL     1       6.356   3.386  23.307  0.00  0.00    -0.037 A 
ATOM      7  C   UNL     1       6.387   2.031  23.589  0.00  0.00    +0.015 A 
ENDROOT
BRANCH   1  14
ATOM      8  C   UNL     1       6.624  -4.309  25.549  0.00  0.00    +0.063 A 
ATOM      9  C   UNL     1       6.169  -3.284  24.700  0.00  0.00    +0.045 A 
ATOM     10  C   UNL     1       6.832  -2.055  24.711  0.00  0.00    +0.090 A 
ATOM     11  C   UNL     1       7.898  -1.866  25.573  0.00  0.00    +0.067 A 
ATOM     12  N   UNL     1       8.271  -0.582  25.327  0.00  0.00    -0.338 N 
ATOM     13  H   UNL     1       8.995  -0.004  25.752  0.00  0.00    +0.167 HD
ATOM     14  C   UNL     1       7.444  -0.038  24.373  0.00  0.00    +0.139 A 
ATOM     15  C   UNL     1       8.375  -2.835  26.447  0.00  0.00    +0.028 A 
ATOM     16  N   UNL     1       6.564  -0.948  23.982  0.00  0.00    -0.228 NA
ATOM     17  C   UNL     1       7.718  -4.072  26.407  0.00  0.00    +0.018 A 
BRANCH   8  21
ATOM     18  N   UNL     1       5.334  -6.005  24.434  0.00  0.00    -0.250 N 
ATOM     19  H   UNL     1       5.400  -5.431  23.600  0.00  0.00    +0.288 HD
ATOM     20  H   UNL     1       4.846  -6.884  24.373  0.00  0.00    +0.288 HD
ATOM     21  C   UNL     1       5.944  -5.608  25.532  0.00  0.00    +0.266 C 
ATOM     22  N   UNL     1       5.951  -6.365  26.610  0.00  0.00    -0.288 N 
ATOM     23  H   UNL     1       5.522  -7.276  26.650  0.00  0.00    +0.301 HD
ATOM     24  H   UNL     1       6.426  -6.034  27.446  0.00  0.00    +0.301 HD
ENDBRANCH   8  21
ENDBRANCH   1  14
BRANCH   4  25
ATOM     25  C   UNL     1      10.070   4.352  23.875  0.00  0.00    +0.017 A 
ATOM     26  C   UNL     1      11.288   3.971  23.264  0.00  0.00    +0.011 A 
ATOM     27  C   UNL     1      12.425   4.790  23.235  0.00  0.00    +0.001 A 
ATOM     28  C   UNL     1      12.411   6.013  23.888  0.00  0.00    +0.003 A 
ATOM     29  C   UNL     1      11.256   6.401  24.556  0.00  0.00    +0.039 A 
ATOM     30  C   UNL     1      10.109   5.591  24.536  0.00  0.00    +0.131 A 
ATOM     31  F   UNL     1       9.037   6.079  25.182  0.00  0.00    -0.205 F 
ENDBRANCH   4  25
BRANCH   6  32
ATOM     32  C   UNL     1       5.082   4.076  22.816  0.00  0.00    +0.070 C 
BRANCH  32  33
ATOM     33  C   UNL     1       4.812   5.573  23.141  0.00  0.00    +0.049 C 
ATOM     34  O   UNL     1       4.542   5.818  24.367  0.00  0.00    -0.549 OA
ATOM     35  O   UNL     1       4.680   6.393  22.182  0.00  0.00    -0.549 OA
ENDBRANCH  32  33
BRANCH  32  36
ATOM     36  C   UNL     1       3.838   3.181  23.004  0.00  0.00    +0.066 C 
BRANCH  36  37
ATOM     37  C   UNL     1       2.588   3.297  22.126  0.00  0.00    +0.043 C 
ATOM     38  O   UNL     1       1.566   2.696  22.599  0.00  0.00    -0.550 OA
ATOM     39  O   UNL     1       2.674   3.900  21.022  0.00  0.00    -0.550 OA
ENDBRANCH  36  37
ENDBRANCH  32  36
ENDBRANCH   6  32
TORSDOF 7
ENDMDL
