MODEL 1
REMARK VINA RESULT:      -6.8      0.000      0.000
REMARK  Name = 
REMARK  1 active torsions:
REMARK  status: ('A' for Active; 'I' for Inactive)
REMARK    1  A    between atoms: C_4  and  C_9
REMARK                            x       y       z     vdW  Elec       q    Type
REMARK                         _______ _______ _______ _____ _____    ______ ____
ROOT
ATOM      1  N   UNL     1       4.679  -2.910  27.731  0.00  0.00    -0.327 N 
ATOM      2  H   UNL     1       4.598  -3.406  28.608  0.00  0.00    +0.145 HD
ATOM      3  H   UNL     1       4.567  -1.907  27.755  0.00  0.00    +0.145 HD
ATOM      4  C   UNL     1       5.854  -3.258  27.094  0.00  0.00    +0.217 A 
ATOM      5  N   UNL     1       6.400  -4.414  27.429  0.00  0.00    -0.181 NA
ATOM      6  C   UNL     1       7.541  -4.688  26.821  0.00  0.00    +0.217 A 
ATOM      7  N   UNL     1       8.133  -5.907  27.091  0.00  0.00    -0.327 N 
ATOM      8  H   UNL     1       7.431  -6.569  27.391  0.00  0.00    +0.145 HD
ATOM      9  H   UNL     1       8.708  -6.182  26.305  0.00  0.00    +0.145 HD
ATOM     10  N   UNL     1       8.132  -3.915  25.931  0.00  0.00    -0.195 NA
ATOM     11  C   UNL     1       7.490  -2.790  25.633  0.00  0.00    +0.168 A 
ATOM     12  N   UNL     1       6.355  -2.400  26.220  0.00  0.00    -0.195 NA
ENDROOT
BRANCH  11  13
ATOM     13  C   UNL     1       8.058  -1.901  24.597  0.00  0.00    +0.034 A 
ATOM     14  C   UNL     1       7.957  -2.122  23.208  0.00  0.00    +0.029 A 
ATOM     15 BR   UNL     1       7.011  -3.582  22.422  0.00  0.00    -0.050 Br
ATOM     16  C   UNL     1       8.507  -1.217  22.284  0.00  0.00    +0.024 A 
ATOM     17  C   UNL     1       9.152  -0.048  22.706  0.00  0.00    -0.017 A 
ATOM     18  C   UNL     1       9.269   0.208  24.086  0.00  0.00    -0.017 A 
ATOM     19  C   UNL     1       9.905   1.387  24.509  0.00  0.00    +0.008 A 
ATOM     20  C   UNL     1      10.401   2.304  23.578  0.00  0.00    +0.001 A 
ATOM     21  C   UNL     1      10.278   2.050  22.216  0.00  0.00    +0.001 A 
ATOM     22  C   UNL     1       9.662   0.877  21.782  0.00  0.00    +0.008 A 
ATOM     23  C   UNL     1       8.733  -0.721  25.002  0.00  0.00    +0.021 A 
ENDBRANCH  11  13
TORSDOF 1
ENDMDL
MODEL 2
REMARK VINA RESULT:      -6.7      2.831      3.415
REMARK  Name = 
REMARK  1 active torsions:
REMARK  status: ('A' for Active; 'I' for Inactive)
REMARK    1  A    between atoms: C_4  and  C_9
REMARK                            x       y       z     vdW  Elec       q    Type
REMARK                         _______ _______ _______ _____ _____    ______ ____
ROOT
ATOM      1  N   UNL     1       3.487  -4.395  23.890  0.00  0.00    -0.327 N 
ATOM      2  H   UNL     1       3.087  -5.317  23.785  0.00  0.00    +0.145 HD
ATOM      3  H   UNL     1       3.539  -4.018  24.825  0.00  0.00    +0.145 HD
ATOM      4  C   UNL     1       4.719  -4.337  23.268  0.00  0.00    +0.217 A 
ATOM      5  N   UNL     1       4.953  -5.222  22.315  0.00  0.00    -0.181 NA
ATOM      6  C   UNL     1       6.156  -5.152  21.774  0.00  0.00    +0.217 A 
ATOM      7  N   UNL     1       6.442  -6.017  20.735  0.00  0.00    -0.327 N 
ATOM      8  H   UNL     1       5.585  -6.296  20.277  0.00  0.00    +0.145 HD
ATOM      9  H   UNL     1       7.159  -5.611  20.147  0.00  0.00    +0.145 HD
ATOM     10  N   UNL     1       7.090  -4.281  22.106  0.00  0.00    -0.195 NA
ATOM     11  C   UNL     1       6.748  -3.408  23.049  0.00  0.00    +0.168 A 
ATOM     12  N   UNL     1       5.575  -3.420  23.689  0.00  0.00    -0.195 NA
ENDROOT
BRANCH  11  13
ATOM     13  C   UNL     1       7.719  -2.361  23.432  0.00  0.00    +0.034 A 
ATOM     14  C   UNL     1       8.527  -2.401  24.587  0.00  0.00    +0.029 A 
ATOM     15 BR   UNL     1       8.549  -3.852  25.828  0.00  0.00    -0.050 Br
ATOM     16  C   UNL     1       9.443  -1.375  24.872  0.00  0.00    +0.024 A 
ATOM     17  C   UNL     1       9.610  -0.287  24.006  0.00  0.00    -0.017 A 
ATOM     18  C   UNL     1       8.822  -0.215  22.841  0.00  0.00    -0.017 A 
ATOM     19  C   UNL     1       8.999   0.871  21.966  0.00  0.00    +0.008 A 
ATOM     20  C   UNL     1       9.951   1.858  22.235  0.00  0.00    +0.001 A 
ATOM     21  C   UNL     1      10.730   1.779  23.384  0.00  0.00    +0.001 A 
ATOM     22  C   UNL     1      10.556   0.715  24.269  0.00  0.00    +0.008 A 
ATOM     23  C   UNL     1       7.890  -1.240  22.580  0.00  0.00    +0.021 A 
ENDBRANCH  11  13
TORSDOF 1
ENDMDL
MODEL 3
REMARK VINA RESULT:      -6.7      2.535      3.366
REMARK  Name = 
REMARK  1 active torsions:
REMARK  status: ('A' for Active; 'I' for Inactive)
REMARK    1  A    between atoms: C_4  and  C_9
REMARK                            x       y       z     vdW  Elec       q    Type
REMARK                         _______ _______ _______ _____ _____    ______ ____
ROOT
ATOM      1  N   UNL     1      10.180  -5.630  25.625  0.00  0.00    -0.327 N 
ATOM      2  H   UNL     1      10.347  -6.521  25.177  0.00  0.00    +0.145 HD
ATOM      3  H   UNL     1      10.989  -5.097  25.908  0.00  0.00    +0.145 HD
ATOM      4  C   UNL     1       9.331  -4.861  24.854  0.00  0.00    +0.217 A 
ATOM      5  N   UNL     1       8.553  -5.500  23.997  0.00  0.00    -0.181 NA
ATOM      6  C   UNL     1       7.784  -4.722  23.256  0.00  0.00    +0.217 A 
ATOM      7  N   UNL     1       6.910  -5.334  22.378  0.00  0.00    -0.327 N 
ATOM      8  H   UNL     1       6.695  -6.267  22.705  0.00  0.00    +0.145 HD
ATOM      9  H   UNL     1       6.122  -4.722  22.206  0.00  0.00    +0.145 HD
ATOM     10  N   UNL     1       7.741  -3.405  23.328  0.00  0.00    -0.195 NA
ATOM     11  C   UNL     1       8.533  -2.856  24.244  0.00  0.00    +0.168 A 
ATOM     12  N   UNL     1       9.378  -3.548  25.013  0.00  0.00    -0.195 NA
ENDROOT
BRANCH  11  13
ATOM     13  C   UNL     1       8.495  -1.390  24.428  0.00  0.00    +0.034 A 
ATOM     14  C   UNL     1       7.681  -0.721  25.365  0.00  0.00    +0.029 A 
ATOM     15 BR   UNL     1       6.529  -1.603  26.606  0.00  0.00    -0.050 Br
ATOM     16  C   UNL     1       7.717   0.678  25.495  0.00  0.00    +0.024 A 
ATOM     17  C   UNL     1       8.581   1.459  24.719  0.00  0.00    -0.017 A 
ATOM     18  C   UNL     1       9.411   0.825  23.774  0.00  0.00    -0.017 A 
ATOM     19  C   UNL     1      10.288   1.608  23.004  0.00  0.00    +0.008 A 
ATOM     20  C   UNL     1      10.351   2.993  23.180  0.00  0.00    +0.001 A 
ATOM     21  C   UNL     1       9.534   3.614  24.119  0.00  0.00    +0.001 A 
ATOM     22  C   UNL     1       8.649   2.851  24.880  0.00  0.00    +0.008 A 
ATOM     23  C   UNL     1       9.348  -0.577  23.638  0.00  0.00    +0.021 A 
ENDBRANCH  11  13
TORSDOF 1
ENDMDL
MODEL 4
REMARK VINA RESULT:      -6.6      5.599      7.724
REMARK  Name = 
REMARK  1 active torsions:
REMARK  status: ('A' for Active; 'I' for Inactive)
REMARK    1  A    between atoms: C_4  and  C_9
REMARK                            x       y       z     vdW  Elec       q    Type
REMARK                         _______ _______ _______ _____ _____    ______ ____
ROOT
ATOM      1  N   UNL     1      13.411   5.216  23.087  0.00  0.00    -0.327 N 
ATOM      2  H   UNL     1      13.849   5.980  23.585  0.00  0.00    +0.145 HD
ATOM      3  H   UNL     1      13.873   4.319  23.119  0.00  0.00    +0.145 HD
ATOM      4  C   UNL     1      12.087   5.101  23.463  0.00  0.00    +0.217 A 
ATOM      5  N   UNL     1      11.512   6.174  23.976  0.00  0.00    -0.181 NA
ATOM      6  C   UNL     1      10.257   6.007  24.354  0.00  0.00    +0.217 A 
ATOM      7  N   UNL     1       9.585   7.108  24.849  0.00  0.00    -0.327 N 
ATOM      8  H   UNL     1      10.002   7.954  24.486  0.00  0.00    +0.145 HD
ATOM      9  H   UNL     1       8.591   6.992  24.697  0.00  0.00    +0.145 HD
ATOM     10  N   UNL     1       9.573   4.884  24.242  0.00  0.00    -0.195 NA
ATOM     11  C   UNL     1      10.225   3.871  23.682  0.00  0.00    +0.168 A 
ATOM     12  N   UNL     1      11.506   3.923  23.305  0.00  0.00    -0.195 NA
ENDROOT
BRANCH  11  13
ATOM     13  C   UNL     1       9.506   2.597  23.465  0.00  0.00    +0.034 A 
ATOM     14  C   UNL     1       8.221   2.490  22.894  0.00  0.00    +0.029 A 
ATOM     15 BR   UNL     1       7.211   3.974  22.244  0.00  0.00    -0.050 Br
ATOM     16  C   UNL     1       7.611   1.240  22.701  0.00  0.00    +0.024 A 
ATOM     17  C   UNL     1       8.266   0.050  23.042  0.00  0.00    -0.017 A 
ATOM     18  C   UNL     1       9.552   0.117  23.611  0.00  0.00    -0.017 A 
ATOM     19  C   UNL     1      10.214  -1.078  23.942  0.00  0.00    +0.008 A 
ATOM     20  C   UNL     1       9.617  -2.317  23.696  0.00  0.00    +0.001 A 
ATOM     21  C   UNL     1       8.349  -2.379  23.127  0.00  0.00    +0.001 A 
ATOM     22  C   UNL     1       7.674  -1.201  22.808  0.00  0.00    +0.008 A 
ATOM     23  C   UNL     1      10.142   1.380  23.821  0.00  0.00    +0.021 A 
ENDBRANCH  11  13
TORSDOF 1
ENDMDL
MODEL 5
REMARK VINA RESULT:      -6.5      3.860      6.337
REMARK  Name = 
REMARK  1 active torsions:
REMARK  status: ('A' for Active; 'I' for Inactive)
REMARK    1  A    between atoms: C_4  and  C_9
REMARK                            x       y       z     vdW  Elec       q    Type
REMARK                         _______ _______ _______ _____ _____    ______ ____
ROOT
ATOM      1  N   UNL     1       8.983   2.233  21.452  0.00  0.00    -0.327 N 
ATOM      2  H   UNL     1       9.855   2.731  21.329  0.00  0.00    +0.145 HD
ATOM      3  H   UNL     1       8.560   1.830  20.629  0.00  0.00    +0.145 HD
ATOM      4  C   UNL     1       9.113   1.287  22.450  0.00  0.00    +0.217 A 
ATOM      5  N   UNL     1      10.075   1.476  23.337  0.00  0.00    -0.181 NA
ATOM      6  C   UNL     1      10.185   0.528  24.250  0.00  0.00    +0.217 A 
ATOM      7  N   UNL     1      11.138   0.696  25.236  0.00  0.00    -0.327 N 
ATOM      8  H   UNL     1      11.338   1.680  25.354  0.00  0.00    +0.145 HD
ATOM      9  H   UNL     1      10.859   0.188  26.065  0.00  0.00    +0.145 HD
ATOM     10  N   UNL     1       9.416  -0.540  24.333  0.00  0.00    -0.195 NA
ATOM     11  C   UNL     1       8.453  -0.624  23.420  0.00  0.00    +0.168 A 
ATOM     12  N   UNL     1       8.284   0.256  22.429  0.00  0.00    -0.195 NA
ENDROOT
BRANCH  11  13
ATOM     13  C   UNL     1       7.511  -1.762  23.484  0.00  0.00    +0.034 A 
ATOM     14  C   UNL     1       6.322  -1.775  24.244  0.00  0.00    +0.029 A 
ATOM     15 BR   UNL     1       5.693  -0.297  25.275  0.00  0.00    -0.050 Br
ATOM     16  C   UNL     1       5.466  -2.889  24.237  0.00  0.00    +0.024 A 
ATOM     17  C   UNL     1       5.744  -4.017  23.455  0.00  0.00    -0.017 A 
ATOM     18  C   UNL     1       6.920  -4.037  22.681  0.00  0.00    -0.017 A 
ATOM     19  C   UNL     1       7.193  -5.165  21.886  0.00  0.00    +0.008 A 
ATOM     20  C   UNL     1       6.306  -6.243  21.848  0.00  0.00    +0.001 A 
ATOM     21  C   UNL     1       5.142  -6.215  22.610  0.00  0.00    +0.001 A 
ATOM     22  C   UNL     1       4.866  -5.110  23.414  0.00  0.00    +0.008 A 
ATOM     23  C   UNL     1       7.783  -2.922  22.716  0.00  0.00    +0.021 A 
ENDBRANCH  11  13
TORSDOF 1
ENDMDL
MODEL 6
REMARK VINA RESULT:      -6.4      2.683      3.534
REMARK  Name = 
REMARK  1 active torsions:
REMARK  status: ('A' for Active; 'I' for Inactive)
REMARK    1  A    between atoms: C_4  and  C_9
REMARK                            x       y       z     vdW  Elec       q    Type
REMARK                         _______ _______ _______ _____ _____    ______ ____
ROOT
ATOM      1  N   UNL     1       5.166  -7.299  27.942  0.00  0.00    -0.327 N 
ATOM      2  H   UNL     1       4.707  -8.199  27.987  0.00  0.00    +0.145 HD
ATOM      3  H   UNL     1       6.097  -7.236  28.328  0.00  0.00    +0.145 HD
ATOM      4  C   UNL     1       5.137  -6.815  26.649  0.00  0.00    +0.217 A 
ATOM      5  N   UNL     1       4.198  -7.291  25.850  0.00  0.00    -0.181 NA
ATOM      6  C   UNL     1       4.232  -6.826  24.614  0.00  0.00    +0.217 A 
ATOM      7  N   UNL     1       3.243  -7.246  23.745  0.00  0.00    -0.327 N 
ATOM      8  H   UNL     1       2.423  -7.522  24.268  0.00  0.00    +0.145 HD
ATOM      9  H   UNL     1       3.107  -6.547  23.026  0.00  0.00    +0.145 HD
ATOM     10  N   UNL     1       5.101  -5.946  24.156  0.00  0.00    -0.195 NA
ATOM     11  C   UNL     1       5.984  -5.499  25.043  0.00  0.00    +0.168 A 
ATOM     12  N   UNL     1       6.063  -5.935  26.303  0.00  0.00    -0.195 NA
ENDROOT
BRANCH  11  13
ATOM     13  C   UNL     1       6.951  -4.463  24.622  0.00  0.00    +0.034 A 
ATOM     14  C   UNL     1       7.530  -4.382  23.338  0.00  0.00    +0.029 A 
ATOM     15 BR   UNL     1       7.113  -5.565  21.899  0.00  0.00    -0.050 Br
ATOM     16  C   UNL     1       8.427  -3.354  23.006  0.00  0.00    +0.024 A 
ATOM     17  C   UNL     1       8.761  -2.354  23.928  0.00  0.00    -0.017 A 
ATOM     18  C   UNL     1       8.200  -2.400  25.219  0.00  0.00    -0.017 A 
ATOM     19  C   UNL     1       8.526  -1.389  26.140  0.00  0.00    +0.008 A 
ATOM     20  C   UNL     1       9.379  -0.343  25.780  0.00  0.00    +0.001 A 
ATOM     21  C   UNL     1       9.925  -0.298  24.502  0.00  0.00    +0.001 A 
ATOM     22  C   UNL     1       9.624  -1.302  23.582  0.00  0.00    +0.008 A 
ATOM     23  C   UNL     1       7.319  -3.452  25.545  0.00  0.00    +0.021 A 
ENDBRANCH  11  13
TORSDOF 1
ENDMDL
MODEL 7
REMARK VINA RESULT:      -6.3      2.167      2.972
REMARK  Name = 
REMARK  1 active torsions:
REMARK  status: ('A' for Active; 'I' for Inactive)
REMARK    1  A    between atoms: C_4  and  C_9
REMARK                            x       y       z     vdW  Elec       q    Type
REMARK                         _______ _______ _______ _____ _____    ______ ____
ROOT
ATOM      1  N   UNL     1       8.048  -5.947  27.279  0.00  0.00    -0.327 N 
ATOM      2  H   UNL     1       7.968  -6.954  27.322  0.00  0.00    +0.145 HD
ATOM      3  H   UNL     1       8.971  -5.563  27.142  0.00  0.00    +0.145 HD
ATOM      4  C   UNL     1       7.163  -5.440  26.349  0.00  0.00    +0.217 A 
ATOM      5  N   UNL     1       6.115  -6.187  26.045  0.00  0.00    -0.181 NA
ATOM      6  C   UNL     1       5.316  -5.677  25.125  0.00  0.00    +0.217 A 
ATOM      7  N   UNL     1       4.175  -6.387  24.803  0.00  0.00    -0.327 N 
ATOM      8  H   UNL     1       3.909  -6.976  25.581  0.00  0.00    +0.145 HD
ATOM      9  H   UNL     1       3.469  -5.751  24.455  0.00  0.00    +0.145 HD
ATOM     10  N   UNL     1       5.488  -4.513  24.529  0.00  0.00    -0.195 NA
ATOM     11  C   UNL     1       6.549  -3.818  24.926  0.00  0.00    +0.168 A 
ATOM     12  N   UNL     1       7.442  -4.261  25.816  0.00  0.00    -0.195 NA
ENDROOT
BRANCH  11  13
ATOM     13  C   UNL     1       6.775  -2.475  24.349  0.00  0.00    +0.034 A 
ATOM     14  C   UNL     1       6.094  -1.307  24.748  0.00  0.00    +0.029 A 
ATOM     15 BR   UNL     1       4.799  -1.248  26.150  0.00  0.00    -0.050 Br
ATOM     16  C   UNL     1       6.380  -0.061  24.165  0.00  0.00    +0.024 A 
ATOM     17  C   UNL     1       7.373   0.073  23.186  0.00  0.00    -0.017 A 
ATOM     18  C   UNL     1       8.077  -1.071  22.766  0.00  0.00    -0.017 A 
ATOM     19  C   UNL     1       9.081  -0.933  21.792  0.00  0.00    +0.008 A 
ATOM     20  C   UNL     1       9.392   0.320  21.259  0.00  0.00    +0.001 A 
ATOM     21  C   UNL     1       8.698   1.448  21.682  0.00  0.00    +0.001 A 
ATOM     22  C   UNL     1       7.689   1.325  22.636  0.00  0.00    +0.008 A 
ATOM     23  C   UNL     1       7.762  -2.319  23.342  0.00  0.00    +0.021 A 
ENDBRANCH  11  13
TORSDOF 1
ENDMDL
MODEL 8
REMARK VINA RESULT:      -6.3      3.555      6.604
REMARK  Name = 
REMARK  1 active torsions:
REMARK  status: ('A' for Active; 'I' for Inactive)
REMARK    1  A    between atoms: C_4  and  C_9
REMARK                            x       y       z     vdW  Elec       q    Type
REMARK                         _______ _______ _______ _____ _____    ______ ____
ROOT
ATOM      1  N   UNL     1       9.673   0.204  25.705  0.00  0.00    -0.327 N 
ATOM      2  H   UNL     1       9.983   1.076  25.298  0.00  0.00    +0.145 HD
ATOM      3  H   UNL     1       8.965   0.254  26.422  0.00  0.00    +0.145 HD
ATOM      4  C   UNL     1       9.303  -0.680  24.710  0.00  0.00    +0.217 A 
ATOM      5  N   UNL     1       9.810  -0.478  23.507  0.00  0.00    -0.181 NA
ATOM      6  C   UNL     1       9.400  -1.325  22.580  0.00  0.00    +0.217 A 
ATOM      7  N   UNL     1       9.936  -1.198  21.313  0.00  0.00    -0.327 N 
ATOM      8  H   UNL     1      10.841  -0.749  21.369  0.00  0.00    +0.145 HD
ATOM      9  H   UNL     1       9.903  -2.093  20.841  0.00  0.00    +0.145 HD
ATOM     10  N   UNL     1       8.561  -2.323  22.781  0.00  0.00    -0.195 NA
ATOM     11  C   UNL     1       8.133  -2.468  24.031  0.00  0.00    +0.168 A 
ATOM     12  N   UNL     1       8.453  -1.642  25.030  0.00  0.00    -0.195 NA
ENDROOT
BRANCH  11  13
ATOM     13  C   UNL     1       7.239  -3.603  24.348  0.00  0.00    +0.034 A 
ATOM     14  C   UNL     1       7.508  -4.587  25.321  0.00  0.00    +0.029 A 
ATOM     15 BR   UNL     1       9.053  -4.589  26.443  0.00  0.00    -0.050 Br
ATOM     16  C   UNL     1       6.597  -5.625  25.580  0.00  0.00    +0.024 A 
ATOM     17  C   UNL     1       5.375  -5.706  24.902  0.00  0.00    -0.017 A 
ATOM     18  C   UNL     1       5.070  -4.738  23.926  0.00  0.00    -0.017 A 
ATOM     19  C   UNL     1       3.837  -4.812  23.254  0.00  0.00    +0.008 A 
ATOM     20  C   UNL     1       2.917  -5.819  23.559  0.00  0.00    +0.001 A 
ATOM     21  C   UNL     1       3.220  -6.769  24.528  0.00  0.00    +0.001 A 
ATOM     22  C   UNL     1       4.446  -6.717  25.192  0.00  0.00    +0.008 A 
ATOM     23  C   UNL     1       6.004  -3.716  23.659  0.00  0.00    +0.021 A 
ENDBRANCH  11  13
TORSDOF 1
ENDMDL
MODEL 9
REMARK VINA RESULT:      -6.2      4.005      6.626
REMARK  Name = 
REMARK  1 active torsions:
REMARK  status: ('A' for Active; 'I' for Inactive)
REMARK    1  A    between atoms: C_4  and  C_9
REMARK                            x       y       z     vdW  Elec       q    Type
REMARK                         _______ _______ _______ _____ _____    ______ ____
ROOT
ATOM      1  N   UNL     1       5.766   3.243  22.289  0.00  0.00    -0.327 N 
ATOM      2  H   UNL     1       5.974   3.950  21.596  0.00  0.00    +0.145 HD
ATOM      3  H   UNL     1       4.873   2.778  22.219  0.00  0.00    +0.145 HD
ATOM      4  C   UNL     1       6.794   2.324  22.354  0.00  0.00    +0.217 A 
ATOM      5  N   UNL     1       7.981   2.718  21.923  0.00  0.00    -0.181 NA
ATOM      6  C   UNL     1       8.925   1.795  21.972  0.00  0.00    +0.217 A 
ATOM      7  N   UNL     1      10.199   2.162  21.585  0.00  0.00    -0.327 N 
ATOM      8  H   UNL     1      10.318   3.160  21.702  0.00  0.00    +0.145 HD
ATOM      9  H   UNL     1      10.876   1.568  22.048  0.00  0.00    +0.145 HD
ATOM     10  N   UNL     1       8.762   0.564  22.417  0.00  0.00    -0.195 NA
ATOM     11  C   UNL     1       7.544   0.273  22.862  0.00  0.00    +0.168 A 
ATOM     12  N   UNL     1       6.511   1.118  22.818  0.00  0.00    -0.195 NA
ENDROOT
BRANCH  11  13
ATOM     13  C   UNL     1       7.299  -1.068  23.435  0.00  0.00    +0.034 A 
ATOM     14  C   UNL     1       7.800  -1.513  24.676  0.00  0.00    +0.029 A 
ATOM     15 BR   UNL     1       8.834  -0.433  25.863  0.00  0.00    -0.050 Br
ATOM     16  C   UNL     1       7.506  -2.797  25.163  0.00  0.00    +0.024 A 
ATOM     17  C   UNL     1       6.681  -3.675  24.449  0.00  0.00    -0.017 A 
ATOM     18  C   UNL     1       6.160  -3.264  23.207  0.00  0.00    -0.017 A 
ATOM     19  C   UNL     1       5.322  -4.141  22.496  0.00  0.00    +0.008 A 
ATOM     20  C   UNL     1       4.994  -5.395  23.017  0.00  0.00    +0.001 A 
ATOM     21  C   UNL     1       5.506  -5.794  24.246  0.00  0.00    +0.001 A 
ATOM     22  C   UNL     1       6.351  -4.941  24.956  0.00  0.00    +0.008 A 
ATOM     23  C   UNL     1       6.483  -1.981  22.719  0.00  0.00    +0.021 A 
ENDBRANCH  11  13
TORSDOF 1
ENDMDL
