MODEL 1
REMARK VINA RESULT:      -7.5      0.000      0.000
REMARK  Name = 
REMARK  18 active torsions:
REMARK  status: ('A' for Active; 'I' for Inactive)
REMARK    1  A    between atoms: C_1  and  C_2
REMARK    2  A    between atoms: C_2  and  C_3
REMARK    3  A    between atoms: C_3  and  O_4
REMARK    4  A    between atoms: C_6  and  O_8
REMARK    5  A    between atoms: O_8  and  C_9
REMARK    6  A    between atoms: C_12  and  N_44
REMARK    7  A    between atoms: C_14  and  O_16
REMARK    8  A    between atoms: O_16  and  C_17
REMARK    9  A    between atoms: C_20  and  O_22
REMARK   10  A    between atoms: C_23  and  O_25
REMARK   11  A    between atoms: O_25  and  C_26
REMARK   12  A    between atoms: C_32  and  C_34
REMARK   13  A    between atoms: C_36  and  C_38
REMARK   14  A    between atoms: C_40  and  C_42
REMARK   15  A    between atoms: N_44  and  C_45
REMARK   16  A    between atoms: N_44  and  C_46
REMARK   17  A    between atoms: C_48  and  O_49
REMARK   18  A    between atoms: C_61  and  O_62
REMARK                            x       y       z     vdW  Elec       q    Type
REMARK                         _______ _______ _______ _____ _____    ______ ____
ROOT
ATOM      1  O   UNL     1       8.966   2.414  24.459  0.00  0.00    -0.343 OA
ENDROOT
BRANCH   1  19
ATOM      2  C   UNL     1      10.388   5.093  23.828  0.00  0.00    +0.072 C 
ATOM      3  C   UNL     1       9.286   5.986  23.203  0.00  0.00    +0.070 C 
ATOM      4  C   UNL     1       7.882   5.393  23.303  0.00  0.00    -0.035 A 
ATOM      5  C   UNL     1       7.600   4.289  24.125  0.00  0.00    +0.027 A 
ATOM      6  C   UNL     1       6.300   3.743  24.117  0.00  0.00    +0.134 A 
ATOM      7  C   UNL     1       5.231   4.346  23.444  0.00  0.00    +0.075 A 
ATOM      8  C   UNL     1       3.834   3.845  23.604  0.00  0.00    +0.202 C 
ATOM      9  O   UNL     1       3.549   3.037  24.478  0.00  0.00    -0.286 OA
ATOM     10  C   UNL     1       2.760   4.410  22.755  0.00  0.00    +0.075 A 
ATOM     11  C   UNL     1       3.051   5.522  21.955  0.00  0.00    +0.037 A 
ATOM     12  C   UNL     1       2.038   6.115  21.188  0.00  0.00    +0.012 A 
ATOM     13  C   UNL     1       0.740   5.604  21.216  0.00  0.00    +0.004 A 
ATOM     14  C   UNL     1       0.446   4.493  21.997  0.00  0.00    +0.046 A 
ATOM     15  C   UNL     1       4.411   6.098  21.914  0.00  0.00    +0.195 C 
ATOM     16  O   UNL     1       4.634   7.107  21.253  0.00  0.00    -0.287 OA
ATOM     17  C   UNL     1       1.451   3.894  22.756  0.00  0.00    +0.128 A 
ATOM     18  C   UNL     1       5.507   5.459  22.666  0.00  0.00    +0.037 A 
ATOM     19  C   UNL     1       8.664   3.687  25.022  0.00  0.00    +0.158 C 
ATOM     20  C   UNL     1       6.821   5.971  22.578  0.00  0.00    +0.016 A 
ATOM     21  C   UNL     1       9.876   4.598  25.184  0.00  0.00    +0.071 C 
BRANCH   2  23
ATOM     22  C   UNL     1      12.840   5.503  23.094  0.00  0.00    +0.007 C 
ATOM     23  C   UNL     1      11.730   5.809  24.088  0.00  0.00    +0.032 C 
ENDBRANCH   2  23
BRANCH   2  24
ATOM     24  O   UNL     1      10.687   4.003  22.950  0.00  0.00    -0.388 OA
ATOM     25  H   UNL     1      10.180   4.104  22.119  0.00  0.00    +0.210 HD
ENDBRANCH   2  24
BRANCH  17  26
ATOM     26  O   UNL     1       1.126   2.787  23.489  0.00  0.00    -0.506 OA
ATOM     27  H   UNL     1       0.610   3.028  24.274  0.00  0.00    +0.292 HD
ENDBRANCH  17  26
BRANCH   6  28
ATOM     28  O   UNL     1       6.050   2.560  24.734  0.00  0.00    -0.506 OA
ATOM     29  H   UNL     1       5.831   1.833  24.118  0.00  0.00    +0.292 HD
ENDBRANCH   6  28
ENDBRANCH   1  19
BRANCH   1  30
ATOM     30  C   UNL     1       8.337   1.284  25.054  0.00  0.00    +0.253 C 
ATOM     31  O   UNL     1       9.302   0.532  25.784  0.00  0.00    -0.346 OA
ATOM     32  C   UNL     1      10.172  -0.291  25.006  0.00  0.00    +0.149 C 
ATOM     33  C   UNL     1      11.313   0.506  24.388  0.00  0.00    +0.041 C 
ATOM     34  C   UNL     1       9.385  -1.194  24.030  0.00  0.00    +0.167 C 
ATOM     35  C   UNL     1       8.407  -0.404  23.117  0.00  0.00    +0.092 C 
ATOM     36  C   UNL     1       7.528   0.417  24.081  0.00  0.00    +0.083 C 
BRANCH  35  37
ATOM     37  N   UNL     1       9.006   0.381  22.015  0.00  0.00    -0.303 NA
ATOM     38  C   UNL     1       9.389  -0.441  20.848  0.00  0.00    +0.105 C 
ATOM     39  C   UNL     1       8.070   1.407  21.499  0.00  0.00    +0.105 C 
ENDBRANCH  35  37
BRANCH  34  40
ATOM     40  O   UNL     1       8.638  -2.101  24.875  0.00  0.00    -0.344 OA
BRANCH  40  41
ATOM     41  C   UNL     1       9.164  -3.402  25.064  0.00  0.00    +0.254 C 
ATOM     42  O   UNL     1       8.741  -4.239  23.989  0.00  0.00    -0.346 OA
ATOM     43  C   UNL     1       7.344  -4.527  23.946  0.00  0.00    +0.150 C 
ATOM     44  C   UNL     1       6.517  -3.403  23.313  0.00  0.00    +0.041 C 
ATOM     45  C   UNL     1       6.845  -5.084  25.300  0.00  0.00    +0.178 C 
ATOM     46  C   UNL     1       7.269  -4.197  26.489  0.00  0.00    +0.151 C 
ATOM     47  C   UNL     1       8.779  -3.987  26.420  0.00  0.00    +0.095 C 
BRANCH  46  48
ATOM     48  O   UNL     1       6.583  -2.948  26.548  0.00  0.00    -0.389 OA
ATOM     49  H   UNL     1       5.696  -3.065  26.160  0.00  0.00    +0.210 HD
ENDBRANCH  46  48
BRANCH  45  50
ATOM     50  O   UNL     1       5.452  -5.406  25.352  0.00  0.00    -0.343 OA
BRANCH  50  51
ATOM     51  C   UNL     1       5.162  -6.712  25.849  0.00  0.00    +0.252 C 
ATOM     52  O   UNL     1       4.323  -7.421  24.941  0.00  0.00    -0.341 OA
ATOM     53  C   UNL     1       2.990  -6.928  24.859  0.00  0.00    +0.184 C 
ATOM     54  C   UNL     1       2.216  -7.913  23.996  0.00  0.00    +0.046 C 
ATOM     55  C   UNL     1       2.349  -6.780  26.242  0.00  0.00    +0.162 C 
ATOM     56  O   UNL     1       1.219  -7.173  26.526  0.00  0.00    -0.295 OA
ATOM     57  C   UNL     1       3.191  -6.041  27.245  0.00  0.00    +0.082 C 
ATOM     58  C   UNL     1       4.552  -6.713  27.256  0.00  0.00    +0.069 C 
ENDBRANCH  50  51
ENDBRANCH  45  50
ENDBRANCH  40  41
ENDBRANCH  34  40
ENDBRANCH   1  30
TORSDOF 12
ENDMDL
MODEL 2
REMARK VINA RESULT:      -6.7      2.572      3.000
REMARK  Name = 
REMARK  18 active torsions:
REMARK  status: ('A' for Active; 'I' for Inactive)
REMARK    1  A    between atoms: C_1  and  C_2
REMARK    2  A    between atoms: C_2  and  C_3
REMARK    3  A    between atoms: C_3  and  O_4
REMARK    4  A    between atoms: C_6  and  O_8
REMARK    5  A    between atoms: O_8  and  C_9
REMARK    6  A    between atoms: C_12  and  N_44
REMARK    7  A    between atoms: C_14  and  O_16
REMARK    8  A    between atoms: O_16  and  C_17
REMARK    9  A    between atoms: C_20  and  O_22
REMARK   10  A    between atoms: C_23  and  O_25
REMARK   11  A    between atoms: O_25  and  C_26
REMARK   12  A    between atoms: C_32  and  C_34
REMARK   13  A    between atoms: C_36  and  C_38
REMARK   14  A    between atoms: C_40  and  C_42
REMARK   15  A    between atoms: N_44  and  C_45
REMARK   16  A    between atoms: N_44  and  C_46
REMARK   17  A    between atoms: C_48  and  O_49
REMARK   18  A    between atoms: C_61  and  O_62
REMARK                            x       y       z     vdW  Elec       q    Type
REMARK                         _______ _______ _______ _____ _____    ______ ____
ROOT
ATOM      1  O   UNL     1       8.069   2.302  24.360  0.00  0.00    -0.343 OA
ENDROOT
BRANCH   1  19
ATOM      2  C   UNL     1       8.923   5.212  23.727  0.00  0.00    +0.072 C 
ATOM      3  C   UNL     1       7.821   6.093  24.369  0.00  0.00    +0.070 C 
ATOM      4  C   UNL     1       6.849   5.317  25.257  0.00  0.00    -0.035 A 
ATOM      5  C   UNL     1       7.108   3.997  25.662  0.00  0.00    +0.027 A 
ATOM      6  C   UNL     1       6.137   3.311  26.420  0.00  0.00    +0.134 A 
ATOM      7  C   UNL     1       4.990   3.935  26.921  0.00  0.00    +0.075 A 
ATOM      8  C   UNL     1       4.076   3.230  27.868  0.00  0.00    +0.202 C 
ATOM      9  O   UNL     1       4.405   2.176  28.396  0.00  0.00    -0.286 OA
ATOM     10  C   UNL     1       2.795   3.869  28.251  0.00  0.00    +0.075 A 
ATOM     11  C   UNL     1       2.559   5.191  27.856  0.00  0.00    +0.037 A 
ATOM     12  C   UNL     1       1.382   5.840  28.255  0.00  0.00    +0.012 A 
ATOM     13  C   UNL     1       0.444   5.177  29.044  0.00  0.00    +0.004 A 
ATOM     14  C   UNL     1       0.663   3.860  29.430  0.00  0.00    +0.046 A 
ATOM     15  C   UNL     1       3.541   5.928  27.033  0.00  0.00    +0.195 C 
ATOM     16  O   UNL     1       3.345   7.104  26.745  0.00  0.00    -0.287 OA
ATOM     17  C   UNL     1       1.829   3.206  29.029  0.00  0.00    +0.128 A 
ATOM     18  C   UNL     1       4.759   5.250  26.551  0.00  0.00    +0.037 A 
ATOM     19  C   UNL     1       8.411   3.309  25.307  0.00  0.00    +0.158 C 
ATOM     20  C   UNL     1       5.667   5.934  25.712  0.00  0.00    +0.016 A 
ATOM     21  C   UNL     1       9.474   4.287  24.817  0.00  0.00    +0.071 C 
BRANCH   2  23
ATOM     22  C   UNL     1      11.475   5.657  23.760  0.00  0.00    +0.007 C 
ATOM     23  C   UNL     1      10.122   5.993  23.152  0.00  0.00    +0.032 C 
ENDBRANCH   2  23
BRANCH   2  24
ATOM     24  O   UNL     1       8.375   4.468  22.635  0.00  0.00    -0.388 OA
ATOM     25  H   UNL     1       9.032   4.418  21.911  0.00  0.00    +0.210 HD
ENDBRANCH   2  24
BRANCH  17  26
ATOM     26  O   UNL     1       1.994   1.903  29.408  0.00  0.00    -0.506 OA
ATOM     27  H   UNL     1       2.630   1.829  30.135  0.00  0.00    +0.292 HD
ENDBRANCH  17  26
BRANCH   6  28
ATOM     28  O   UNL     1       6.262   1.978  26.648  0.00  0.00    -0.506 OA
ATOM     29  H   UNL     1       5.436   1.476  26.507  0.00  0.00    +0.292 HD
ENDBRANCH   6  28
ENDBRANCH   1  19
BRANCH   1  30
ATOM     30  C   UNL     1       7.495   1.105  24.876  0.00  0.00    +0.253 C 
ATOM     31  O   UNL     1       8.398   0.506  25.801  0.00  0.00    -0.346 OA
ATOM     32  C   UNL     1       9.500  -0.202  25.231  0.00  0.00    +0.149 C 
ATOM     33  C   UNL     1      10.621   0.736  24.800  0.00  0.00    +0.041 C 
ATOM     34  C   UNL     1       9.037  -1.221  24.165  0.00  0.00    +0.167 C 
ATOM     35  C   UNL     1       8.151  -0.588  23.056  0.00  0.00    +0.092 C 
ATOM     36  C   UNL     1       7.006   0.119  23.807  0.00  0.00    +0.083 C 
BRANCH  35  37
ATOM     37  N   UNL     1       8.837   0.255  22.051  0.00  0.00    -0.303 NA
ATOM     38  C   UNL     1       9.443  -0.520  20.949  0.00  0.00    +0.105 C 
ATOM     39  C   UNL     1       7.905   1.213  21.410  0.00  0.00    +0.105 C 
ENDBRANCH  35  37
BRANCH  34  40
ATOM     40  O   UNL     1       8.273  -2.208  24.895  0.00  0.00    -0.344 OA
BRANCH  40  41
ATOM     41  C   UNL     1       8.848  -3.492  25.059  0.00  0.00    +0.254 C 
ATOM     42  O   UNL     1       8.569  -4.281  23.904  0.00  0.00    -0.346 OA
ATOM     43  C   UNL     1       7.199  -4.633  23.716  0.00  0.00    +0.150 C 
ATOM     44  C   UNL     1       6.373  -3.514  23.073  0.00  0.00    +0.041 C 
ATOM     45  C   UNL     1       6.611  -5.294  24.985  0.00  0.00    +0.178 C 
ATOM     46  C   UNL     1       6.878  -4.462  26.256  0.00  0.00    +0.151 C 
ATOM     47  C   UNL     1       8.375  -4.176  26.339  0.00  0.00    +0.095 C 
BRANCH  46  48
ATOM     48  O   UNL     1       6.124  -3.253  26.321  0.00  0.00    -0.389 OA
ATOM     49  H   UNL     1       5.360  -3.335  25.721  0.00  0.00    +0.210 HD
ENDBRANCH  46  48
BRANCH  45  50
ATOM     50  O   UNL     1       5.239  -5.686  24.889  0.00  0.00    -0.343 OA
BRANCH  50  51
ATOM     51  C   UNL     1       4.920  -6.906  25.559  0.00  0.00    +0.252 C 
ATOM     52  O   UNL     1       4.052  -7.706  24.761  0.00  0.00    -0.341 OA
ATOM     53  C   UNL     1       2.732  -7.193  24.624  0.00  0.00    +0.184 C 
ATOM     54  C   UNL     1       1.923  -8.263  23.907  0.00  0.00    +0.046 C 
ATOM     55  C   UNL     1       2.111  -6.843  25.980  0.00  0.00    +0.162 C 
ATOM     56  O   UNL     1       0.974  -7.163  26.323  0.00  0.00    -0.295 OA
ATOM     57  C   UNL     1       2.984  -6.000  26.868  0.00  0.00    +0.082 C 
ATOM     58  C   UNL     1       4.327  -6.702  26.958  0.00  0.00    +0.069 C 
ENDBRANCH  50  51
ENDBRANCH  45  50
ENDBRANCH  40  41
ENDBRANCH  34  40
ENDBRANCH   1  30
TORSDOF 12
ENDMDL
MODEL 3
REMARK VINA RESULT:      -6.6      3.161      9.951
REMARK  Name = 
REMARK  18 active torsions:
REMARK  status: ('A' for Active; 'I' for Inactive)
REMARK    1  A    between atoms: C_1  and  C_2
REMARK    2  A    between atoms: C_2  and  C_3
REMARK    3  A    between atoms: C_3  and  O_4
REMARK    4  A    between atoms: C_6  and  O_8
REMARK    5  A    between atoms: O_8  and  C_9
REMARK    6  A    between atoms: C_12  and  N_44
REMARK    7  A    between atoms: C_14  and  O_16
REMARK    8  A    between atoms: O_16  and  C_17
REMARK    9  A    between atoms: C_20  and  O_22
REMARK   10  A    between atoms: C_23  and  O_25
REMARK   11  A    between atoms: O_25  and  C_26
REMARK   12  A    between atoms: C_32  and  C_34
REMARK   13  A    between atoms: C_36  and  C_38
REMARK   14  A    between atoms: C_40  and  C_42
REMARK   15  A    between atoms: N_44  and  C_45
REMARK   16  A    between atoms: N_44  and  C_46
REMARK   17  A    between atoms: C_48  and  O_49
REMARK   18  A    between atoms: C_61  and  O_62
REMARK                            x       y       z     vdW  Elec       q    Type
REMARK                         _______ _______ _______ _____ _____    ______ ____
ROOT
ATOM      1  O   UNL     1       4.251  -4.951  27.468  0.00  0.00    -0.343 OA
ENDROOT
BRANCH   1  19
ATOM      2  C   UNL     1       3.579  -6.872  25.133  0.00  0.00    +0.072 C 
ATOM      3  C   UNL     1       4.384  -6.322  23.928  0.00  0.00    +0.070 C 
ATOM      4  C   UNL     1       5.375  -5.220  24.299  0.00  0.00    -0.035 A 
ATOM      5  C   UNL     1       5.709  -4.944  25.635  0.00  0.00    +0.027 A 
ATOM      6  C   UNL     1       6.574  -3.866  25.915  0.00  0.00    +0.134 A 
ATOM      7  C   UNL     1       7.240  -3.151  24.913  0.00  0.00    +0.075 A 
ATOM      8  C   UNL     1       8.284  -2.138  25.248  0.00  0.00    +0.202 C 
ATOM      9  O   UNL     1       8.738  -2.050  26.382  0.00  0.00    -0.286 OA
ATOM     10  C   UNL     1       8.850  -1.296  24.169  0.00  0.00    +0.075 A 
ATOM     11  C   UNL     1       8.522  -1.595  22.841  0.00  0.00    +0.037 A 
ATOM     12  C   UNL     1       9.091  -0.853  21.796  0.00  0.00    +0.012 A 
ATOM     13  C   UNL     1       9.983   0.183  22.071  0.00  0.00    +0.004 A 
ATOM     14  C   UNL     1      10.304   0.496  23.386  0.00  0.00    +0.046 A 
ATOM     15  C   UNL     1       7.593  -2.697  22.514  0.00  0.00    +0.195 C 
ATOM     16  O   UNL     1       7.363  -2.983  21.344  0.00  0.00    -0.287 OA
ATOM     17  C   UNL     1       9.735  -0.234  24.430  0.00  0.00    +0.128 A 
ATOM     18  C   UNL     1       6.936  -3.455  23.596  0.00  0.00    +0.037 A 
ATOM     19  C   UNL     1       5.167  -5.788  26.770  0.00  0.00    +0.158 C 
ATOM     20  C   UNL     1       6.000  -4.467  23.286  0.00  0.00    +0.016 A 
ATOM     21  C   UNL     1       4.562  -7.101  26.285  0.00  0.00    +0.071 C 
BRANCH   2  23
ATOM     22  C   UNL     1       1.915  -8.237  23.689  0.00  0.00    +0.007 C 
ATOM     23  C   UNL     1       2.867  -8.216  24.876  0.00  0.00    +0.032 C 
ENDBRANCH   2  23
BRANCH   2  24
ATOM     24  O   UNL     1       2.552  -5.944  25.496  0.00  0.00    -0.388 OA
ATOM     25  H   UNL     1       1.931  -6.371  26.119  0.00  0.00    +0.210 HD
ENDBRANCH   2  24
BRANCH  17  26
ATOM     26  O   UNL     1      10.057   0.123  25.710  0.00  0.00    -0.506 OA
ATOM     27  H   UNL     1      10.969   0.445  25.763  0.00  0.00    +0.292 HD
ENDBRANCH  17  26
BRANCH   6  28
ATOM     28  O   UNL     1       6.751  -3.443  27.193  0.00  0.00    -0.506 OA
ATOM     29  H   UNL     1       6.834  -4.171  27.840  0.00  0.00    +0.292 HD
ENDBRANCH   6  28
ENDBRANCH   1  19
BRANCH   1  30
ATOM     30  C   UNL     1       4.254  -3.569  27.125  0.00  0.00    +0.253 C 
ATOM     31  O   UNL     1       4.895  -2.825  28.157  0.00  0.00    -0.346 OA
ATOM     32  C   UNL     1       4.120  -2.588  29.332  0.00  0.00    +0.149 C 
ATOM     33  C   UNL     1       4.105  -3.795  30.261  0.00  0.00    +0.041 C 
ATOM     34  C   UNL     1       2.735  -1.991  28.993  0.00  0.00    +0.167 C 
ATOM     35  C   UNL     1       1.936  -2.840  27.964  0.00  0.00    +0.092 C 
ATOM     36  C   UNL     1       2.879  -2.999  26.755  0.00  0.00    +0.083 C 
BRANCH  35  37
ATOM     37  N   UNL     1       1.348  -4.105  28.453  0.00  0.00    -0.303 NA
ATOM     38  C   UNL     1       0.540  -3.943  29.680  0.00  0.00    +0.105 C 
ATOM     39  C   UNL     1       0.443  -4.715  27.449  0.00  0.00    +0.105 C 
ENDBRANCH  35  37
BRANCH  34  40
ATOM     40  O   UNL     1       3.013  -0.686  28.438  0.00  0.00    -0.344 OA
BRANCH  40  41
ATOM     41  C   UNL     1       3.599   0.279  29.294  0.00  0.00    +0.254 C 
ATOM     42  O   UNL     1       3.113   1.573  28.944  0.00  0.00    -0.346 OA
ATOM     43  C   UNL     1       3.534   2.065  27.672  0.00  0.00    +0.150 C 
ATOM     44  C   UNL     1       2.707   1.510  26.508  0.00  0.00    +0.041 C 
ATOM     45  C   UNL     1       5.073   2.003  27.528  0.00  0.00    +0.178 C 
ATOM     46  C   UNL     1       5.638   0.612  27.883  0.00  0.00    +0.151 C 
ATOM     47  C   UNL     1       5.124   0.222  29.267  0.00  0.00    +0.095 C 
BRANCH  46  48
ATOM     48  O   UNL     1       5.329  -0.396  26.923  0.00  0.00    -0.389 OA
ATOM     49  H   UNL     1       6.138  -0.598  26.417  0.00  0.00    +0.210 HD
ENDBRANCH  46  48
BRANCH  45  50
ATOM     50  O   UNL     1       5.590   2.480  26.283  0.00  0.00    -0.343 OA
BRANCH  50  51
ATOM     51  C   UNL     1       6.593   1.650  25.698  0.00  0.00    +0.252 C 
ATOM     52  O   UNL     1       7.828   2.353  25.589  0.00  0.00    -0.341 OA
ATOM     53  C   UNL     1       7.831   3.397  24.622  0.00  0.00    +0.184 C 
ATOM     54  C   UNL     1       9.266   3.894  24.526  0.00  0.00    +0.046 C 
ATOM     55  C   UNL     1       7.318   2.919  23.261  0.00  0.00    +0.162 C 
ATOM     56  O   UNL     1       7.871   3.159  22.189  0.00  0.00    -0.295 OA
ATOM     57  C   UNL     1       6.016   2.166  23.313  0.00  0.00    +0.082 C 
ATOM     58  C   UNL     1       6.189   1.062  24.340  0.00  0.00    +0.069 C 
ENDBRANCH  50  51
ENDBRANCH  45  50
ENDBRANCH  40  41
ENDBRANCH  34  40
ENDBRANCH   1  30
TORSDOF 12
ENDMDL
MODEL 4
REMARK VINA RESULT:      -6.5      2.863      4.239
REMARK  Name = 
REMARK  18 active torsions:
REMARK  status: ('A' for Active; 'I' for Inactive)
REMARK    1  A    between atoms: C_1  and  C_2
REMARK    2  A    between atoms: C_2  and  C_3
REMARK    3  A    between atoms: C_3  and  O_4
REMARK    4  A    between atoms: C_6  and  O_8
REMARK    5  A    between atoms: O_8  and  C_9
REMARK    6  A    between atoms: C_12  and  N_44
REMARK    7  A    between atoms: C_14  and  O_16
REMARK    8  A    between atoms: O_16  and  C_17
REMARK    9  A    between atoms: C_20  and  O_22
REMARK   10  A    between atoms: C_23  and  O_25
REMARK   11  A    between atoms: O_25  and  C_26
REMARK   12  A    between atoms: C_32  and  C_34
REMARK   13  A    between atoms: C_36  and  C_38
REMARK   14  A    between atoms: C_40  and  C_42
REMARK   15  A    between atoms: N_44  and  C_45
REMARK   16  A    between atoms: N_44  and  C_46
REMARK   17  A    between atoms: C_48  and  O_49
REMARK   18  A    between atoms: C_61  and  O_62
REMARK                            x       y       z     vdW  Elec       q    Type
REMARK                         _______ _______ _______ _____ _____    ______ ____
ROOT
ATOM      1  O   UNL     1       8.436   2.315  25.250  0.00  0.00    -0.343 OA
ENDROOT
BRANCH   1  19
ATOM      2  C   UNL     1       7.180   4.935  24.177  0.00  0.00    +0.072 C 
ATOM      3  C   UNL     1       5.727   4.924  24.718  0.00  0.00    +0.070 C 
ATOM      4  C   UNL     1       5.456   3.819  25.737  0.00  0.00    -0.035 A 
ATOM      5  C   UNL     1       6.497   3.078  26.321  0.00  0.00    +0.027 A 
ATOM      6  C   UNL     1       6.177   2.022  27.199  0.00  0.00    +0.134 A 
ATOM      7  C   UNL     1       4.872   1.775  27.640  0.00  0.00    +0.075 A 
ATOM      8  C   UNL     1       4.592   0.769  28.706  0.00  0.00    +0.202 C 
ATOM      9  O   UNL     1       5.499   0.284  29.371  0.00  0.00    -0.286 OA
ATOM     10  C   UNL     1       3.188   0.427  29.031  0.00  0.00    +0.075 A 
ATOM     11  C   UNL     1       2.161   1.187  28.456  0.00  0.00    +0.037 A 
ATOM     12  C   UNL     1       0.826   0.925  28.792  0.00  0.00    +0.012 A 
ATOM     13  C   UNL     1       0.512  -0.088  29.697  0.00  0.00    +0.004 A 
ATOM     14  C   UNL     1       1.523  -0.856  30.263  0.00  0.00    +0.046 A 
ATOM     15  C   UNL     1       2.461   2.278  27.505  0.00  0.00    +0.195 C 
ATOM     16  O   UNL     1       1.554   2.971  27.057  0.00  0.00    -0.287 OA
ATOM     17  C   UNL     1       2.853  -0.605  29.926  0.00  0.00    +0.128 A 
ATOM     18  C   UNL     1       3.852   2.536  27.090  0.00  0.00    +0.037 A 
ATOM     19  C   UNL     1       7.949   3.401  26.030  0.00  0.00    +0.158 C 
ATOM     20  C   UNL     1       4.134   3.538  26.134  0.00  0.00    +0.016 A 
ATOM     21  C   UNL     1       8.124   4.766  25.372  0.00  0.00    +0.071 C 
BRANCH   2  23
ATOM     22  C   UNL     1       7.500   6.204  21.941  0.00  0.00    +0.007 C 
ATOM     23  C   UNL     1       7.593   6.236  23.459  0.00  0.00    +0.032 C 
ENDBRANCH   2  23
BRANCH   2  24
ATOM     24  O   UNL     1       7.350   3.885  23.221  0.00  0.00    -0.388 OA
ATOM     25  H   UNL     1       6.609   3.251  23.295  0.00  0.00    +0.210 HD
ENDBRANCH   2  24
BRANCH  17  26
ATOM     26  O   UNL     1       3.815  -1.400  30.484  0.00  0.00    -0.506 OA
ATOM     27  H   UNL     1       4.684  -0.974  30.447  0.00  0.00    +0.292 HD
ENDBRANCH  17  26
BRANCH   6  28
ATOM     28  O   UNL     1       7.140   1.160  27.614  0.00  0.00    -0.506 OA
ATOM     29  H   UNL     1       7.368   0.478  26.953  0.00  0.00    +0.292 HD
ENDBRANCH   6  28
ENDBRANCH   1  19
BRANCH   1  30
ATOM     30  C   UNL     1       7.816   1.049  25.454  0.00  0.00    +0.253 C 
ATOM     31  O   UNL     1       8.771   0.132  25.982  0.00  0.00    -0.346 OA
ATOM     32  C   UNL     1       9.701  -0.412  25.045  0.00  0.00    +0.149 C 
ATOM     33  C   UNL     1      10.843   0.551  24.747  0.00  0.00    +0.041 C 
ATOM     34  C   UNL     1       8.987  -1.002  23.807  0.00  0.00    +0.167 C 
ATOM     35  C   UNL     1       8.027   0.006  23.114  0.00  0.00    +0.092 C 
ATOM     36  C   UNL     1       7.080   0.493  24.228  0.00  0.00    +0.083 C 
BRANCH  35  37
ATOM     37  N   UNL     1       8.652   1.089  22.324  0.00  0.00    -0.303 NA
ATOM     38  C   UNL     1       9.729   0.619  21.429  0.00  0.00    +0.105 C 
ATOM     39  C   UNL     1       7.666   1.769  21.450  0.00  0.00    +0.105 C 
ENDBRANCH  35  37
BRANCH  34  40
ATOM     40  O   UNL     1       8.232  -2.128  24.309  0.00  0.00    -0.344 OA
BRANCH  40  41
ATOM     41  C   UNL     1       8.684  -3.425  23.963  0.00  0.00    +0.254 C 
ATOM     42  O   UNL     1       7.904  -3.918  22.875  0.00  0.00    -0.346 OA
ATOM     43  C   UNL     1       6.535  -4.191  23.172  0.00  0.00    +0.150 C 
ATOM     44  C   UNL     1       5.654  -2.937  23.153  0.00  0.00    +0.041 C 
ATOM     45  C   UNL     1       6.403  -5.118  24.403  0.00  0.00    +0.178 C 
ATOM     46  C   UNL     1       7.220  -4.611  25.609  0.00  0.00    +0.151 C 
ATOM     47  C   UNL     1       8.659  -4.380  25.154  0.00  0.00    +0.095 C 
BRANCH  46  48
ATOM     48  O   UNL     1       6.683  -3.437  26.214  0.00  0.00    -0.389 OA
ATOM     49  H   UNL     1       7.424  -2.870  26.497  0.00  0.00    +0.210 HD
ENDBRANCH  46  48
BRANCH  45  50
ATOM     50  O   UNL     1       5.063  -5.451  24.776  0.00  0.00    -0.343 OA
BRANCH  50  51
ATOM     51  C   UNL     1       4.905  -6.758  25.326  0.00  0.00    +0.252 C 
ATOM     52  O   UNL     1       4.041  -7.547  24.512  0.00  0.00    -0.341 OA
ATOM     53  C   UNL     1       2.676  -7.144  24.536  0.00  0.00    +0.184 C 
ATOM     54  C   UNL     1       1.899  -8.203  23.768  0.00  0.00    +0.046 C 
ATOM     55  C   UNL     1       2.147  -6.998  25.966  0.00  0.00    +0.162 C 
ATOM     56  O   UNL     1       1.075  -7.456  26.358  0.00  0.00    -0.295 OA
ATOM     57  C   UNL     1       3.021  -6.177  26.874  0.00  0.00    +0.082 C 
ATOM     58  C   UNL     1       4.420  -6.759  26.781  0.00  0.00    +0.069 C 
ENDBRANCH  50  51
ENDBRANCH  45  50
ENDBRANCH  40  41
ENDBRANCH  34  40
ENDBRANCH   1  30
TORSDOF 12
ENDMDL
MODEL 5
REMARK VINA RESULT:      -6.5      2.823      6.809
REMARK  Name = 
REMARK  18 active torsions:
REMARK  status: ('A' for Active; 'I' for Inactive)
REMARK    1  A    between atoms: C_1  and  C_2
REMARK    2  A    between atoms: C_2  and  C_3
REMARK    3  A    between atoms: C_3  and  O_4
REMARK    4  A    between atoms: C_6  and  O_8
REMARK    5  A    between atoms: O_8  and  C_9
REMARK    6  A    between atoms: C_12  and  N_44
REMARK    7  A    between atoms: C_14  and  O_16
REMARK    8  A    between atoms: O_16  and  C_17
REMARK    9  A    between atoms: C_20  and  O_22
REMARK   10  A    between atoms: C_23  and  O_25
REMARK   11  A    between atoms: O_25  and  C_26
REMARK   12  A    between atoms: C_32  and  C_34
REMARK   13  A    between atoms: C_36  and  C_38
REMARK   14  A    between atoms: C_40  and  C_42
REMARK   15  A    between atoms: N_44  and  C_45
REMARK   16  A    between atoms: N_44  and  C_46
REMARK   17  A    between atoms: C_48  and  O_49
REMARK   18  A    between atoms: C_61  and  O_62
REMARK                            x       y       z     vdW  Elec       q    Type
REMARK                         _______ _______ _______ _____ _____    ______ ____
ROOT
ATOM      1  O   UNL     1       7.431   3.111  23.423  0.00  0.00    -0.343 OA
ENDROOT
BRANCH   1  19
ATOM      2  C   UNL     1      10.526   3.192  23.534  0.00  0.00    +0.072 C 
ATOM      3  C   UNL     1      10.954   1.706  23.634  0.00  0.00    +0.070 C 
ATOM      4  C   UNL     1       9.808   0.717  23.422  0.00  0.00    -0.035 A 
ATOM      5  C   UNL     1       8.563   1.124  22.914  0.00  0.00    +0.027 A 
ATOM      6  C   UNL     1       7.524   0.177  22.811  0.00  0.00    +0.134 A 
ATOM      7  C   UNL     1       7.718  -1.188  23.048  0.00  0.00    +0.075 A 
ATOM      8  C   UNL     1       6.646  -2.185  22.756  0.00  0.00    +0.202 C 
ATOM      9  O   UNL     1       5.653  -1.874  22.112  0.00  0.00    -0.286 OA
ATOM     10  C   UNL     1       6.837  -3.596  23.165  0.00  0.00    +0.075 A 
ATOM     11  C   UNL     1       8.089  -3.991  23.653  0.00  0.00    +0.037 A 
ATOM     12  C   UNL     1       8.316  -5.332  23.991  0.00  0.00    +0.012 A 
ATOM     13  C   UNL     1       7.302  -6.278  23.845  0.00  0.00    +0.004 A 
ATOM     14  C   UNL     1       6.052  -5.893  23.374  0.00  0.00    +0.046 A 
ATOM     15  C   UNL     1       9.190  -3.017  23.805  0.00  0.00    +0.195 C 
ATOM     16  O   UNL     1      10.297  -3.391  24.178  0.00  0.00    -0.287 OA
ATOM     17  C   UNL     1       5.818  -4.558  23.044  0.00  0.00    +0.128 A 
ATOM     18  C   UNL     1       8.961  -1.590  23.511  0.00  0.00    +0.037 A 
ATOM     19  C   UNL     1       8.327   2.553  22.468  0.00  0.00    +0.158 C 
ATOM     20  C   UNL     1       9.994  -0.648  23.716  0.00  0.00    +0.016 A 
ATOM     21  C   UNL     1       9.625   3.336  22.303  0.00  0.00    +0.071 C 
BRANCH   2  23
ATOM     22  C   UNL     1      11.377   5.631  23.735  0.00  0.00    +0.007 C 
ATOM     23  C   UNL     1      11.689   4.189  23.360  0.00  0.00    +0.032 C 
ENDBRANCH   2  23
BRANCH   2  24
ATOM     24  O   UNL     1       9.845   3.583  24.730  0.00  0.00    -0.388 OA
ATOM     25  H   UNL     1       9.445   2.796  25.152  0.00  0.00    +0.210 HD
ENDBRANCH   2  24
BRANCH  17  26
ATOM     26  O   UNL     1       4.567  -4.216  22.610  0.00  0.00    -0.506 OA
ATOM     27  H   UNL     1       4.009  -3.928  23.348  0.00  0.00    +0.292 HD
ENDBRANCH  17  26
BRANCH   6  28
ATOM     28  O   UNL     1       6.258   0.577  22.524  0.00  0.00    -0.506 OA
ATOM     29  H   UNL     1       5.642  -0.161  22.350  0.00  0.00    +0.292 HD
ENDBRANCH   6  28
ENDBRANCH   1  19
BRANCH   1  30
ATOM     30  C   UNL     1       7.162   2.331  24.583  0.00  0.00    +0.253 C 
ATOM     31  O   UNL     1       5.807   1.891  24.556  0.00  0.00    -0.346 OA
ATOM     32  C   UNL     1       4.825   2.864  24.915  0.00  0.00    +0.149 C 
ATOM     33  C   UNL     1       4.505   3.806  23.761  0.00  0.00    +0.041 C 
ATOM     34  C   UNL     1       5.162   3.548  26.259  0.00  0.00    +0.167 C 
ATOM     35  C   UNL     1       6.590   4.162  26.295  0.00  0.00    +0.092 C 
ATOM     36  C   UNL     1       7.535   3.007  25.909  0.00  0.00    +0.083 C 
BRANCH  35  37
ATOM     37  N   UNL     1       6.801   5.409  25.529  0.00  0.00    -0.303 NA
ATOM     38  C   UNL     1       5.774   6.440  25.787  0.00  0.00    +0.105 C 
ATOM     39  C   UNL     1       8.102   6.041  25.856  0.00  0.00    +0.105 C 
ENDBRANCH  35  37
BRANCH  34  40
ATOM     40  O   UNL     1       5.056   2.501  27.251  0.00  0.00    -0.344 OA
BRANCH  40  41
ATOM     41  C   UNL     1       3.756   2.096  27.640  0.00  0.00    +0.254 C 
ATOM     42  O   UNL     1       3.781   1.690  29.007  0.00  0.00    -0.346 OA
ATOM     43  C   UNL     1       4.516   0.497  29.281  0.00  0.00    +0.150 C 
ATOM     44  C   UNL     1       6.026   0.733  29.389  0.00  0.00    +0.041 C 
ATOM     45  C   UNL     1       4.054  -0.666  28.373  0.00  0.00    +0.178 C 
ATOM     46  C   UNL     1       4.029  -0.271  26.882  0.00  0.00    +0.151 C 
ATOM     47  C   UNL     1       3.199   1.001  26.735  0.00  0.00    +0.095 C 
BRANCH  46  48
ATOM     48  O   UNL     1       5.324  -0.103  26.309  0.00  0.00    -0.389 OA
ATOM     49  H   UNL     1       5.545  -0.909  25.806  0.00  0.00    +0.210 HD
ENDBRANCH  46  48
BRANCH  45  50
ATOM     50  O   UNL     1       4.734  -1.908  28.578  0.00  0.00    -0.343 OA
BRANCH  50  51
ATOM     51  C   UNL     1       4.214  -3.003  27.824  0.00  0.00    +0.252 C 
ATOM     52  O   UNL     1       4.084  -4.161  28.644  0.00  0.00    -0.341 OA
ATOM     53  C   UNL     1       5.318  -4.749  29.040  0.00  0.00    +0.184 C 
ATOM     54  C   UNL     1       4.972  -6.055  29.739  0.00  0.00    +0.046 C 
ATOM     55  C   UNL     1       6.247  -4.988  27.846  0.00  0.00    +0.162 C 
ATOM     56  O   UNL     1       6.857  -6.037  27.644  0.00  0.00    -0.295 OA
ATOM     57  C   UNL     1       6.422  -3.799  26.942  0.00  0.00    +0.082 C 
ATOM     58  C   UNL     1       5.030  -3.325  26.566  0.00  0.00    +0.069 C 
ENDBRANCH  50  51
ENDBRANCH  45  50
ENDBRANCH  40  41
ENDBRANCH  34  40
ENDBRANCH   1  30
TORSDOF 12
ENDMDL
MODEL 6
REMARK VINA RESULT:      -6.4      2.997      7.334
REMARK  Name = 
REMARK  18 active torsions:
REMARK  status: ('A' for Active; 'I' for Inactive)
REMARK    1  A    between atoms: C_1  and  C_2
REMARK    2  A    between atoms: C_2  and  C_3
REMARK    3  A    between atoms: C_3  and  O_4
REMARK    4  A    between atoms: C_6  and  O_8
REMARK    5  A    between atoms: O_8  and  C_9
REMARK    6  A    between atoms: C_12  and  N_44
REMARK    7  A    between atoms: C_14  and  O_16
REMARK    8  A    between atoms: O_16  and  C_17
REMARK    9  A    between atoms: C_20  and  O_22
REMARK   10  A    between atoms: C_23  and  O_25
REMARK   11  A    between atoms: O_25  and  C_26
REMARK   12  A    between atoms: C_32  and  C_34
REMARK   13  A    between atoms: C_36  and  C_38
REMARK   14  A    between atoms: C_40  and  C_42
REMARK   15  A    between atoms: N_44  and  C_45
REMARK   16  A    between atoms: N_44  and  C_46
REMARK   17  A    between atoms: C_48  and  O_49
REMARK   18  A    between atoms: C_61  and  O_62
REMARK                            x       y       z     vdW  Elec       q    Type
REMARK                         _______ _______ _______ _____ _____    ______ ____
ROOT
ATOM      1  O   UNL     1       7.387   2.459  22.992  0.00  0.00    -0.343 OA
ENDROOT
BRANCH   1  19
ATOM      2  C   UNL     1      10.401   2.473  23.709  0.00  0.00    +0.072 C 
ATOM      3  C   UNL     1      10.638   1.124  24.434  0.00  0.00    +0.070 C 
ATOM      4  C   UNL     1       9.448   0.168  24.366  0.00  0.00    -0.035 A 
ATOM      5  C   UNL     1       8.368   0.392  23.496  0.00  0.00    +0.027 A 
ATOM      6  C   UNL     1       7.266  -0.488  23.533  0.00  0.00    +0.134 A 
ATOM      7  C   UNL     1       7.264  -1.665  24.289  0.00  0.00    +0.075 A 
ATOM      8  C   UNL     1       6.160  -2.662  24.166  0.00  0.00    +0.202 C 
ATOM      9  O   UNL     1       5.339  -2.587  23.261  0.00  0.00    -0.286 OA
ATOM     10  C   UNL     1       6.117  -3.815  25.095  0.00  0.00    +0.075 A 
ATOM     11  C   UNL     1       7.210  -4.036  25.943  0.00  0.00    +0.037 A 
ATOM     12  C   UNL     1       7.223  -5.154  26.789  0.00  0.00    +0.012 A 
ATOM     13  C   UNL     1       6.154  -6.049  26.792  0.00  0.00    +0.004 A 
ATOM     14  C   UNL     1       5.060  -5.831  25.963  0.00  0.00    +0.046 A 
ATOM     15  C   UNL     1       8.366  -3.115  25.953  0.00  0.00    +0.195 C 
ATOM     16  O   UNL     1       9.339  -3.355  26.660  0.00  0.00    -0.287 OA
ATOM     17  C   UNL     1       5.038  -4.716  25.125  0.00  0.00    +0.128 A 
ATOM     18  C   UNL     1       8.351  -1.901  25.116  0.00  0.00    +0.037 A 
ATOM     19  C   UNL     1       8.375   1.549  22.518  0.00  0.00    +0.158 C 
ATOM     20  C   UNL     1       9.427  -0.987  25.171  0.00  0.00    +0.016 A 
ATOM     21  C   UNL     1       9.759   2.167  22.352  0.00  0.00    +0.071 C 
BRANCH   2  23
ATOM     22  C   UNL     1      11.504   4.801  23.429  0.00  0.00    +0.007 C 
ATOM     23  C   UNL     1      11.678   3.290  23.428  0.00  0.00    +0.032 C 
ENDBRANCH   2  23
BRANCH   2  24
ATOM     24  O   UNL     1       9.563   3.313  24.508  0.00  0.00    -0.388 OA
ATOM     25  H   UNL     1       9.947   3.403  25.403  0.00  0.00    +0.210 HD
ENDBRANCH   2  24
BRANCH  17  26
ATOM     26  O   UNL     1       3.931  -4.525  24.345  0.00  0.00    -0.506 OA
ATOM     27  H   UNL     1       4.164  -4.092  23.510  0.00  0.00    +0.292 HD
ENDBRANCH  17  26
BRANCH   6  28
ATOM     28  O   UNL     1       6.126  -0.185  22.862  0.00  0.00    -0.506 OA
ATOM     29  H   UNL     1       5.311  -0.450  23.332  0.00  0.00    +0.292 HD
ENDBRANCH   6  28
ENDBRANCH   1  19
BRANCH   1  30
ATOM     30  C   UNL     1       6.891   2.239  24.308  0.00  0.00    +0.253 C 
ATOM     31  O   UNL     1       5.521   1.853  24.241  0.00  0.00    -0.346 OA
ATOM     32  C   UNL     1       4.585   2.905  24.004  0.00  0.00    +0.149 C 
ATOM     33  C   UNL     1       4.513   3.286  22.530  0.00  0.00    +0.041 C 
ATOM     34  C   UNL     1       4.785   4.081  24.987  0.00  0.00    +0.167 C 
ATOM     35  C   UNL     1       6.241   4.627  25.003  0.00  0.00    +0.092 C 
ATOM     36  C   UNL     1       7.129   3.399  25.283  0.00  0.00    +0.083 C 
BRANCH  35  37
ATOM     37  N   UNL     1       6.664   5.437  23.840  0.00  0.00    -0.303 NA
ATOM     38  C   UNL     1       5.695   6.491  23.472  0.00  0.00    +0.105 C 
ATOM     39  C   UNL     1       7.946   6.136  24.095  0.00  0.00    +0.105 C 
ENDBRANCH  35  37
BRANCH  34  40
ATOM     40  O   UNL     1       4.451   3.545  26.288  0.00  0.00    -0.344 OA
BRANCH  40  41
ATOM     41  C   UNL     1       3.108   3.670  26.722  0.00  0.00    +0.254 C 
ATOM     42  O   UNL     1       3.077   3.691  28.148  0.00  0.00    -0.346 OA
ATOM     43  C   UNL     1       3.445   2.471  28.790  0.00  0.00    +0.150 C 
ATOM     44  C   UNL     1       4.962   2.277  28.889  0.00  0.00    +0.041 C 
ATOM     45  C   UNL     1       2.623   1.280  28.243  0.00  0.00    +0.178 C 
ATOM     46  C   UNL     1       2.645   1.212  26.702  0.00  0.00    +0.151 C 
ATOM     47  C   UNL     1       2.215   2.570  26.154  0.00  0.00    +0.095 C 
BRANCH  46  48
ATOM     48  O   UNL     1       3.905   0.820  26.161  0.00  0.00    -0.389 OA
ATOM     49  H   UNL     1       4.586   1.436  26.490  0.00  0.00    +0.210 HD
ENDBRANCH  46  48
BRANCH  45  50
ATOM     50  O   UNL     1       2.921   0.011  28.831  0.00  0.00    -0.343 OA
BRANCH  50  51
ATOM     51  C   UNL     1       2.427  -1.113  28.104  0.00  0.00    +0.252 C 
ATOM     52  O   UNL     1       1.345  -1.727  28.800  0.00  0.00    -0.341 OA
ATOM     53  C   UNL     1       1.717  -2.401  29.997  0.00  0.00    +0.184 C 
ATOM     54  C   UNL     1       0.477  -3.135  30.484  0.00  0.00    +0.046 C 
ATOM     55  C   UNL     1       2.881  -3.370  29.769  0.00  0.00    +0.162 C 
ATOM     56  O   UNL     1       2.910  -4.527  30.186  0.00  0.00    -0.295 OA
ATOM     57  C   UNL     1       4.053  -2.778  29.035  0.00  0.00    +0.082 C 
ATOM     58  C   UNL     1       3.505  -2.150  27.767  0.00  0.00    +0.069 C 
ENDBRANCH  50  51
ENDBRANCH  45  50
ENDBRANCH  40  41
ENDBRANCH  34  40
ENDBRANCH   1  30
TORSDOF 12
ENDMDL
MODEL 7
REMARK VINA RESULT:      -6.0      3.269      8.475
REMARK  Name = 
REMARK  18 active torsions:
REMARK  status: ('A' for Active; 'I' for Inactive)
REMARK    1  A    between atoms: C_1  and  C_2
REMARK    2  A    between atoms: C_2  and  C_3
REMARK    3  A    between atoms: C_3  and  O_4
REMARK    4  A    between atoms: C_6  and  O_8
REMARK    5  A    between atoms: O_8  and  C_9
REMARK    6  A    between atoms: C_12  and  N_44
REMARK    7  A    between atoms: C_14  and  O_16
REMARK    8  A    between atoms: O_16  and  C_17
REMARK    9  A    between atoms: C_20  and  O_22
REMARK   10  A    between atoms: C_23  and  O_25
REMARK   11  A    between atoms: O_25  and  C_26
REMARK   12  A    between atoms: C_32  and  C_34
REMARK   13  A    between atoms: C_36  and  C_38
REMARK   14  A    between atoms: C_40  and  C_42
REMARK   15  A    between atoms: N_44  and  C_45
REMARK   16  A    between atoms: N_44  and  C_46
REMARK   17  A    between atoms: C_48  and  O_49
REMARK   18  A    between atoms: C_61  and  O_62
REMARK                            x       y       z     vdW  Elec       q    Type
REMARK                         _______ _______ _______ _____ _____    ______ ____
ROOT
ATOM      1  O   UNL     1       6.290  -4.192  25.859  0.00  0.00    -0.343 OA
ENDROOT
BRANCH   1  19
ATOM      2  C   UNL     1       6.817  -4.807  22.869  0.00  0.00    +0.072 C 
ATOM      3  C   UNL     1       7.022  -3.418  22.213  0.00  0.00    +0.070 C 
ATOM      4  C   UNL     1       7.129  -2.271  23.216  0.00  0.00    -0.035 A 
ATOM      5  C   UNL     1       7.303  -2.503  24.591  0.00  0.00    +0.027 A 
ATOM      6  C   UNL     1       7.321  -1.403  25.473  0.00  0.00    +0.134 A 
ATOM      7  C   UNL     1       7.329  -0.076  25.028  0.00  0.00    +0.075 A 
ATOM      8  C   UNL     1       7.530   1.058  25.977  0.00  0.00    +0.202 C 
ATOM      9  O   UNL     1       7.901   0.861  27.127  0.00  0.00    -0.286 OA
ATOM     10  C   UNL     1       7.375   2.448  25.490  0.00  0.00    +0.075 A 
ATOM     11  C   UNL     1       7.221   2.665  24.115  0.00  0.00    +0.037 A 
ATOM     12  C   UNL     1       7.134   3.973  23.619  0.00  0.00    +0.012 A 
ATOM     13  C   UNL     1       7.199   5.062  24.487  0.00  0.00    +0.004 A 
ATOM     14  C   UNL     1       7.338   4.857  25.854  0.00  0.00    +0.046 A 
ATOM     15  C   UNL     1       7.165   1.533  23.166  0.00  0.00    +0.195 C 
ATOM     16  O   UNL     1       7.089   1.743  21.960  0.00  0.00    -0.287 OA
ATOM     17  C   UNL     1       7.418   3.557  26.355  0.00  0.00    +0.128 A 
ATOM     18  C   UNL     1       7.197   0.146  23.667  0.00  0.00    +0.037 A 
ATOM     19  C   UNL     1       7.481  -3.906  25.133  0.00  0.00    +0.158 C 
ATOM     20  C   UNL     1       7.080  -0.937  22.766  0.00  0.00    +0.016 A 
ATOM     21  C   UNL     1       7.800  -4.920  24.039  0.00  0.00    +0.071 C 
BRANCH   2  23
ATOM     22  C   UNL     1       6.293  -6.021  20.640  0.00  0.00    +0.007 C 
ATOM     23  C   UNL     1       7.085  -6.008  21.939  0.00  0.00    +0.032 C 
ENDBRANCH   2  23
BRANCH   2  24
ATOM     24  O   UNL     1       5.462  -4.942  23.307  0.00  0.00    -0.388 OA
ATOM     25  H   UNL     1       5.302  -4.346  24.067  0.00  0.00    +0.210 HD
ENDBRANCH   2  24
BRANCH  17  26
ATOM     26  O   UNL     1       7.528   3.397  27.708  0.00  0.00    -0.506 OA
ATOM     27  H   UNL     1       7.094   4.123  28.180  0.00  0.00    +0.292 HD
ENDBRANCH  17  26
BRANCH   6  28
ATOM     28  O   UNL     1       7.277  -1.601  26.815  0.00  0.00    -0.506 OA
ATOM     29  H   UNL     1       6.677  -0.989  27.284  0.00  0.00    +0.292 HD
ENDBRANCH   6  28
ENDBRANCH   1  19
BRANCH   1  30
ATOM     30  C   UNL     1       5.319  -3.153  25.933  0.00  0.00    +0.253 C 
ATOM     31  O   UNL     1       5.234  -2.678  27.274  0.00  0.00    -0.346 OA
ATOM     32  C   UNL     1       4.504  -3.501  28.185  0.00  0.00    +0.149 C 
ATOM     33  C   UNL     1       5.338  -4.672  28.691  0.00  0.00    +0.041 C 
ATOM     34  C   UNL     1       3.108  -3.867  27.633  0.00  0.00    +0.167 C 
ATOM     35  C   UNL     1       3.156  -4.512  26.220  0.00  0.00    +0.092 C 
ATOM     36  C   UNL     1       3.948  -3.517  25.349  0.00  0.00    +0.083 C 
BRANCH  35  37
ATOM     37  N   UNL     1       3.629  -5.911  26.139  0.00  0.00    -0.303 NA
ATOM     38  C   UNL     1       3.086  -6.779  27.204  0.00  0.00    +0.105 C 
ATOM     39  C   UNL     1       3.241  -6.548  24.858  0.00  0.00    +0.105 C 
ENDBRANCH  35  37
BRANCH  34  40
ATOM     40  O   UNL     1       2.387  -2.614  27.574  0.00  0.00    -0.344 OA
BRANCH  40  41
ATOM     41  C   UNL     1       2.169  -1.926  28.792  0.00  0.00    +0.254 C 
ATOM     42  O   UNL     1       0.875  -1.326  28.766  0.00  0.00    -0.346 OA
ATOM     43  C   UNL     1       0.710  -0.259  27.832  0.00  0.00    +0.150 C 
ATOM     44  C   UNL     1       0.443  -0.746  26.404  0.00  0.00    +0.041 C 
ATOM     45  C   UNL     1       1.807   0.816  28.010  0.00  0.00    +0.178 C 
ATOM     46  C   UNL     1       3.225   0.209  28.028  0.00  0.00    +0.151 C 
ATOM     47  C   UNL     1       3.262  -0.899  29.077  0.00  0.00    +0.095 C 
BRANCH  46  48
ATOM     48  O   UNL     1       3.658  -0.277  26.759  0.00  0.00    -0.389 OA
ATOM     49  H   UNL     1       3.018   0.014  26.083  0.00  0.00    +0.210 HD
ENDBRANCH  46  48
BRANCH  45  50
ATOM     50  O   UNL     1       1.721   1.930  27.117  0.00  0.00    -0.343 OA
BRANCH  50  51
ATOM     51  C   UNL     1       2.427   3.093  27.547  0.00  0.00    +0.252 C 
ATOM     52  O   UNL     1       1.658   4.268  27.303  0.00  0.00    -0.341 OA
ATOM     53  C   UNL     1       1.516   4.607  25.928  0.00  0.00    +0.184 C 
ATOM     54  C   UNL     1       0.836   5.967  25.885  0.00  0.00    +0.046 C 
ATOM     55  C   UNL     1       2.866   4.639  25.204  0.00  0.00    +0.162 C 
ATOM     56  O   UNL     1       3.226   5.543  24.452  0.00  0.00    -0.295 OA
ATOM     57  C   UNL     1       3.724   3.425  25.428  0.00  0.00    +0.082 C 
ATOM     58  C   UNL     1       3.824   3.228  26.929  0.00  0.00    +0.069 C 
ENDBRANCH  50  51
ENDBRANCH  45  50
ENDBRANCH  40  41
ENDBRANCH  34  40
ENDBRANCH   1  30
TORSDOF 12
ENDMDL
MODEL 8
REMARK VINA RESULT:      -5.9      3.148      6.869
REMARK  Name = 
REMARK  18 active torsions:
REMARK  status: ('A' for Active; 'I' for Inactive)
REMARK    1  A    between atoms: C_1  and  C_2
REMARK    2  A    between atoms: C_2  and  C_3
REMARK    3  A    between atoms: C_3  and  O_4
REMARK    4  A    between atoms: C_6  and  O_8
REMARK    5  A    between atoms: O_8  and  C_9
REMARK    6  A    between atoms: C_12  and  N_44
REMARK    7  A    between atoms: C_14  and  O_16
REMARK    8  A    between atoms: O_16  and  C_17
REMARK    9  A    between atoms: C_20  and  O_22
REMARK   10  A    between atoms: C_23  and  O_25
REMARK   11  A    between atoms: O_25  and  C_26
REMARK   12  A    between atoms: C_32  and  C_34
REMARK   13  A    between atoms: C_36  and  C_38
REMARK   14  A    between atoms: C_40  and  C_42
REMARK   15  A    between atoms: N_44  and  C_45
REMARK   16  A    between atoms: N_44  and  C_46
REMARK   17  A    between atoms: C_48  and  O_49
REMARK   18  A    between atoms: C_61  and  O_62
REMARK                            x       y       z     vdW  Elec       q    Type
REMARK                         _______ _______ _______ _____ _____    ______ ____
ROOT
ATOM      1  O   UNL     1       5.728   3.640  24.917  0.00  0.00    -0.343 OA
ENDROOT
BRANCH   1  19
ATOM      2  C   UNL     1       8.550   4.732  24.254  0.00  0.00    +0.072 C 
ATOM      3  C   UNL     1       9.436   3.469  24.109  0.00  0.00    +0.070 C 
ATOM      4  C   UNL     1       8.649   2.160  24.104  0.00  0.00    -0.035 A 
ATOM      5  C   UNL     1       7.252   2.136  23.964  0.00  0.00    +0.027 A 
ATOM      6  C   UNL     1       6.577   0.901  24.041  0.00  0.00    +0.134 A 
ATOM      7  C   UNL     1       7.249  -0.326  24.097  0.00  0.00    +0.075 A 
ATOM      8  C   UNL     1       6.510  -1.619  23.996  0.00  0.00    +0.202 C 
ATOM      9  O   UNL     1       5.335  -1.650  23.653  0.00  0.00    -0.286 OA
ATOM     10  C   UNL     1       7.239  -2.889  24.216  0.00  0.00    +0.075 A 
ATOM     11  C   UNL     1       8.634  -2.852  24.336  0.00  0.00    +0.037 A 
ATOM     12  C   UNL     1       9.354  -4.045  24.484  0.00  0.00    +0.012 A 
ATOM     13  C   UNL     1       8.691  -5.272  24.513  0.00  0.00    +0.004 A 
ATOM     14  C   UNL     1       7.306  -5.317  24.409  0.00  0.00    +0.046 A 
ATOM     15  C   UNL     1       9.369  -1.571  24.293  0.00  0.00    +0.195 C 
ATOM     16  O   UNL     1      10.595  -1.561  24.341  0.00  0.00    -0.287 OA
ATOM     17  C   UNL     1       6.583  -4.133  24.269  0.00  0.00    +0.128 A 
ATOM     18  C   UNL     1       8.631  -0.298  24.196  0.00  0.00    +0.037 A 
ATOM     19  C   UNL     1       6.466   3.409  23.721  0.00  0.00    +0.158 C 
ATOM     20  C   UNL     1       9.328   0.931  24.218  0.00  0.00    +0.016 A 
ATOM     21  C   UNL     1       7.356   4.576  23.306  0.00  0.00    +0.071 C 
BRANCH   2  23
ATOM     22  C   UNL     1      10.759   5.983  23.732  0.00  0.00    +0.007 C 
ATOM     23  C   UNL     1       9.247   6.057  23.884  0.00  0.00    +0.032 C 
ENDBRANCH   2  23
BRANCH   2  24
ATOM     24  O   UNL     1       8.126   4.876  25.613  0.00  0.00    -0.388 OA
ATOM     25  H   UNL     1       8.878   5.177  26.161  0.00  0.00    +0.210 HD
ENDBRANCH   2  24
BRANCH  17  26
ATOM     26  O   UNL     1       5.221  -4.219  24.195  0.00  0.00    -0.506 OA
ATOM     27  H   UNL     1       4.945  -5.080  23.846  0.00  0.00    +0.292 HD
ENDBRANCH  17  26
BRANCH   6  28
ATOM     28  O   UNL     1       5.222   0.863  24.118  0.00  0.00    -0.506 OA
ATOM     29  H   UNL     1       4.773   1.293  23.365  0.00  0.00    +0.292 HD
ENDBRANCH   6  28
ENDBRANCH   1  19
BRANCH   1  30
ATOM     30  C   UNL     1       5.449   2.503  25.728  0.00  0.00    +0.253 C 
ATOM     31  O   UNL     1       4.096   2.101  25.531  0.00  0.00    -0.346 OA
ATOM     32  C   UNL     1       3.106   2.887  26.195  0.00  0.00    +0.149 C 
ATOM     33  C   UNL     1       2.795   4.173  25.440  0.00  0.00    +0.041 C 
ATOM     34  C   UNL     1       3.424   3.057  27.698  0.00  0.00    +0.167 C 
ATOM     35  C   UNL     1       4.849   3.620  27.964  0.00  0.00    +0.092 C 
ATOM     36  C   UNL     1       5.803   2.673  27.211  0.00  0.00    +0.083 C 
BRANCH  35  37
ATOM     37  N   UNL     1       5.064   5.056  27.685  0.00  0.00    -0.303 NA
ATOM     38  C   UNL     1       3.998   5.926  28.225  0.00  0.00    +0.105 C 
ATOM     39  C   UNL     1       6.329   5.548  28.281  0.00  0.00    +0.105 C 
ENDBRANCH  35  37
BRANCH  34  40
ATOM     40  O   UNL     1       3.311   1.730  28.260  0.00  0.00    -0.344 OA
BRANCH  40  41
ATOM     41  C   UNL     1       2.011   1.183  28.392  0.00  0.00    +0.254 C 
ATOM     42  O   UNL     1       1.934   0.447  29.612  0.00  0.00    -0.346 OA
ATOM     43  C   UNL     1       2.722  -0.742  29.664  0.00  0.00    +0.150 C 
ATOM     44  C   UNL     1       4.194  -0.474  29.992  0.00  0.00    +0.041 C 
ATOM     45  C   UNL     1       2.432  -1.659  28.453  0.00  0.00    +0.178 C 
ATOM     46  C   UNL     1       2.521  -0.904  27.111  0.00  0.00    +0.151 C 
ATOM     47  C   UNL     1       1.621   0.327  27.190  0.00  0.00    +0.095 C 
BRANCH  46  48
ATOM     48  O   UNL     1       3.849  -0.540  26.743  0.00  0.00    -0.389 OA
ATOM     49  H   UNL     1       4.218   0.030  27.444  0.00  0.00    +0.210 HD
ENDBRANCH  46  48
BRANCH  45  50
ATOM     50  O   UNL     1       3.175  -2.881  28.421  0.00  0.00    -0.343 OA
BRANCH  50  51
ATOM     51  C   UNL     1       3.931  -3.086  27.228  0.00  0.00    +0.252 C 
ATOM     52  O   UNL     1       3.377  -4.147  26.456  0.00  0.00    -0.341 OA
ATOM     53  C   UNL     1       3.534  -5.441  27.027  0.00  0.00    +0.184 C 
ATOM     54  C   UNL     1       3.052  -6.438  25.984  0.00  0.00    +0.046 C 
ATOM     55  C   UNL     1       4.987  -5.717  27.427  0.00  0.00    +0.162 C 
ATOM     56  O   UNL     1       5.591  -6.755  27.165  0.00  0.00    -0.295 OA
ATOM     57  C   UNL     1       5.628  -4.628  28.244  0.00  0.00    +0.082 C 
ATOM     58  C   UNL     1       5.424  -3.331  27.482  0.00  0.00    +0.069 C 
ENDBRANCH  50  51
ENDBRANCH  45  50
ENDBRANCH  40  41
ENDBRANCH  34  40
ENDBRANCH   1  30
TORSDOF 12
ENDMDL
MODEL 9
REMARK VINA RESULT:      -5.7      1.459      2.126
REMARK  Name = 
REMARK  18 active torsions:
REMARK  status: ('A' for Active; 'I' for Inactive)
REMARK    1  A    between atoms: C_1  and  C_2
REMARK    2  A    between atoms: C_2  and  C_3
REMARK    3  A    between atoms: C_3  and  O_4
REMARK    4  A    between atoms: C_6  and  O_8
REMARK    5  A    between atoms: O_8  and  C_9
REMARK    6  A    between atoms: C_12  and  N_44
REMARK    7  A    between atoms: C_14  and  O_16
REMARK    8  A    between atoms: O_16  and  C_17
REMARK    9  A    between atoms: C_20  and  O_22
REMARK   10  A    between atoms: C_23  and  O_25
REMARK   11  A    between atoms: O_25  and  C_26
REMARK   12  A    between atoms: C_32  and  C_34
REMARK   13  A    between atoms: C_36  and  C_38
REMARK   14  A    between atoms: C_40  and  C_42
REMARK   15  A    between atoms: N_44  and  C_45
REMARK   16  A    between atoms: N_44  and  C_46
REMARK   17  A    between atoms: C_48  and  O_49
REMARK   18  A    between atoms: C_61  and  O_62
REMARK                            x       y       z     vdW  Elec       q    Type
REMARK                         _______ _______ _______ _____ _____    ______ ____
ROOT
ATOM      1  O   UNL     1       8.515   1.007  23.161  0.00  0.00    -0.343 OA
ENDROOT
BRANCH   1  19
ATOM      2  C   UNL     1      10.408   3.458  23.069  0.00  0.00    +0.072 C 
ATOM      3  C   UNL     1       9.468   4.672  22.854  0.00  0.00    +0.070 C 
ATOM      4  C   UNL     1       7.984   4.335  22.984  0.00  0.00    -0.035 A 
ATOM      5  C   UNL     1       7.546   3.111  23.517  0.00  0.00    +0.027 A 
ATOM      6  C   UNL     1       6.165   2.830  23.541  0.00  0.00    +0.134 A 
ATOM      7  C   UNL     1       5.194   3.779  23.200  0.00  0.00    +0.075 A 
ATOM      8  C   UNL     1       3.741   3.509  23.408  0.00  0.00    +0.202 C 
ATOM      9  O   UNL     1       3.365   2.550  24.071  0.00  0.00    -0.286 OA
ATOM     10  C   UNL     1       2.743   4.473  22.890  0.00  0.00    +0.075 A 
ATOM     11  C   UNL     1       3.193   5.696  22.378  0.00  0.00    +0.037 A 
ATOM     12  C   UNL     1       2.267   6.652  21.938  0.00  0.00    +0.012 A 
ATOM     13  C   UNL     1       0.899   6.393  22.005  0.00  0.00    +0.004 A 
ATOM     14  C   UNL     1       0.443   5.177  22.499  0.00  0.00    +0.046 A 
ATOM     15  C   UNL     1       4.635   6.009  22.308  0.00  0.00    +0.195 C 
ATOM     16  O   UNL     1       5.009   7.108  21.911  0.00  0.00    -0.287 OA
ATOM     17  C   UNL     1       1.360   4.218  22.932  0.00  0.00    +0.128 A 
ATOM     18  C   UNL     1       5.631   4.999  22.711  0.00  0.00    +0.037 A 
ATOM     19  C   UNL     1       8.530   2.101  24.073  0.00  0.00    +0.158 C 
ATOM     20  C   UNL     1       7.012   5.273  22.585  0.00  0.00    +0.016 A 
ATOM     21  C   UNL     1       9.914   2.698  24.304  0.00  0.00    +0.071 C 
BRANCH   2  23
ATOM     22  C   UNL     1      12.162   5.294  23.587  0.00  0.00    +0.007 C 
ATOM     23  C   UNL     1      11.885   3.821  23.325  0.00  0.00    +0.032 C 
ENDBRANCH   2  23
BRANCH   2  24
ATOM     24  O   UNL     1      10.401   2.628  21.904  0.00  0.00    -0.388 OA
ATOM     25  H   UNL     1      10.996   3.008  21.227  0.00  0.00    +0.210 HD
ENDBRANCH   2  24
BRANCH  17  26
ATOM     26  O   UNL     1       0.872   3.025  23.386  0.00  0.00    -0.506 OA
ATOM     27  H   UNL     1       0.081   2.761  22.892  0.00  0.00    +0.292 HD
ENDBRANCH  17  26
BRANCH   6  28
ATOM     28  O   UNL     1       5.724   1.584  23.853  0.00  0.00    -0.506 OA
ATOM     29  H   UNL     1       4.751   1.510  23.898  0.00  0.00    +0.292 HD
ENDBRANCH   6  28
ENDBRANCH   1  19
BRANCH   1  30
ATOM     30  C   UNL     1       9.288  -0.135  23.516  0.00  0.00    +0.253 C 
ATOM     31  O   UNL     1       8.820  -1.268  22.791  0.00  0.00    -0.346 OA
ATOM     32  C   UNL     1       7.615  -1.865  23.272  0.00  0.00    +0.149 C 
ATOM     33  C   UNL     1       6.378  -1.106  22.812  0.00  0.00    +0.041 C 
ATOM     34  C   UNL     1       7.689  -2.164  24.787  0.00  0.00    +0.167 C 
ATOM     35  C   UNL     1       8.070  -0.921  25.639  0.00  0.00    +0.092 C 
ATOM     36  C   UNL     1       9.383  -0.398  25.025  0.00  0.00    +0.083 C 
BRANCH  35  37
ATOM     37  N   UNL     1       7.026   0.110  25.823  0.00  0.00    -0.303 NA
ATOM     38  C   UNL     1       5.721  -0.442  26.241  0.00  0.00    +0.105 C 
ATOM     39  C   UNL     1       7.403   1.094  26.867  0.00  0.00    +0.105 C 
ENDBRANCH  35  37
BRANCH  34  40
ATOM     40  O   UNL     1       8.709  -3.179  24.921  0.00  0.00    -0.344 OA
BRANCH  40  41
ATOM     41  C   UNL     1       8.706  -3.958  26.104  0.00  0.00    +0.254 C 
ATOM     42  O   UNL     1       8.905  -5.329  25.763  0.00  0.00    -0.346 OA
ATOM     43  C   UNL     1       7.838  -5.945  25.043  0.00  0.00    +0.150 C 
ATOM     44  C   UNL     1       7.864  -5.634  23.544  0.00  0.00    +0.041 C 
ATOM     45  C   UNL     1       6.487  -5.755  25.773  0.00  0.00    +0.178 C 
ATOM     46  C   UNL     1       6.226  -4.280  26.146  0.00  0.00    +0.151 C 
ATOM     47  C   UNL     1       7.433  -3.759  26.921  0.00  0.00    +0.095 C 
BRANCH  46  48
ATOM     48  O   UNL     1       5.942  -3.446  25.025  0.00  0.00    -0.389 OA
ATOM     49  H   UNL     1       6.475  -3.753  24.268  0.00  0.00    +0.210 HD
ENDBRANCH  46  48
BRANCH  45  50
ATOM     50  O   UNL     1       5.355  -6.343  25.126  0.00  0.00    -0.343 OA
BRANCH  50  51
ATOM     51  C   UNL     1       4.385  -6.898  26.013  0.00  0.00    +0.252 C 
ATOM     52  O   UNL     1       3.610  -7.895  25.352  0.00  0.00    -0.341 OA
ATOM     53  C   UNL     1       2.722  -7.394  24.360  0.00  0.00    +0.184 C 
ATOM     54  C   UNL     1       1.866  -8.568  23.910  0.00  0.00    +0.046 C 
ATOM     55  C   UNL     1       1.855  -6.249  24.894  0.00  0.00    +0.162 C 
ATOM     56  O   UNL     1       0.640  -6.164  24.726  0.00  0.00    -0.295 OA
ATOM     57  C   UNL     1       2.619  -5.166  25.605  0.00  0.00    +0.082 C 
ATOM     58  C   UNL     1       3.471  -5.849  26.659  0.00  0.00    +0.069 C 
ENDBRANCH  50  51
ENDBRANCH  45  50
ENDBRANCH  40  41
ENDBRANCH  34  40
ENDBRANCH   1  30
TORSDOF 12
ENDMDL
