MODEL 1
REMARK VINA RESULT:      -6.4      0.000      0.000
REMARK  Name = 
REMARK  5 active torsions:
REMARK  status: ('A' for Active; 'I' for Inactive)
REMARK    1  A    between atoms: N_1  and  C_2
REMARK    2  A    between atoms: C_4  and  O_6
REMARK    3  A    between atoms: C_7  and  C_9
REMARK    4  A    between atoms: C_9  and  O_10
REMARK    5  A    between atoms: C_12  and  N_14
REMARK                            x       y       z     vdW  Elec       q    Type
REMARK                         _______ _______ _______ _____ _____    ______ ____
ROOT
ATOM      1  C   UNL     1       9.086  -1.257  22.675  0.00  0.00    +0.133 C 
ATOM      2  C   UNL     1       9.583  -1.173  24.137  0.00  0.00    +0.241 C 
ATOM      3  O   UNL     1       9.641   0.223  24.509  0.00  0.00    -0.347 OA
ATOM      4  C   UNL     1       9.021   1.021  23.478  0.00  0.00    +0.176 C 
ATOM      5  C   UNL     1       8.310   0.055  22.531  0.00  0.00    +0.166 C 
ENDROOT
BRANCH   2   6
ATOM      6  N   UNL     1       8.735  -1.889  25.078  0.00  0.00    -0.286 N 
ATOM      7  C   UNL     1       8.740  -3.249  25.263  0.00  0.00    +0.167 A 
ATOM      8  N   UNL     1       9.470  -4.170  24.616  0.00  0.00    -0.216 NA
ATOM      9  C   UNL     1       9.206  -5.408  25.084  0.00  0.00    +0.225 A 
ATOM     10  N   UNL     1       8.346  -5.772  26.062  0.00  0.00    -0.219 NA
ATOM     11  C   UNL     1       7.644  -4.802  26.691  0.00  0.00    +0.147 A 
ATOM     12  N   UNL     1       6.777  -5.168  27.711  0.00  0.00    -0.341 N 
ATOM     13  H   UNL     1       6.068  -4.471  27.910  0.00  0.00    +0.144 HD
ATOM     14  H   UNL     1       6.494  -6.137  27.658  0.00  0.00    +0.144 HD
ATOM     15  C   UNL     1       7.816  -3.473  26.272  0.00  0.00    +0.147 A 
ATOM     16  N   UNL     1       7.221  -2.290  26.668  0.00  0.00    -0.231 NA
ATOM     17  C   UNL     1       7.800  -1.366  25.930  0.00  0.00    +0.203 A 
ENDBRANCH   2   6
BRANCH   1  18
ATOM     18  N   UNL     1      10.177  -1.377  21.689  0.00  0.00    -0.322 NA
ATOM     19  H   UNL     1      10.776  -0.553  21.686  0.00  0.00    +0.119 HD
ATOM     20  H   UNL     1      10.764  -2.193  21.859  0.00  0.00    +0.119 HD
ENDBRANCH   1  18
BRANCH   5  21
ATOM     21  O   UNL     1       6.962  -0.130  22.973  0.00  0.00    -0.387 OA
ATOM     22  H   UNL     1       6.955  -0.816  23.665  0.00  0.00    +0.210 HD
ENDBRANCH   5  21
BRANCH   4  23
ATOM     23  C   UNL     1      10.089   1.869  22.770  0.00  0.00    +0.190 C 
BRANCH  23  24
ATOM     24  O   UNL     1       9.879   1.936  21.361  0.00  0.00    -0.392 OA
ATOM     25  H   UNL     1      10.619   2.425  20.961  0.00  0.00    +0.210 HD
ENDBRANCH  23  24
ENDBRANCH   4  23
TORSDOF 5
ENDMDL
MODEL 2
REMARK VINA RESULT:      -6.3      2.671      3.427
REMARK  Name = 
REMARK  5 active torsions:
REMARK  status: ('A' for Active; 'I' for Inactive)
REMARK    1  A    between atoms: N_1  and  C_2
REMARK    2  A    between atoms: C_4  and  O_6
REMARK    3  A    between atoms: C_7  and  C_9
REMARK    4  A    between atoms: C_9  and  O_10
REMARK    5  A    between atoms: C_12  and  N_14
REMARK                            x       y       z     vdW  Elec       q    Type
REMARK                         _______ _______ _______ _____ _____    ______ ____
ROOT
ATOM      1  C   UNL     1      10.049  -0.889  24.096  0.00  0.00    +0.133 C 
ATOM      2  C   UNL     1       8.541  -1.216  23.984  0.00  0.00    +0.241 C 
ATOM      3  O   UNL     1       8.006  -0.468  22.868  0.00  0.00    -0.347 OA
ATOM      4  C   UNL     1       9.089   0.140  22.132  0.00  0.00    +0.176 C 
ATOM      5  C   UNL     1      10.387  -0.467  22.665  0.00  0.00    +0.166 C 
ENDROOT
BRANCH   2   6
ATOM      6  N   UNL     1       8.269  -2.632  23.792  0.00  0.00    -0.286 N 
ATOM      7  C   UNL     1       7.227  -3.140  23.058  0.00  0.00    +0.167 A 
ATOM      8  N   UNL     1       6.259  -2.467  22.419  0.00  0.00    -0.216 NA
ATOM      9  C   UNL     1       5.415  -3.316  21.795  0.00  0.00    +0.225 A 
ATOM     10  N   UNL     1       5.455  -4.667  21.759  0.00  0.00    -0.219 NA
ATOM     11  C   UNL     1       6.461  -5.295  22.409  0.00  0.00    +0.147 A 
ATOM     12  N   UNL     1       6.519  -6.681  22.356  0.00  0.00    -0.341 N 
ATOM     13  H   UNL     1       7.074  -7.092  23.099  0.00  0.00    +0.144 HD
ATOM     14  H   UNL     1       5.629  -7.104  22.134  0.00  0.00    +0.144 HD
ATOM     15  C   UNL     1       7.389  -4.516  23.119  0.00  0.00    +0.147 A 
ATOM     16  N   UNL     1       8.472  -4.851  23.907  0.00  0.00    -0.231 NA
ATOM     17  C   UNL     1       8.973  -3.696  24.291  0.00  0.00    +0.203 A 
ENDBRANCH   2   6
BRANCH   1  18
ATOM     18  N   UNL     1      10.350   0.166  25.082  0.00  0.00    -0.322 NA
ATOM     19  H   UNL     1      11.135  -0.088  25.680  0.00  0.00    +0.119 HD
ATOM     20  H   UNL     1      10.568   1.058  24.639  0.00  0.00    +0.119 HD
ENDBRANCH   1  18
BRANCH   5  21
ATOM     21  O   UNL     1      10.721  -1.620  21.886  0.00  0.00    -0.387 OA
ATOM     22  H   UNL     1      10.110  -1.668  21.128  0.00  0.00    +0.210 HD
ENDBRANCH   5  21
BRANCH   4  23
ATOM     23  C   UNL     1       9.034   1.667  22.302  0.00  0.00    +0.190 C 
BRANCH  23  24
ATOM     24  O   UNL     1      10.132   2.320  21.669  0.00  0.00    -0.392 OA
ATOM     25  H   UNL     1       9.796   2.822  20.906  0.00  0.00    +0.210 HD
ENDBRANCH  23  24
ENDBRANCH   4  23
TORSDOF 5
ENDMDL
MODEL 3
REMARK VINA RESULT:      -6.1      2.557      3.491
REMARK  Name = 
REMARK  5 active torsions:
REMARK  status: ('A' for Active; 'I' for Inactive)
REMARK    1  A    between atoms: N_1  and  C_2
REMARK    2  A    between atoms: C_4  and  O_6
REMARK    3  A    between atoms: C_7  and  C_9
REMARK    4  A    between atoms: C_9  and  O_10
REMARK    5  A    between atoms: C_12  and  N_14
REMARK                            x       y       z     vdW  Elec       q    Type
REMARK                         _______ _______ _______ _____ _____    ______ ____
ROOT
ATOM      1  C   UNL     1       7.258  -3.134  23.576  0.00  0.00    +0.133 C 
ATOM      2  C   UNL     1       8.132  -4.305  24.084  0.00  0.00    +0.241 C 
ATOM      3  O   UNL     1       9.468  -3.801  24.304  0.00  0.00    -0.347 OA
ATOM      4  C   UNL     1       9.466  -2.362  24.182  0.00  0.00    +0.176 C 
ATOM      5  C   UNL     1       8.003  -1.920  24.135  0.00  0.00    +0.166 C 
ENDROOT
BRANCH   2   6
ATOM      6  N   UNL     1       7.633  -4.907  25.311  0.00  0.00    -0.286 N 
ATOM      7  C   UNL     1       6.445  -5.582  25.429  0.00  0.00    +0.167 A 
ATOM      8  N   UNL     1       5.512  -5.788  24.487  0.00  0.00    -0.216 NA
ATOM      9  C   UNL     1       4.482  -6.507  24.980  0.00  0.00    +0.225 A 
ATOM     10  N   UNL     1       4.319  -6.996  26.230  0.00  0.00    -0.219 NA
ATOM     11  C   UNL     1       5.296  -6.771  27.138  0.00  0.00    +0.147 A 
ATOM     12  N   UNL     1       5.144  -7.291  28.416  0.00  0.00    -0.341 N 
ATOM     13  H   UNL     1       5.722  -6.832  29.111  0.00  0.00    +0.144 HD
ATOM     14  H   UNL     1       4.180  -7.488  28.649  0.00  0.00    +0.144 HD
ATOM     15  C   UNL     1       6.410  -6.010  26.748  0.00  0.00    +0.147 A 
ATOM     16  N   UNL     1       7.523  -5.573  27.438  0.00  0.00    -0.231 NA
ATOM     17  C   UNL     1       8.231  -4.917  26.543  0.00  0.00    +0.203 A 
ENDBRANCH   2   6
BRANCH   1  18
ATOM     18  N   UNL     1       7.131  -3.090  22.107  0.00  0.00    -0.322 NA
ATOM     19  H   UNL     1       6.266  -2.636  21.816  0.00  0.00    +0.119 HD
ATOM     20  H   UNL     1       7.907  -2.598  21.666  0.00  0.00    +0.119 HD
ENDBRANCH   1  18
BRANCH   5  21
ATOM     21  O   UNL     1       7.552  -1.645  25.465  0.00  0.00    -0.387 OA
ATOM     22  H   UNL     1       6.629  -1.337  25.420  0.00  0.00    +0.210 HD
ENDBRANCH   5  21
BRANCH   4  23
ATOM     23  C   UNL     1      10.252  -1.950  22.927  0.00  0.00    +0.190 C 
BRANCH  23  24
ATOM     24  O   UNL     1       9.495  -1.095  22.073  0.00  0.00    -0.392 OA
ATOM     25  H   UNL     1       9.698  -1.322  21.149  0.00  0.00    +0.210 HD
ENDBRANCH  23  24
ENDBRANCH   4  23
TORSDOF 5
ENDMDL
MODEL 4
REMARK VINA RESULT:      -6.0      2.823      6.150
REMARK  Name = 
REMARK  5 active torsions:
REMARK  status: ('A' for Active; 'I' for Inactive)
REMARK    1  A    between atoms: N_1  and  C_2
REMARK    2  A    between atoms: C_4  and  O_6
REMARK    3  A    between atoms: C_7  and  C_9
REMARK    4  A    between atoms: C_9  and  O_10
REMARK    5  A    between atoms: C_12  and  N_14
REMARK                            x       y       z     vdW  Elec       q    Type
REMARK                         _______ _______ _______ _____ _____    ______ ____
ROOT
ATOM      1  C   UNL     1       7.917  -4.333  23.635  0.00  0.00    +0.133 C 
ATOM      2  C   UNL     1       7.421  -2.897  23.925  0.00  0.00    +0.241 C 
ATOM      3  O   UNL     1       7.552  -2.660  25.345  0.00  0.00    -0.347 OA
ATOM      4  C   UNL     1       8.286  -3.746  25.949  0.00  0.00    +0.176 C 
ATOM      5  C   UNL     1       8.867  -4.582  24.809  0.00  0.00    +0.166 C 
ENDROOT
BRANCH   2   6
ATOM      6  N   UNL     1       8.154  -1.874  23.195  0.00  0.00    -0.286 N 
ATOM      7  C   UNL     1       7.796  -0.551  23.124  0.00  0.00    +0.167 A 
ATOM      8  N   UNL     1       6.722   0.046  23.659  0.00  0.00    -0.216 NA
ATOM      9  C   UNL     1       6.718   1.367  23.382  0.00  0.00    +0.225 A 
ATOM     10  N   UNL     1       7.621   2.081  22.673  0.00  0.00    -0.219 NA
ATOM     11  C   UNL     1       8.694   1.431  22.166  0.00  0.00    +0.147 A 
ATOM     12  N   UNL     1       9.637   2.163  21.457  0.00  0.00    -0.341 N 
ATOM     13  H   UNL     1      10.216   1.596  20.849  0.00  0.00    +0.144 HD
ATOM     14  H   UNL     1       9.268   3.032  21.094  0.00  0.00    +0.144 HD
ATOM     15  C   UNL     1       8.795   0.045  22.368  0.00  0.00    +0.147 A 
ATOM     16  N   UNL     1       9.718  -0.890  21.944  0.00  0.00    -0.231 NA
ATOM     17  C   UNL     1       9.299  -2.027  22.460  0.00  0.00    +0.203 A 
ENDBRANCH   2   6
BRANCH   1  18
ATOM     18  N   UNL     1       6.830  -5.329  23.569  0.00  0.00    -0.322 NA
ATOM     19  H   UNL     1       7.024  -6.055  22.881  0.00  0.00    +0.119 HD
ATOM     20  H   UNL     1       6.665  -5.781  24.467  0.00  0.00    +0.119 HD
ENDBRANCH   1  18
BRANCH   5  21
ATOM     21  O   UNL     1      10.173  -4.093  24.486  0.00  0.00    -0.387 OA
ATOM     22  H   UNL     1      10.809  -4.826  24.579  0.00  0.00    +0.210 HD
ENDBRANCH   5  21
BRANCH   4  23
ATOM     23  C   UNL     1       7.351  -4.556  26.862  0.00  0.00    +0.190 C 
BRANCH  23  24
ATOM     24  O   UNL     1       7.977  -5.733  27.369  0.00  0.00    -0.392 OA
ATOM     25  H   UNL     1       8.814  -5.479  27.794  0.00  0.00    +0.210 HD
ENDBRANCH  23  24
ENDBRANCH   4  23
TORSDOF 5
ENDMDL
MODEL 5
REMARK VINA RESULT:      -6.0      1.720      2.763
REMARK  Name = 
REMARK  5 active torsions:
REMARK  status: ('A' for Active; 'I' for Inactive)
REMARK    1  A    between atoms: N_1  and  C_2
REMARK    2  A    between atoms: C_4  and  O_6
REMARK    3  A    between atoms: C_7  and  C_9
REMARK    4  A    between atoms: C_9  and  O_10
REMARK    5  A    between atoms: C_12  and  N_14
REMARK                            x       y       z     vdW  Elec       q    Type
REMARK                         _______ _______ _______ _____ _____    ______ ____
ROOT
ATOM      1  C   UNL     1       7.142   0.045  24.319  0.00  0.00    +0.133 C 
ATOM      2  C   UNL     1       7.640  -0.905  23.205  0.00  0.00    +0.241 C 
ATOM      3  O   UNL     1       8.426  -0.127  22.274  0.00  0.00    -0.347 OA
ATOM      4  C   UNL     1       8.647   1.193  22.816  0.00  0.00    +0.176 C 
ATOM      5  C   UNL     1       8.192   1.158  24.275  0.00  0.00    +0.166 C 
ENDROOT
BRANCH   2   6
ATOM      6  N   UNL     1       8.439  -2.013  23.704  0.00  0.00    -0.286 N 
ATOM      7  C   UNL     1       7.950  -3.070  24.431  0.00  0.00    +0.167 A 
ATOM      8  N   UNL     1       6.693  -3.276  24.849  0.00  0.00    -0.216 NA
ATOM      9  C   UNL     1       6.597  -4.437  25.530  0.00  0.00    +0.225 A 
ATOM     10  N   UNL     1       7.571  -5.334  25.807  0.00  0.00    -0.219 NA
ATOM     11  C   UNL     1       8.819  -5.083  25.350  0.00  0.00    +0.147 A 
ATOM     12  N   UNL     1       9.818  -6.011  25.610  0.00  0.00    -0.341 N 
ATOM     13  H   UNL     1      10.755  -5.630  25.535  0.00  0.00    +0.144 HD
ATOM     14  H   UNL     1       9.605  -6.607  26.399  0.00  0.00    +0.144 HD
ATOM     15  C   UNL     1       9.048  -3.889  24.647  0.00  0.00    +0.147 A 
ATOM     16  N   UNL     1      10.192  -3.333  24.110  0.00  0.00    -0.231 NA
ATOM     17  C   UNL     1       9.786  -2.211  23.554  0.00  0.00    +0.203 A 
ENDBRANCH   2   6
BRANCH   1  18
ATOM     18  N   UNL     1       5.775   0.551  24.094  0.00  0.00    -0.322 NA
ATOM     19  H   UNL     1       5.176  -0.154  23.668  0.00  0.00    +0.119 HD
ATOM     20  H   UNL     1       5.331   0.862  24.957  0.00  0.00    +0.119 HD
ENDBRANCH   1  18
BRANCH   5  21
ATOM     21  O   UNL     1       9.304   0.808  25.106  0.00  0.00    -0.387 OA
ATOM     22  H   UNL     1       9.105   1.080  26.020  0.00  0.00    +0.210 HD
ENDBRANCH   5  21
BRANCH   4  23
ATOM     23  C   UNL     1       7.879   2.229  21.980  0.00  0.00    +0.190 C 
BRANCH  23  24
ATOM     24  O   UNL     1       8.318   3.561  22.235  0.00  0.00    -0.392 OA
ATOM     25  H   UNL     1       7.559   4.161  22.137  0.00  0.00    +0.210 HD
ENDBRANCH  23  24
ENDBRANCH   4  23
TORSDOF 5
ENDMDL
MODEL 6
REMARK VINA RESULT:      -5.9      1.881      2.230
REMARK  Name = 
REMARK  5 active torsions:
REMARK  status: ('A' for Active; 'I' for Inactive)
REMARK    1  A    between atoms: N_1  and  C_2
REMARK    2  A    between atoms: C_4  and  O_6
REMARK    3  A    between atoms: C_7  and  C_9
REMARK    4  A    between atoms: C_9  and  O_10
REMARK    5  A    between atoms: C_12  and  N_14
REMARK                            x       y       z     vdW  Elec       q    Type
REMARK                         _______ _______ _______ _____ _____    ______ ____
ROOT
ATOM      1  C   UNL     1       8.921  -1.739  22.251  0.00  0.00    +0.133 C 
ATOM      2  C   UNL     1       9.093  -2.650  23.489  0.00  0.00    +0.241 C 
ATOM      3  O   UNL     1       9.226  -1.801  24.652  0.00  0.00    -0.347 OA
ATOM      4  C   UNL     1       8.940  -0.434  24.285  0.00  0.00    +0.176 C 
ATOM      5  C   UNL     1       8.348  -0.465  22.876  0.00  0.00    +0.166 C 
ENDROOT
BRANCH   2   6
ATOM      6  N   UNL     1       7.986  -3.572  23.688  0.00  0.00    -0.286 N 
ATOM      7  C   UNL     1       7.759  -4.294  24.833  0.00  0.00    +0.167 A 
ATOM      8  N   UNL     1       8.501  -4.329  25.950  0.00  0.00    -0.216 NA
ATOM      9  C   UNL     1       7.949  -5.151  26.867  0.00  0.00    +0.225 A 
ATOM     10  N   UNL     1       6.815  -5.880  26.770  0.00  0.00    -0.219 NA
ATOM     11  C   UNL     1       6.097  -5.797  25.626  0.00  0.00    +0.147 A 
ATOM     12  N   UNL     1       4.919  -6.525  25.529  0.00  0.00    -0.341 N 
ATOM     13  H   UNL     1       4.614  -6.677  24.575  0.00  0.00    +0.144 HD
ATOM     14  H   UNL     1       4.885  -7.305  26.172  0.00  0.00    +0.144 HD
ATOM     15  C   UNL     1       6.586  -4.991  24.585  0.00  0.00    +0.147 A 
ATOM     16  N   UNL     1       6.125  -4.744  23.307  0.00  0.00    -0.231 NA
ATOM     17  C   UNL     1       6.990  -3.889  22.802  0.00  0.00    +0.203 A 
ENDBRANCH   2   6
BRANCH   1  18
ATOM     18  N   UNL     1      10.179  -1.493  21.522  0.00  0.00    -0.322 NA
ATOM     19  H   UNL     1      10.552  -2.348  21.112  0.00  0.00    +0.119 HD
ATOM     20  H   UNL     1      10.065  -0.809  20.774  0.00  0.00    +0.119 HD
ENDBRANCH   1  18
BRANCH   5  21
ATOM     21  O   UNL     1       6.923  -0.568  22.967  0.00  0.00    -0.387 OA
ATOM     22  H   UNL     1       6.693  -1.493  23.172  0.00  0.00    +0.210 HD
ENDBRANCH   5  21
BRANCH   4  23
ATOM     23  C   UNL     1      10.226   0.403  24.370  0.00  0.00    +0.190 C 
BRANCH  23  24
ATOM     24  O   UNL     1      10.453   1.167  23.188  0.00  0.00    -0.392 OA
ATOM     25  H   UNL     1      11.230   0.804  22.730  0.00  0.00    +0.210 HD
ENDBRANCH  23  24
ENDBRANCH   4  23
TORSDOF 5
ENDMDL
MODEL 7
REMARK VINA RESULT:      -5.9      2.519      6.045
REMARK  Name = 
REMARK  5 active torsions:
REMARK  status: ('A' for Active; 'I' for Inactive)
REMARK    1  A    between atoms: N_1  and  C_2
REMARK    2  A    between atoms: C_4  and  O_6
REMARK    3  A    between atoms: C_7  and  C_9
REMARK    4  A    between atoms: C_9  and  O_10
REMARK    5  A    between atoms: C_12  and  N_14
REMARK                            x       y       z     vdW  Elec       q    Type
REMARK                         _______ _______ _______ _____ _____    ______ ____
ROOT
ATOM      1  C   UNL     1       7.286  -2.426  25.319  0.00  0.00    +0.133 C 
ATOM      2  C   UNL     1       8.823  -2.311  25.189  0.00  0.00    +0.241 C 
ATOM      3  O   UNL     1       9.349  -3.635  24.945  0.00  0.00    -0.347 OA
ATOM      4  C   UNL     1       8.259  -4.548  24.696  0.00  0.00    +0.176 C 
ATOM      5  C   UNL     1       6.997  -3.701  24.524  0.00  0.00    +0.166 C 
ENDROOT
BRANCH   2   6
ATOM      6  N   UNL     1       9.249  -1.417  24.124  0.00  0.00    -0.286 N 
ATOM      7  C   UNL     1       9.150  -0.049  24.159  0.00  0.00    +0.167 A 
ATOM      8  N   UNL     1       8.628   0.719  25.127  0.00  0.00    -0.216 NA
ATOM      9  C   UNL     1       8.720   2.026  24.806  0.00  0.00    +0.225 A 
ATOM     10  N   UNL     1       9.246   2.584  23.692  0.00  0.00    -0.219 NA
ATOM     11  C   UNL     1       9.771   1.765  22.753  0.00  0.00    +0.147 A 
ATOM     12  N   UNL     1      10.333   2.333  21.618  0.00  0.00    -0.341 N 
ATOM     13  H   UNL     1      10.407   1.690  20.838  0.00  0.00    +0.144 HD
ATOM     14  H   UNL     1       9.994   3.268  21.437  0.00  0.00    +0.144 HD
ATOM     15  C   UNL     1       9.710   0.378  22.964  0.00  0.00    +0.147 A 
ATOM     16  N   UNL     1      10.101  -0.697  22.191  0.00  0.00    -0.231 NA
ATOM     17  C   UNL     1       9.809  -1.754  22.920  0.00  0.00    +0.203 A 
ENDBRANCH   2   6
BRANCH   1  18
ATOM     18  N   UNL     1       6.818  -2.514  26.715  0.00  0.00    -0.322 NA
ATOM     19  H   UNL     1       7.594  -2.592  27.369  0.00  0.00    +0.119 HD
ATOM     20  H   UNL     1       6.257  -1.707  26.986  0.00  0.00    +0.119 HD
ENDBRANCH   1  18
BRANCH   5  21
ATOM     21  O   UNL     1       6.832  -3.381  23.138  0.00  0.00    -0.387 OA
ATOM     22  H   UNL     1       5.885  -3.445  22.918  0.00  0.00    +0.210 HD
ENDBRANCH   5  21
BRANCH   4  23
ATOM     23  C   UNL     1       8.148  -5.548  25.858  0.00  0.00    +0.190 C 
BRANCH  23  24
ATOM     24  O   UNL     1       8.741  -5.053  27.056  0.00  0.00    -0.392 OA
ATOM     25  H   UNL     1       8.455  -4.132  27.185  0.00  0.00    +0.210 HD
ENDBRANCH  23  24
ENDBRANCH   4  23
TORSDOF 5
ENDMDL
MODEL 8
REMARK VINA RESULT:      -5.9      2.251      3.014
REMARK  Name = 
REMARK  5 active torsions:
REMARK  status: ('A' for Active; 'I' for Inactive)
REMARK    1  A    between atoms: N_1  and  C_2
REMARK    2  A    between atoms: C_4  and  O_6
REMARK    3  A    between atoms: C_7  and  C_9
REMARK    4  A    between atoms: C_9  and  O_10
REMARK    5  A    between atoms: C_12  and  N_14
REMARK                            x       y       z     vdW  Elec       q    Type
REMARK                         _______ _______ _______ _____ _____    ______ ____
ROOT
ATOM      1  C   UNL     1       9.441  -1.092  24.458  0.00  0.00    +0.133 C 
ATOM      2  C   UNL     1       8.038  -0.983  23.817  0.00  0.00    +0.241 C 
ATOM      3  O   UNL     1       8.135  -0.097  22.680  0.00  0.00    -0.347 OA
ATOM      4  C   UNL     1       9.524   0.198  22.417  0.00  0.00    +0.176 C 
ATOM      5  C   UNL     1      10.353  -0.756  23.276  0.00  0.00    +0.166 C 
ENDROOT
BRANCH   2   6
ATOM      6  N   UNL     1       7.497  -2.264  23.388  0.00  0.00    -0.286 N 
ATOM      7  C   UNL     1       6.984  -3.222  24.226  0.00  0.00    +0.167 A 
ATOM      8  N   UNL     1       6.911  -3.197  25.565  0.00  0.00    -0.216 NA
ATOM      9  C   UNL     1       6.331  -4.321  26.036  0.00  0.00    +0.225 A 
ATOM     10  N   UNL     1       5.858  -5.379  25.339  0.00  0.00    -0.219 NA
ATOM     11  C   UNL     1       5.945  -5.347  23.990  0.00  0.00    +0.147 A 
ATOM     12  N   UNL     1       5.440  -6.420  23.269  0.00  0.00    -0.341 N 
ATOM     13  H   UNL     1       5.814  -6.488  22.328  0.00  0.00    +0.144 HD
ATOM     14  H   UNL     1       5.371  -7.265  23.818  0.00  0.00    +0.144 HD
ATOM     15  C   UNL     1       6.555  -4.236  23.384  0.00  0.00    +0.147 A 
ATOM     16  N   UNL     1       6.836  -3.936  22.066  0.00  0.00    -0.231 NA
ATOM     17  C   UNL     1       7.399  -2.747  22.110  0.00  0.00    +0.203 A 
ENDBRANCH   2   6
BRANCH   1  18
ATOM     18  N   UNL     1       9.639  -0.180  25.600  0.00  0.00    -0.322 NA
ATOM     19  H   UNL     1       9.302   0.760  25.396  0.00  0.00    +0.119 HD
ATOM     20  H   UNL     1       9.168  -0.507  26.443  0.00  0.00    +0.119 HD
ENDBRANCH   1  18
BRANCH   5  21
ATOM     21  O   UNL     1      10.631  -1.943  22.526  0.00  0.00    -0.387 OA
ATOM     22  H   UNL     1      10.026  -1.975  21.764  0.00  0.00    +0.210 HD
ENDBRANCH   5  21
BRANCH   4  23
ATOM     23  C   UNL     1       9.805   1.676  22.730  0.00  0.00    +0.190 C 
BRANCH  23  24
ATOM     24  O   UNL     1      10.274   2.390  21.588  0.00  0.00    -0.392 OA
ATOM     25  H   UNL     1      10.447   1.753  20.874  0.00  0.00    +0.210 HD
ENDBRANCH  23  24
ENDBRANCH   4  23
TORSDOF 5
ENDMDL
MODEL 9
REMARK VINA RESULT:      -5.8      2.820      3.051
REMARK  Name = 
REMARK  5 active torsions:
REMARK  status: ('A' for Active; 'I' for Inactive)
REMARK    1  A    between atoms: N_1  and  C_2
REMARK    2  A    between atoms: C_4  and  O_6
REMARK    3  A    between atoms: C_7  and  C_9
REMARK    4  A    between atoms: C_9  and  O_10
REMARK    5  A    between atoms: C_12  and  N_14
REMARK                            x       y       z     vdW  Elec       q    Type
REMARK                         _______ _______ _______ _____ _____    ______ ____
ROOT
ATOM      1  C   UNL     1       8.627  -1.818  22.494  0.00  0.00    +0.133 C 
ATOM      2  C   UNL     1       8.973  -2.822  23.618  0.00  0.00    +0.241 C 
ATOM      3  O   UNL     1       9.358  -2.066  24.788  0.00  0.00    -0.347 OA
ATOM      4  C   UNL     1       9.081  -0.666  24.569  0.00  0.00    +0.176 C 
ATOM      5  C   UNL     1       8.243  -0.571  23.294  0.00  0.00    +0.166 C 
ENDROOT
BRANCH   2   6
ATOM      6  N   UNL     1       7.873  -3.712  23.958  0.00  0.00    -0.286 N 
ATOM      7  C   UNL     1       7.122  -4.415  23.050  0.00  0.00    +0.167 A 
ATOM      8  N   UNL     1       7.214  -4.402  21.712  0.00  0.00    -0.216 NA
ATOM      9  C   UNL     1       6.308  -5.235  21.160  0.00  0.00    +0.225 A 
ATOM     10  N   UNL     1       5.394  -6.015  21.780  0.00  0.00    -0.219 NA
ATOM     11  C   UNL     1       5.353  -6.001  23.132  0.00  0.00    +0.147 A 
ATOM     12  N   UNL     1       4.432  -6.817  23.775  0.00  0.00    -0.341 N 
ATOM     13  H   UNL     1       4.231  -6.531  24.726  0.00  0.00    +0.144 HD
ATOM     14  H   UNL     1       3.657  -7.080  23.180  0.00  0.00    +0.144 HD
ATOM     15  C   UNL     1       6.233  -5.150  23.820  0.00  0.00    +0.147 A 
ATOM     16  N   UNL     1       6.398  -4.874  25.163  0.00  0.00    -0.231 NA
ATOM     17  C   UNL     1       7.390  -4.010  25.204  0.00  0.00    +0.203 A 
ENDBRANCH   2   6
BRANCH   1  18
ATOM     18  N   UNL     1       9.743  -1.569  21.563  0.00  0.00    -0.322 NA
ATOM     19  H   UNL     1      10.642  -1.568  22.042  0.00  0.00    +0.119 HD
ATOM     20  H   UNL     1       9.786  -2.262  20.816  0.00  0.00    +0.119 HD
ENDBRANCH   1  18
BRANCH   5  21
ATOM     21  O   UNL     1       6.855  -0.625  23.638  0.00  0.00    -0.387 OA
ATOM     22  H   UNL     1       6.651  -1.522  23.959  0.00  0.00    +0.210 HD
ENDBRANCH   5  21
BRANCH   4  23
ATOM     23  C   UNL     1      10.403   0.112  24.470  0.00  0.00    +0.190 C 
BRANCH  23  24
ATOM     24  O   UNL     1      10.441   0.970  23.332  0.00  0.00    -0.392 OA
ATOM     25  H   UNL     1      10.164   1.861  23.607  0.00  0.00    +0.210 HD
ENDBRANCH  23  24
ENDBRANCH   4  23
TORSDOF 5
ENDMDL
