MODEL 1
REMARK VINA RESULT:      -4.4      0.000      0.000
REMARK  Name = 
REMARK  7 active torsions:
REMARK  status: ('A' for Active; 'I' for Inactive)
REMARK    1  A    between atoms: O_1  and  C_2
REMARK    2  A    between atoms: C_2  and  C_4
REMARK    3  A    between atoms: C_2  and  C_10
REMARK    4  A    between atoms: C_4  and  O_5
REMARK    5  A    between atoms: O_5  and  P_6
REMARK    6  A    between atoms: P_6  and  O_7
REMARK    7  A    between atoms: P_6  and  O_8
REMARK                            x       y       z     vdW  Elec       q    Type
REMARK                         _______ _______ _______ _____ _____    ______ ____
ROOT
ATOM      1  O   UNL     1      10.039  -3.679  24.288  0.00  0.00    -0.284 OA
ENDROOT
BRANCH   1   2
ATOM      2  P   UNL     1       9.061  -4.735  25.248  0.00  0.00    +0.472 P 
ATOM      3  O   UNL     1       8.187  -5.681  26.108  0.00  0.00    -0.228 OA
BRANCH   2   4
ATOM      4  O   UNL     1      10.423  -5.613  25.477  0.00  0.00    -0.303 OA
ATOM      5  H   UNL     1      10.232  -6.555  25.639  0.00  0.00    +0.222 HD
ENDBRANCH   2   4
BRANCH   2   6
ATOM      6  O   UNL     1       8.569  -5.383  23.830  0.00  0.00    -0.303 OA
ATOM      7  H   UNL     1       7.723  -4.968  23.580  0.00  0.00    +0.222 HD
ENDBRANCH   2   6
ENDBRANCH   1   2
BRANCH   1   8
ATOM      8  C   UNL     1       9.328  -2.615  23.667  0.00  0.00    +0.211 C 
BRANCH   8   9
ATOM      9  C   UNL     1      10.314  -1.674  22.961  0.00  0.00    +0.203 C 
BRANCH   9  10
ATOM     10  O   UNL     1      10.072  -1.626  21.567  0.00  0.00    -0.382 OA
ATOM     11  H   UNL     1       9.241  -1.146  21.433  0.00  0.00    +0.210 HD
ENDBRANCH   9  10
BRANCH   9  12
ATOM     12  C   UNL     1      10.165  -0.295  23.573  0.00  0.00    +0.256 C 
ATOM     13  O   UNL     1      10.596  -0.010  24.700  0.00  0.00    -0.298 OA
ENDBRANCH   9  12
ENDBRANCH   8   9
ENDBRANCH   1   8
TORSDOF 7
ENDMDL
MODEL 2
REMARK VINA RESULT:      -4.0      2.907      4.042
REMARK  Name = 
REMARK  7 active torsions:
REMARK  status: ('A' for Active; 'I' for Inactive)
REMARK    1  A    between atoms: O_1  and  C_2
REMARK    2  A    between atoms: C_2  and  C_4
REMARK    3  A    between atoms: C_2  and  C_10
REMARK    4  A    between atoms: C_4  and  O_5
REMARK    5  A    between atoms: O_5  and  P_6
REMARK    6  A    between atoms: P_6  and  O_7
REMARK    7  A    between atoms: P_6  and  O_8
REMARK                            x       y       z     vdW  Elec       q    Type
REMARK                         _______ _______ _______ _____ _____    ______ ____
ROOT
ATOM      1  O   UNL     1       8.601  -0.679  22.607  0.00  0.00    -0.284 OA
ENDROOT
BRANCH   1   2
ATOM      2  P   UNL     1       9.461  -2.012  23.298  0.00  0.00    +0.472 P 
ATOM      3  O   UNL     1      10.232  -3.204  23.916  0.00  0.00    -0.228 OA
BRANCH   2   4
ATOM      4  O   UNL     1      10.049  -0.933  24.379  0.00  0.00    -0.303 OA
ATOM      5  H   UNL     1       9.810  -1.163  25.296  0.00  0.00    +0.222 HD
ENDBRANCH   2   4
BRANCH   2   6
ATOM      6  O   UNL     1      10.545  -1.790  22.093  0.00  0.00    -0.303 OA
ATOM      7  H   UNL     1      11.431  -1.707  22.489  0.00  0.00    +0.222 HD
ENDBRANCH   2   6
ENDBRANCH   1   2
BRANCH   1   8
ATOM      8  C   UNL     1       9.363   0.113  21.704  0.00  0.00    +0.211 C 
BRANCH   8   9
ATOM      9  C   UNL     1       9.241   1.596  22.083  0.00  0.00    +0.203 C 
BRANCH   9  10
ATOM     10  O   UNL     1      10.292   2.359  21.520  0.00  0.00    -0.382 OA
ATOM     11  H   UNL     1      10.730   1.806  20.857  0.00  0.00    +0.210 HD
ENDBRANCH   9  10
BRANCH   9  12
ATOM     12  C   UNL     1       7.898   2.096  21.588  0.00  0.00    +0.256 C 
ATOM     13  O   UNL     1       7.092   2.690  22.319  0.00  0.00    -0.298 OA
ENDBRANCH   9  12
ENDBRANCH   8   9
ENDBRANCH   1   8
TORSDOF 7
ENDMDL
MODEL 3
REMARK VINA RESULT:      -4.0      3.251      4.317
REMARK  Name = 
REMARK  7 active torsions:
REMARK  status: ('A' for Active; 'I' for Inactive)
REMARK    1  A    between atoms: O_1  and  C_2
REMARK    2  A    between atoms: C_2  and  C_4
REMARK    3  A    between atoms: C_2  and  C_10
REMARK    4  A    between atoms: C_4  and  O_5
REMARK    5  A    between atoms: O_5  and  P_6
REMARK    6  A    between atoms: P_6  and  O_7
REMARK    7  A    between atoms: P_6  and  O_8
REMARK                            x       y       z     vdW  Elec       q    Type
REMARK                         _______ _______ _______ _____ _____    ______ ____
ROOT
ATOM      1  O   UNL     1      10.485  -0.117  23.208  0.00  0.00    -0.284 OA
ENDROOT
BRANCH   1   2
ATOM      2  P   UNL     1       9.371  -1.312  22.640  0.00  0.00    +0.472 P 
ATOM      3  O   UNL     1       8.375  -2.383  22.130  0.00  0.00    -0.228 OA
BRANCH   2   4
ATOM      4  O   UNL     1      10.583  -2.390  22.857  0.00  0.00    -0.303 OA
ATOM      5  H   UNL     1      10.376  -3.043  23.551  0.00  0.00    +0.222 HD
ENDBRANCH   2   4
BRANCH   2   6
ATOM      6  O   UNL     1       9.754  -0.790  21.138  0.00  0.00    -0.303 OA
ATOM      7  H   UNL     1      10.360  -0.031  21.221  0.00  0.00    +0.222 HD
ENDBRANCH   2   6
ENDBRANCH   1   2
BRANCH   1   8
ATOM      8  C   UNL     1       9.877   1.049  23.751  0.00  0.00    +0.211 C 
BRANCH   8   9
ATOM      9  C   UNL     1      10.364   2.291  22.992  0.00  0.00    +0.203 C 
BRANCH   9  10
ATOM     10  O   UNL     1      10.071   2.197  21.610  0.00  0.00    -0.382 OA
ATOM     11  H   UNL     1      10.762   1.654  21.203  0.00  0.00    +0.210 HD
ENDBRANCH   9  10
BRANCH   9  12
ATOM     12  C   UNL     1       9.687   3.504  23.598  0.00  0.00    +0.256 C 
ATOM     13  O   UNL     1       8.541   3.859  23.288  0.00  0.00    -0.298 OA
ENDBRANCH   9  12
ENDBRANCH   8   9
ENDBRANCH   1   8
TORSDOF 7
ENDMDL
MODEL 4
REMARK VINA RESULT:      -3.9      3.358      4.835
REMARK  Name = 
REMARK  7 active torsions:
REMARK  status: ('A' for Active; 'I' for Inactive)
REMARK    1  A    between atoms: O_1  and  C_2
REMARK    2  A    between atoms: C_2  and  C_4
REMARK    3  A    between atoms: C_2  and  C_10
REMARK    4  A    between atoms: C_4  and  O_5
REMARK    5  A    between atoms: O_5  and  P_6
REMARK    6  A    between atoms: P_6  and  O_7
REMARK    7  A    between atoms: P_6  and  O_8
REMARK                            x       y       z     vdW  Elec       q    Type
REMARK                         _______ _______ _______ _____ _____    ______ ____
ROOT
ATOM      1  O   UNL     1       7.544  -5.236  22.818  0.00  0.00    -0.284 OA
ENDROOT
BRANCH   1   2
ATOM      2  P   UNL     1       5.822  -5.298  22.671  0.00  0.00    +0.472 P 
ATOM      3  O   UNL     1       4.280  -5.354  22.539  0.00  0.00    -0.228 OA
BRANCH   2   4
ATOM      4  O   UNL     1       6.032  -6.821  22.112  0.00  0.00    -0.303 OA
ATOM      5  H   UNL     1       6.968  -7.094  22.127  0.00  0.00    +0.222 HD
ENDBRANCH   2   4
BRANCH   2   6
ATOM      6  O   UNL     1       6.025  -4.476  21.272  0.00  0.00    -0.303 OA
ATOM      7  H   UNL     1       6.908  -4.064  21.283  0.00  0.00    +0.222 HD
ENDBRANCH   2   6
ENDBRANCH   1   2
BRANCH   1   8
ATOM      8  C   UNL     1       8.018  -4.475  23.923  0.00  0.00    +0.211 C 
BRANCH   8   9
ATOM      9  C   UNL     1       8.790  -5.385  24.888  0.00  0.00    +0.203 C 
BRANCH   9  10
ATOM     10  O   UNL     1      10.182  -5.136  24.828  0.00  0.00    -0.382 OA
ATOM     11  H   UNL     1      10.531  -5.222  25.727  0.00  0.00    +0.210 HD
ENDBRANCH   9  10
BRANCH   9  12
ATOM     12  C   UNL     1       8.265  -5.133  26.288  0.00  0.00    +0.256 C 
ATOM     13  O   UNL     1       7.486  -5.907  26.863  0.00  0.00    -0.298 OA
ENDBRANCH   9  12
ENDBRANCH   8   9
ENDBRANCH   1   8
TORSDOF 7
ENDMDL
MODEL 5
REMARK VINA RESULT:      -3.8      2.528      4.693
REMARK  Name = 
REMARK  7 active torsions:
REMARK  status: ('A' for Active; 'I' for Inactive)
REMARK    1  A    between atoms: O_1  and  C_2
REMARK    2  A    between atoms: C_2  and  C_4
REMARK    3  A    between atoms: C_2  and  C_10
REMARK    4  A    between atoms: C_4  and  O_5
REMARK    5  A    between atoms: O_5  and  P_6
REMARK    6  A    between atoms: P_6  and  O_7
REMARK    7  A    between atoms: P_6  and  O_8
REMARK                            x       y       z     vdW  Elec       q    Type
REMARK                         _______ _______ _______ _____ _____    ______ ____
ROOT
ATOM      1  O   UNL     1       8.344  -3.213  24.700  0.00  0.00    -0.284 OA
ENDROOT
BRANCH   1   2
ATOM      2  P   UNL     1       9.061  -2.092  23.594  0.00  0.00    +0.472 P 
ATOM      3  O   UNL     1       9.703  -1.089  22.604  0.00  0.00    -0.228 OA
BRANCH   2   4
ATOM      4  O   UNL     1      10.426  -2.983  23.744  0.00  0.00    -0.303 OA
ATOM      5  H   UNL     1      10.544  -3.327  24.649  0.00  0.00    +0.222 HD
ENDBRANCH   2   4
BRANCH   2   6
ATOM      6  O   UNL     1       9.247  -1.110  24.888  0.00  0.00    -0.303 OA
ATOM      7  H   UNL     1       9.238  -1.658  25.694  0.00  0.00    +0.222 HD
ENDBRANCH   2   6
ENDBRANCH   1   2
BRANCH   1   8
ATOM      8  C   UNL     1       8.333  -4.563  24.251  0.00  0.00    +0.211 C 
BRANCH   8   9
ATOM      9  C   UNL     1       8.816  -5.489  25.377  0.00  0.00    +0.203 C 
BRANCH   9  10
ATOM     10  O   UNL     1      10.229  -5.544  25.428  0.00  0.00    -0.382 OA
ATOM     11  H   UNL     1      10.478  -5.784  26.333  0.00  0.00    +0.210 HD
ENDBRANCH   9  10
BRANCH   9  12
ATOM     12  C   UNL     1       8.257  -4.964  26.685  0.00  0.00    +0.256 C 
ATOM     13  O   UNL     1       7.692  -5.691  27.515  0.00  0.00    -0.298 OA
ENDBRANCH   9  12
ENDBRANCH   8   9
ENDBRANCH   1   8
TORSDOF 7
ENDMDL
MODEL 6
REMARK VINA RESULT:      -3.8      3.068      5.570
REMARK  Name = 
REMARK  7 active torsions:
REMARK  status: ('A' for Active; 'I' for Inactive)
REMARK    1  A    between atoms: O_1  and  C_2
REMARK    2  A    between atoms: C_2  and  C_4
REMARK    3  A    between atoms: C_2  and  C_10
REMARK    4  A    between atoms: C_4  and  O_5
REMARK    5  A    between atoms: O_5  and  P_6
REMARK    6  A    between atoms: P_6  and  O_7
REMARK    7  A    between atoms: P_6  and  O_8
REMARK                            x       y       z     vdW  Elec       q    Type
REMARK                         _______ _______ _______ _____ _____    ______ ____
ROOT
ATOM      1  O   UNL     1      10.147   0.013  22.233  0.00  0.00    -0.284 OA
ENDROOT
BRANCH   1   2
ATOM      2  P   UNL     1       8.864   1.106  21.841  0.00  0.00    +0.472 P 
ATOM      3  O   UNL     1       7.717   2.085  21.491  0.00  0.00    -0.228 OA
BRANCH   2   4
ATOM      4  O   UNL     1      10.039   2.203  21.532  0.00  0.00    -0.303 OA
ATOM      5  H   UNL     1      10.012   2.521  20.611  0.00  0.00    +0.222 HD
ENDBRANCH   2   4
BRANCH   2   6
ATOM      6  O   UNL     1       8.717   1.331  23.454  0.00  0.00    -0.303 OA
ATOM      7  H   UNL     1       7.979   1.948  23.612  0.00  0.00    +0.222 HD
ENDBRANCH   2   6
ENDBRANCH   1   2
BRANCH   1   8
ATOM      8  C   UNL     1       9.793  -1.364  22.169  0.00  0.00    +0.211 C 
BRANCH   8   9
ATOM      9  C   UNL     1      10.028  -2.025  23.534  0.00  0.00    +0.203 C 
BRANCH   9  10
ATOM     10  O   UNL     1       9.987  -1.074  24.581  0.00  0.00    -0.382 OA
ATOM     11  H   UNL     1      10.074  -0.197  24.180  0.00  0.00    +0.210 HD
ENDBRANCH   9  10
BRANCH   9  12
ATOM     12  C   UNL     1       8.959  -3.081  23.732  0.00  0.00    +0.256 C 
ATOM     13  O   UNL     1       9.189  -4.180  24.257  0.00  0.00    -0.298 OA
ENDBRANCH   9  12
ENDBRANCH   8   9
ENDBRANCH   1   8
TORSDOF 7
ENDMDL
MODEL 7
REMARK VINA RESULT:      -3.8      2.679      4.747
REMARK  Name = 
REMARK  7 active torsions:
REMARK  status: ('A' for Active; 'I' for Inactive)
REMARK    1  A    between atoms: O_1  and  C_2
REMARK    2  A    between atoms: C_2  and  C_4
REMARK    3  A    between atoms: C_2  and  C_10
REMARK    4  A    between atoms: C_4  and  O_5
REMARK    5  A    between atoms: O_5  and  P_6
REMARK    6  A    between atoms: P_6  and  O_7
REMARK    7  A    between atoms: P_6  and  O_8
REMARK                            x       y       z     vdW  Elec       q    Type
REMARK                         _______ _______ _______ _____ _____    ______ ____
ROOT
ATOM      1  O   UNL     1       8.057  -2.559  22.204  0.00  0.00    -0.284 OA
ENDROOT
BRANCH   1   2
ATOM      2  P   UNL     1       9.287  -1.567  22.908  0.00  0.00    +0.472 P 
ATOM      3  O   UNL     1      10.388  -0.679  23.538  0.00  0.00    -0.228 OA
BRANCH   2   4
ATOM      4  O   UNL     1      10.046  -1.667  21.462  0.00  0.00    -0.303 OA
ATOM      5  H   UNL     1       9.694  -1.028  20.815  0.00  0.00    +0.222 HD
ENDBRANCH   2   4
BRANCH   2   6
ATOM      6  O   UNL     1       9.846  -2.943  23.592  0.00  0.00    -0.303 OA
ATOM      7  H   UNL     1       9.255  -3.183  24.329  0.00  0.00    +0.222 HD
ENDBRANCH   2   6
ENDBRANCH   1   2
BRANCH   1   8
ATOM      8  C   UNL     1       7.089  -3.046  23.125  0.00  0.00    +0.211 C 
BRANCH   8   9
ATOM      9  C   UNL     1       6.350  -4.246  22.517  0.00  0.00    +0.203 C 
BRANCH   9  10
ATOM     10  O   UNL     1       5.936  -3.977  21.190  0.00  0.00    -0.382 OA
ATOM     11  H   UNL     1       6.692  -4.149  20.609  0.00  0.00    +0.210 HD
ENDBRANCH   9  10
BRANCH   9  12
ATOM     12  C   UNL     1       7.288  -5.437  22.549  0.00  0.00    +0.256 C 
ATOM     13  O   UNL     1       8.246  -5.518  23.331  0.00  0.00    -0.298 OA
ENDBRANCH   9  12
ENDBRANCH   8   9
ENDBRANCH   1   8
TORSDOF 7
ENDMDL
MODEL 8
REMARK VINA RESULT:      -3.7      2.210      4.865
REMARK  Name = 
REMARK  7 active torsions:
REMARK  status: ('A' for Active; 'I' for Inactive)
REMARK    1  A    between atoms: O_1  and  C_2
REMARK    2  A    between atoms: C_2  and  C_4
REMARK    3  A    between atoms: C_2  and  C_10
REMARK    4  A    between atoms: C_4  and  O_5
REMARK    5  A    between atoms: O_5  and  P_6
REMARK    6  A    between atoms: P_6  and  O_7
REMARK    7  A    between atoms: P_6  and  O_8
REMARK                            x       y       z     vdW  Elec       q    Type
REMARK                         _______ _______ _______ _____ _____    ______ ____
ROOT
ATOM      1  O   UNL     1       8.813  -2.736  23.191  0.00  0.00    -0.284 OA
ENDROOT
BRANCH   1   2
ATOM      2  P   UNL     1       9.385  -1.129  22.899  0.00  0.00    +0.472 P 
ATOM      3  O   UNL     1       9.897   0.309  22.638  0.00  0.00    -0.228 OA
BRANCH   2   4
ATOM      4  O   UNL     1      10.550  -1.825  21.984  0.00  0.00    -0.303 OA
ATOM      5  H   UNL     1      10.756  -2.732  22.277  0.00  0.00    +0.222 HD
ENDBRANCH   2   4
BRANCH   2   6
ATOM      6  O   UNL     1      10.103  -1.241  24.364  0.00  0.00    -0.303 OA
ATOM      7  H   UNL     1      11.009  -1.576  24.237  0.00  0.00    +0.222 HD
ENDBRANCH   2   6
ENDBRANCH   1   2
BRANCH   1   8
ATOM      8  C   UNL     1       9.006  -3.201  24.522  0.00  0.00    +0.211 C 
BRANCH   8   9
ATOM      9  C   UNL     1       8.832  -4.725  24.571  0.00  0.00    +0.203 C 
BRANCH   9  10
ATOM     10  O   UNL     1      10.034  -5.369  24.948  0.00  0.00    -0.382 OA
ATOM     11  H   UNL     1      10.072  -6.213  24.474  0.00  0.00    +0.210 HD
ENDBRANCH   9  10
BRANCH   9  12
ATOM     12  C   UNL     1       7.728  -5.037  25.562  0.00  0.00    +0.256 C 
ATOM     13  O   UNL     1       7.889  -5.793  26.531  0.00  0.00    -0.298 OA
ENDBRANCH   9  12
ENDBRANCH   8   9
ENDBRANCH   1   8
TORSDOF 7
ENDMDL
MODEL 9
REMARK VINA RESULT:      -3.6      3.214      5.906
REMARK  Name = 
REMARK  7 active torsions:
REMARK  status: ('A' for Active; 'I' for Inactive)
REMARK    1  A    between atoms: O_1  and  C_2
REMARK    2  A    between atoms: C_2  and  C_4
REMARK    3  A    between atoms: C_2  and  C_10
REMARK    4  A    between atoms: C_4  and  O_5
REMARK    5  A    between atoms: O_5  and  P_6
REMARK    6  A    between atoms: P_6  and  O_7
REMARK    7  A    between atoms: P_6  and  O_8
REMARK                            x       y       z     vdW  Elec       q    Type
REMARK                         _______ _______ _______ _____ _____    ______ ____
ROOT
ATOM      1  O   UNL     1       9.073   0.970  23.588  0.00  0.00    -0.284 OA
ENDROOT
BRANCH   1   2
ATOM      2  P   UNL     1      10.200   2.268  23.393  0.00  0.00    +0.472 P 
ATOM      3  O   UNL     1      11.208   3.430  23.219  0.00  0.00    -0.228 OA
BRANCH   2   4
ATOM      4  O   UNL     1       8.940   3.265  23.701  0.00  0.00    -0.303 OA
ATOM      5  H   UNL     1       8.290   2.863  24.306  0.00  0.00    +0.222 HD
ENDBRANCH   2   4
BRANCH   2   6
ATOM      6  O   UNL     1       9.983   2.064  21.785  0.00  0.00    -0.303 OA
ATOM      7  H   UNL     1      10.401   2.812  21.321  0.00  0.00    +0.222 HD
ENDBRANCH   2   6
ENDBRANCH   1   2
BRANCH   1   8
ATOM      8  C   UNL     1       9.666  -0.318  23.699  0.00  0.00    +0.211 C 
BRANCH   8   9
ATOM      9  C   UNL     1       9.143  -1.230  22.580  0.00  0.00    +0.203 C 
BRANCH   9  10
ATOM     10  O   UNL     1      10.045  -1.278  21.491  0.00  0.00    -0.382 OA
ATOM     11  H   UNL     1      10.036  -0.406  21.068  0.00  0.00    +0.210 HD
ENDBRANCH   9  10
BRANCH   9  12
ATOM     12  C   UNL     1       8.940  -2.615  23.162  0.00  0.00    +0.256 C 
ATOM     13  O   UNL     1       9.785  -3.175  23.875  0.00  0.00    -0.298 OA
ENDBRANCH   9  12
ENDBRANCH   8   9
ENDBRANCH   1   8
TORSDOF 7
ENDMDL
