MODEL 1
REMARK VINA RESULT:      -6.6      0.000      0.000
REMARK  Name = 
REMARK  7 active torsions:
REMARK  status: ('A' for Active; 'I' for Inactive)
REMARK    1  A    between atoms: C_1  and  C_2
REMARK    2  A    between atoms: C_10  and  O_11
REMARK    3  A    between atoms: C_14  and  C_15
REMARK    4  A    between atoms: N_18  and  C_19
REMARK    5  A    between atoms: C_19  and  C_20
REMARK    6  A    between atoms: C_21  and  C_22
REMARK    7  A    between atoms: C_21  and  C_23
REMARK                            x       y       z     vdW  Elec       q    Type
REMARK                         _______ _______ _______ _____ _____    ______ ____
ROOT
ATOM      1  C   UNL     1       6.666  -4.286  22.237  0.00  0.00    +0.010 C 
ATOM      2  C   UNL     1       7.811  -3.490  22.860  0.00  0.00    +0.014 C 
ATOM      3  C   UNL     1       8.025  -3.395  24.423  0.00  0.00    -0.002 C 
ATOM      4  C   UNL     1       9.578  -3.476  24.472  0.00  0.00    +0.027 C 
ATOM      5  C   UNL     1      10.204  -2.455  23.458  0.00  0.00    +0.086 C 
ATOM      6  N   UNL     1       9.250  -1.540  22.807  0.00  0.00    -0.295 NA
ATOM      7  C   UNL     1       7.266  -4.513  25.140  0.00  0.00    +0.016 C 
ATOM      8  C   UNL     1       7.648  -2.045  25.128  0.00  0.00    -0.034 A 
ATOM      9  C   UNL     1       6.992  -1.031  24.405  0.00  0.00    -0.042 A 
ATOM     10  C   UNL     1       6.769   0.235  24.972  0.00  0.00    +0.007 A 
ATOM     11  C   UNL     1       7.325   0.559  26.206  0.00  0.00    +0.045 A 
ATOM     12  C   UNL     1       8.064  -0.401  26.884  0.00  0.00    +0.117 A 
ATOM     13  C   UNL     1       6.755  -1.243  22.931  0.00  0.00    +0.054 C 
ATOM     14  C   UNL     1       8.171  -1.701  26.399  0.00  0.00    +0.049 A 
ATOM     15  C   UNL     1       7.941  -2.062  22.343  0.00  0.00    +0.065 C 
ENDROOT
BRANCH  12  16
ATOM     16  O   UNL     1       8.753  -0.079  28.018  0.00  0.00    -0.507 OA
ATOM     17  H   UNL     1       8.605   0.866  28.201  0.00  0.00    +0.292 HD
ENDBRANCH  12  16
BRANCH   6  18
ATOM     18  C   UNL     1       9.821  -0.490  21.994  0.00  0.00    +0.112 C 
BRANCH  18  19
ATOM     19  C   UNL     1       9.497   0.875  22.512  0.00  0.00    -0.013 C 
ATOM     20  C   UNL     1       9.957   1.405  23.650  0.00  0.00    -0.078 C 
ATOM     21  C   UNL     1       9.517   2.758  24.123  0.00  0.00    +0.038 C 
ATOM     22  C   UNL     1      10.951   0.712  24.562  0.00  0.00    +0.038 C 
ENDBRANCH  18  19
ENDBRANCH   6  18
TORSDOF 3
ENDMDL
MODEL 2
REMARK VINA RESULT:      -6.6      2.255      3.815
REMARK  Name = 
REMARK  7 active torsions:
REMARK  status: ('A' for Active; 'I' for Inactive)
REMARK    1  A    between atoms: C_1  and  C_2
REMARK    2  A    between atoms: C_10  and  O_11
REMARK    3  A    between atoms: C_14  and  C_15
REMARK    4  A    between atoms: N_18  and  C_19
REMARK    5  A    between atoms: C_19  and  C_20
REMARK    6  A    between atoms: C_21  and  C_22
REMARK    7  A    between atoms: C_21  and  C_23
REMARK                            x       y       z     vdW  Elec       q    Type
REMARK                         _______ _______ _______ _____ _____    ______ ____
ROOT
ATOM      1  C   UNL     1       3.487  -4.541  23.385  0.00  0.00    +0.010 C 
ATOM      2  C   UNL     1       4.878  -3.924  23.261  0.00  0.00    +0.014 C 
ATOM      3  C   UNL     1       6.187  -4.803  23.139  0.00  0.00    -0.002 C 
ATOM      4  C   UNL     1       6.970  -3.948  22.101  0.00  0.00    +0.027 C 
ATOM      5  C   UNL     1       6.987  -2.442  22.544  0.00  0.00    +0.086 C 
ATOM      6  N   UNL     1       6.430  -2.167  23.880  0.00  0.00    -0.295 NA
ATOM      7  C   UNL     1       5.840  -6.231  22.716  0.00  0.00    +0.016 C 
ATOM      8  C   UNL     1       7.119  -4.899  24.398  0.00  0.00    -0.034 A 
ATOM      9  C   UNL     1       6.702  -4.354  25.628  0.00  0.00    -0.042 A 
ATOM     10  C   UNL     1       7.571  -4.304  26.730  0.00  0.00    +0.007 A 
ATOM     11  C   UNL     1       8.910  -4.656  26.584  0.00  0.00    +0.045 A 
ATOM     12  C   UNL     1       9.359  -5.099  25.347  0.00  0.00    +0.117 A 
ATOM     13  C   UNL     1       5.397  -3.601  25.670  0.00  0.00    +0.054 C 
ATOM     14  C   UNL     1       8.476  -5.287  24.287  0.00  0.00    +0.049 A 
ATOM     15  C   UNL     1       5.195  -2.866  24.312  0.00  0.00    +0.065 C 
ENDROOT
BRANCH  12  16
ATOM     16  O   UNL     1      10.690  -5.306  25.121  0.00  0.00    -0.507 OA
ATOM     17  H   UNL     1      11.100  -5.568  25.964  0.00  0.00    +0.292 HD
ENDBRANCH  12  16
BRANCH   6  18
ATOM     18  C   UNL     1       6.581  -0.816  24.372  0.00  0.00    +0.112 C 
BRANCH  18  19
ATOM     19  C   UNL     1       7.981  -0.309  24.231  0.00  0.00    -0.013 C 
ATOM     20  C   UNL     1       8.898  -0.279  25.204  0.00  0.00    -0.078 C 
ATOM     21  C   UNL     1      10.258   0.316  24.986  0.00  0.00    +0.038 C 
ATOM     22  C   UNL     1       8.670  -0.833  26.597  0.00  0.00    +0.038 C 
ENDBRANCH  18  19
ENDBRANCH   6  18
TORSDOF 3
ENDMDL
MODEL 3
REMARK VINA RESULT:      -6.5      1.659      4.809
REMARK  Name = 
REMARK  7 active torsions:
REMARK  status: ('A' for Active; 'I' for Inactive)
REMARK    1  A    between atoms: C_1  and  C_2
REMARK    2  A    between atoms: C_10  and  O_11
REMARK    3  A    between atoms: C_14  and  C_15
REMARK    4  A    between atoms: N_18  and  C_19
REMARK    5  A    between atoms: C_19  and  C_20
REMARK    6  A    between atoms: C_21  and  C_22
REMARK    7  A    between atoms: C_21  and  C_23
REMARK                            x       y       z     vdW  Elec       q    Type
REMARK                         _______ _______ _______ _____ _____    ______ ____
ROOT
ATOM      1  C   UNL     1      11.093   3.364  23.360  0.00  0.00    +0.010 C 
ATOM      2  C   UNL     1      10.194   2.219  22.900  0.00  0.00    +0.014 C 
ATOM      3  C   UNL     1       8.627   2.235  23.110  0.00  0.00    -0.002 C 
ATOM      4  C   UNL     1       8.184   1.601  21.759  0.00  0.00    +0.027 C 
ATOM      5  C   UNL     1       8.998   0.288  21.486  0.00  0.00    +0.086 C 
ATOM      6  N   UNL     1       9.864  -0.163  22.589  0.00  0.00    -0.295 NA
ATOM      7  C   UNL     1       8.134   3.657  23.384  0.00  0.00    +0.016 C 
ATOM      8  C   UNL     1       8.032   1.308  24.228  0.00  0.00    -0.034 A 
ATOM      9  C   UNL     1       8.893   0.624  25.108  0.00  0.00    -0.042 A 
ATOM     10  C   UNL     1       8.393  -0.316  26.025  0.00  0.00    +0.007 A 
ATOM     11  C   UNL     1       7.056  -0.699  25.977  0.00  0.00    +0.045 A 
ATOM     12  C   UNL     1       6.217  -0.106  25.043  0.00  0.00    +0.117 A 
ATOM     13  C   UNL     1      10.379   0.733  24.883  0.00  0.00    +0.054 C 
ATOM     14  C   UNL     1       6.668   0.927  24.227  0.00  0.00    +0.049 A 
ATOM     15  C   UNL     1      10.650   0.836  23.353  0.00  0.00    +0.065 C 
ENDROOT
BRANCH  12  16
ATOM     16  O   UNL     1       4.943  -0.562  24.860  0.00  0.00    -0.507 OA
ATOM     17  H   UNL     1       4.996  -1.458  24.483  0.00  0.00    +0.292 HD
ENDBRANCH  12  16
BRANCH   6  18
ATOM     18  C   UNL     1      10.498  -1.452  22.421  0.00  0.00    +0.112 C 
BRANCH  18  19
ATOM     19  C   UNL     1      10.190  -2.391  23.543  0.00  0.00    -0.013 C 
ATOM     20  C   UNL     1       9.024  -3.017  23.735  0.00  0.00    -0.078 C 
ATOM     21  C   UNL     1       8.785  -3.887  24.933  0.00  0.00    +0.038 C 
ATOM     22  C   UNL     1       7.846  -2.918  22.785  0.00  0.00    +0.038 C 
ENDBRANCH  18  19
ENDBRANCH   6  18
TORSDOF 3
ENDMDL
MODEL 4
REMARK VINA RESULT:      -6.3      2.012      5.082
REMARK  Name = 
REMARK  7 active torsions:
REMARK  status: ('A' for Active; 'I' for Inactive)
REMARK    1  A    between atoms: C_1  and  C_2
REMARK    2  A    between atoms: C_10  and  O_11
REMARK    3  A    between atoms: C_14  and  C_15
REMARK    4  A    between atoms: N_18  and  C_19
REMARK    5  A    between atoms: C_19  and  C_20
REMARK    6  A    between atoms: C_21  and  C_22
REMARK    7  A    between atoms: C_21  and  C_23
REMARK                            x       y       z     vdW  Elec       q    Type
REMARK                         _______ _______ _______ _____ _____    ______ ____
ROOT
ATOM      1  C   UNL     1       9.028   0.773  24.511  0.00  0.00    +0.010 C 
ATOM      2  C   UNL     1       7.992  -0.341  24.647  0.00  0.00    +0.014 C 
ATOM      3  C   UNL     1       7.894  -1.254  25.934  0.00  0.00    -0.002 C 
ATOM      4  C   UNL     1       6.346  -1.368  26.046  0.00  0.00    +0.027 C 
ATOM      5  C   UNL     1       5.732  -1.772  24.659  0.00  0.00    +0.086 C 
ATOM      6  N   UNL     1       6.706  -2.115  23.609  0.00  0.00    -0.295 NA
ATOM      7  C   UNL     1       8.613  -0.601  27.115  0.00  0.00    +0.016 C 
ATOM      8  C   UNL     1       8.420  -2.728  25.821  0.00  0.00    -0.034 A 
ATOM      9  C   UNL     1       9.100  -3.148  24.662  0.00  0.00    -0.042 A 
ATOM     10  C   UNL     1       9.458  -4.495  24.479  0.00  0.00    +0.007 A 
ATOM     11  C   UNL     1       9.013  -5.465  25.372  0.00  0.00    +0.045 A 
ATOM     12  C   UNL     1       8.252  -5.077  26.466  0.00  0.00    +0.117 A 
ATOM     13  C   UNL     1       9.219  -2.180  23.513  0.00  0.00    +0.054 C 
ATOM     14  C   UNL     1       8.013  -3.732  26.734  0.00  0.00    +0.049 A 
ATOM     15  C   UNL     1       7.936  -1.299  23.462  0.00  0.00    +0.065 C 
ENDROOT
BRANCH  12  16
ATOM     16  O   UNL     1       7.668  -6.008  27.277  0.00  0.00    -0.507 OA
ATOM     17  H   UNL     1       6.755  -5.721  27.456  0.00  0.00    +0.292 HD
ENDBRANCH  12  16
BRANCH   6  18
ATOM     18  C   UNL     1       6.162  -2.642  22.378  0.00  0.00    +0.112 C 
BRANCH  18  19
ATOM     19  C   UNL     1       6.763  -3.960  22.005  0.00  0.00    -0.013 C 
ATOM     20  C   UNL     1       6.481  -5.133  22.582  0.00  0.00    -0.078 C 
ATOM     21  C   UNL     1       7.189  -6.395  22.187  0.00  0.00    +0.038 C 
ATOM     22  C   UNL     1       5.438  -5.312  23.669  0.00  0.00    +0.038 C 
ENDBRANCH  18  19
ENDBRANCH   6  18
TORSDOF 3
ENDMDL
MODEL 5
REMARK VINA RESULT:      -6.1      1.606      2.177
REMARK  Name = 
REMARK  7 active torsions:
REMARK  status: ('A' for Active; 'I' for Inactive)
REMARK    1  A    between atoms: C_1  and  C_2
REMARK    2  A    between atoms: C_10  and  O_11
REMARK    3  A    between atoms: C_14  and  C_15
REMARK    4  A    between atoms: N_18  and  C_19
REMARK    5  A    between atoms: C_19  and  C_20
REMARK    6  A    between atoms: C_21  and  C_22
REMARK    7  A    between atoms: C_21  and  C_23
REMARK                            x       y       z     vdW  Elec       q    Type
REMARK                         _______ _______ _______ _____ _____    ______ ____
ROOT
ATOM      1  C   UNL     1       6.798  -5.530  21.728  0.00  0.00    +0.010 C 
ATOM      2  C   UNL     1       7.421  -4.897  22.970  0.00  0.00    +0.014 C 
ATOM      3  C   UNL     1       6.611  -4.689  24.312  0.00  0.00    -0.002 C 
ATOM      4  C   UNL     1       7.725  -5.043  25.338  0.00  0.00    +0.027 C 
ATOM      5  C   UNL     1       9.041  -4.255  25.000  0.00  0.00    +0.086 C 
ATOM      6  N   UNL     1       8.922  -3.252  23.928  0.00  0.00    -0.295 NA
ATOM      7  C   UNL     1       5.365  -5.576  24.333  0.00  0.00    +0.016 C 
ATOM      8  C   UNL     1       6.155  -3.230  24.668  0.00  0.00    -0.034 A 
ATOM      9  C   UNL     1       6.325  -2.190  23.734  0.00  0.00    -0.042 A 
ATOM     10  C   UNL     1       6.054  -0.855  24.079  0.00  0.00    +0.007 A 
ATOM     11  C   UNL     1       5.755  -0.518  25.395  0.00  0.00    +0.045 A 
ATOM     12  C   UNL     1       5.685  -1.525  26.350  0.00  0.00    +0.117 A 
ATOM     13  C   UNL     1       7.037  -2.500  22.442  0.00  0.00    +0.054 C 
ATOM     14  C   UNL     1       5.811  -2.864  25.992  0.00  0.00    +0.049 A 
ATOM     15  C   UNL     1       8.131  -3.572  22.715  0.00  0.00    +0.065 C 
ENDROOT
BRANCH  12  16
ATOM     16  O   UNL     1       5.549  -1.222  27.674  0.00  0.00    -0.507 OA
ATOM     17  H   UNL     1       6.440  -1.170  28.064  0.00  0.00    +0.292 HD
ENDBRANCH  12  16
BRANCH   6  18
ATOM     18  C   UNL     1      10.075  -2.407  23.711  0.00  0.00    +0.112 C 
BRANCH  18  19
ATOM     19  C   UNL     1       9.896  -1.037  24.284  0.00  0.00    -0.013 C 
ATOM     20  C   UNL     1       9.761   0.090  23.577  0.00  0.00    -0.078 C 
ATOM     21  C   UNL     1       9.660   1.430  24.244  0.00  0.00    +0.038 C 
ATOM     22  C   UNL     1       9.696   0.134  22.063  0.00  0.00    +0.038 C 
ENDBRANCH  18  19
ENDBRANCH   6  18
TORSDOF 3
ENDMDL
MODEL 6
REMARK VINA RESULT:      -6.0      3.314      5.598
REMARK  Name = 
REMARK  7 active torsions:
REMARK  status: ('A' for Active; 'I' for Inactive)
REMARK    1  A    between atoms: C_1  and  C_2
REMARK    2  A    between atoms: C_10  and  O_11
REMARK    3  A    between atoms: C_14  and  C_15
REMARK    4  A    between atoms: N_18  and  C_19
REMARK    5  A    between atoms: C_19  and  C_20
REMARK    6  A    between atoms: C_21  and  C_22
REMARK    7  A    between atoms: C_21  and  C_23
REMARK                            x       y       z     vdW  Elec       q    Type
REMARK                         _______ _______ _______ _____ _____    ______ ____
ROOT
ATOM      1  C   UNL     1       8.166  -0.291  25.129  0.00  0.00    +0.010 C 
ATOM      2  C   UNL     1       8.425   0.630  23.939  0.00  0.00    +0.014 C 
ATOM      3  C   UNL     1       9.847   1.255  23.645  0.00  0.00    -0.002 C 
ATOM      4  C   UNL     1       9.858   1.141  22.093  0.00  0.00    +0.027 C 
ATOM      5  C   UNL     1       8.527   1.723  21.499  0.00  0.00    +0.086 C 
ATOM      6  N   UNL     1       7.637   2.387  22.466  0.00  0.00    -0.295 NA
ATOM      7  C   UNL     1      10.939   0.484  24.388  0.00  0.00    +0.016 C 
ATOM      8  C   UNL     1      10.051   2.779  23.959  0.00  0.00    -0.034 A 
ATOM      9  C   UNL     1       9.046   3.501  24.631  0.00  0.00    -0.042 A 
ATOM     10  C   UNL     1       9.144   4.892  24.801  0.00  0.00    +0.007 A 
ATOM     11  C   UNL     1      10.164   5.604  24.177  0.00  0.00    +0.045 A 
ATOM     12  C   UNL     1      11.105   4.914  23.424  0.00  0.00    +0.117 A 
ATOM     13  C   UNL     1       7.750   2.798  24.946  0.00  0.00    +0.054 C 
ATOM     14  C   UNL     1      11.099   3.524  23.367  0.00  0.00    +0.049 A 
ATOM     15  C   UNL     1       7.438   1.784  23.807  0.00  0.00    +0.065 C 
ENDROOT
BRANCH  12  16
ATOM     16  O   UNL     1      12.026   5.587  22.672  0.00  0.00    -0.507 OA
ATOM     17  H   UNL     1      12.786   5.794  23.244  0.00  0.00    +0.292 HD
ENDBRANCH  12  16
BRANCH   6  18
ATOM     18  C   UNL     1       6.486   3.068  21.917  0.00  0.00    +0.112 C 
BRANCH  18  19
ATOM     19  C   UNL     1       5.928   4.094  22.850  0.00  0.00    -0.013 C 
ATOM     20  C   UNL     1       6.252   5.392  22.862  0.00  0.00    -0.078 C 
ATOM     21  C   UNL     1       5.691   6.333  23.887  0.00  0.00    +0.038 C 
ATOM     22  C   UNL     1       7.195   6.037  21.865  0.00  0.00    +0.038 C 
ENDBRANCH  18  19
ENDBRANCH   6  18
TORSDOF 3
ENDMDL
MODEL 7
REMARK VINA RESULT:      -6.0      3.194      5.430
REMARK  Name = 
REMARK  7 active torsions:
REMARK  status: ('A' for Active; 'I' for Inactive)
REMARK    1  A    between atoms: C_1  and  C_2
REMARK    2  A    between atoms: C_10  and  O_11
REMARK    3  A    between atoms: C_14  and  C_15
REMARK    4  A    between atoms: N_18  and  C_19
REMARK    5  A    between atoms: C_19  and  C_20
REMARK    6  A    between atoms: C_21  and  C_22
REMARK    7  A    between atoms: C_21  and  C_23
REMARK                            x       y       z     vdW  Elec       q    Type
REMARK                         _______ _______ _______ _____ _____    ______ ____
ROOT
ATOM      1  C   UNL     1       5.815  -5.056  28.188  0.00  0.00    +0.010 C 
ATOM      2  C   UNL     1       5.373  -4.481  26.844  0.00  0.00    +0.014 C 
ATOM      3  C   UNL     1       4.830  -5.390  25.670  0.00  0.00    -0.002 C 
ATOM      4  C   UNL     1       3.694  -4.468  25.140  0.00  0.00    +0.027 C 
ATOM      5  C   UNL     1       4.240  -3.014  24.915  0.00  0.00    +0.086 C 
ATOM      6  N   UNL     1       5.695  -2.849  25.080  0.00  0.00    -0.295 NA
ATOM      7  C   UNL     1       4.398  -6.757  26.203  0.00  0.00    +0.016 C 
ATOM      8  C   UNL     1       5.779  -5.642  24.446  0.00  0.00    -0.034 A 
ATOM      9  C   UNL     1       7.116  -5.203  24.488  0.00  0.00    -0.042 A 
ATOM     10  C   UNL     1       7.944  -5.292  23.356  0.00  0.00    +0.007 A 
ATOM     11  C   UNL     1       7.413  -5.677  22.128  0.00  0.00    +0.045 A 
ATOM     12  C   UNL     1       6.068  -6.013  22.051  0.00  0.00    +0.117 A 
ATOM     13  C   UNL     1       7.571  -4.411  25.687  0.00  0.00    +0.054 C 
ATOM     14  C   UNL     1       5.274  -6.066  23.193  0.00  0.00    +0.049 A 
ATOM     15  C   UNL     1       6.384  -3.542  26.196  0.00  0.00    +0.065 C 
ENDROOT
BRANCH  12  16
ATOM     16  O   UNL     1       5.475  -6.245  20.843  0.00  0.00    -0.507 OA
ATOM     17  H   UNL     1       5.004  -7.095  20.897  0.00  0.00    +0.292 HD
ENDBRANCH  12  16
BRANCH   6  18
ATOM     18  C   UNL     1       6.239  -1.558  24.722  0.00  0.00    +0.112 C 
BRANCH  18  19
ATOM     19  C   UNL     1       6.994  -1.594  23.432  0.00  0.00    -0.013 C 
ATOM     20  C   UNL     1       8.324  -1.538  23.308  0.00  0.00    -0.078 C 
ATOM     21  C   UNL     1       8.989  -1.507  21.964  0.00  0.00    +0.038 C 
ATOM     22  C   UNL     1       9.281  -1.504  24.484  0.00  0.00    +0.038 C 
ENDBRANCH  18  19
ENDBRANCH   6  18
TORSDOF 3
ENDMDL
MODEL 8
REMARK VINA RESULT:      -6.0      3.314      6.398
REMARK  Name = 
REMARK  7 active torsions:
REMARK  status: ('A' for Active; 'I' for Inactive)
REMARK    1  A    between atoms: C_1  and  C_2
REMARK    2  A    between atoms: C_10  and  O_11
REMARK    3  A    between atoms: C_14  and  C_15
REMARK    4  A    between atoms: N_18  and  C_19
REMARK    5  A    between atoms: C_19  and  C_20
REMARK    6  A    between atoms: C_21  and  C_22
REMARK    7  A    between atoms: C_21  and  C_23
REMARK                            x       y       z     vdW  Elec       q    Type
REMARK                         _______ _______ _______ _____ _____    ______ ____
ROOT
ATOM      1  C   UNL     1       8.689  -1.117  26.180  0.00  0.00    +0.010 C 
ATOM      2  C   UNL     1       8.451  -2.623  26.116  0.00  0.00    +0.014 C 
ATOM      3  C   UNL     1       8.674  -3.461  24.793  0.00  0.00    -0.002 C 
ATOM      4  C   UNL     1       9.302  -4.745  25.410  0.00  0.00    +0.027 C 
ATOM      5  C   UNL     1       8.426  -5.253  26.609  0.00  0.00    +0.086 C 
ATOM      6  N   UNL     1       7.148  -4.548  26.804  0.00  0.00    -0.295 NA
ATOM      7  C   UNL     1       9.548  -2.687  23.806  0.00  0.00    +0.016 C 
ATOM      8  C   UNL     1       7.401  -3.945  24.015  0.00  0.00    -0.034 A 
ATOM      9  C   UNL     1       6.124  -3.497  24.405  0.00  0.00    -0.042 A 
ATOM     10  C   UNL     1       4.961  -4.021  23.814  0.00  0.00    +0.007 A 
ATOM     11  C   UNL     1       5.044  -5.101  22.940  0.00  0.00    +0.045 A 
ATOM     12  C   UNL     1       6.294  -5.620  22.627  0.00  0.00    +0.117 A 
ATOM     13  C   UNL     1       6.014  -2.632  25.633  0.00  0.00    +0.054 C 
ATOM     14  C   UNL     1       7.459  -5.019  23.093  0.00  0.00    +0.049 A 
ATOM     15  C   UNL     1       7.099  -3.073  26.658  0.00  0.00    +0.065 C 
ENDROOT
BRANCH  12  16
ATOM     16  O   UNL     1       6.409  -6.770  21.899  0.00  0.00    -0.507 OA
ATOM     17  H   UNL     1       5.516  -7.043  21.625  0.00  0.00    +0.292 HD
ENDBRANCH  12  16
BRANCH   6  18
ATOM     18  C   UNL     1       6.256  -5.102  27.798  0.00  0.00    +0.112 C 
BRANCH  18  19
ATOM     19  C   UNL     1       5.227  -6.009  27.202  0.00  0.00    -0.013 C 
ATOM     20  C   UNL     1       3.935  -5.709  27.025  0.00  0.00    -0.078 C 
ATOM     21  C   UNL     1       2.962  -6.713  26.483  0.00  0.00    +0.038 C 
ATOM     22  C   UNL     1       3.331  -4.354  27.341  0.00  0.00    +0.038 C 
ENDBRANCH  18  19
ENDBRANCH   6  18
TORSDOF 3
ENDMDL
MODEL 9
REMARK VINA RESULT:      -5.9      2.231      3.923
REMARK  Name = 
REMARK  7 active torsions:
REMARK  status: ('A' for Active; 'I' for Inactive)
REMARK    1  A    between atoms: C_1  and  C_2
REMARK    2  A    between atoms: C_10  and  O_11
REMARK    3  A    between atoms: C_14  and  C_15
REMARK    4  A    between atoms: N_18  and  C_19
REMARK    5  A    between atoms: C_19  and  C_20
REMARK    6  A    between atoms: C_21  and  C_22
REMARK    7  A    between atoms: C_21  and  C_23
REMARK                            x       y       z     vdW  Elec       q    Type
REMARK                         _______ _______ _______ _____ _____    ______ ____
ROOT
ATOM      1  C   UNL     1       7.244  -5.173  26.325  0.00  0.00    +0.010 C 
ATOM      2  C   UNL     1       6.844  -3.983  25.456  0.00  0.00    +0.014 C 
ATOM      3  C   UNL     1       7.316  -3.833  23.955  0.00  0.00    -0.002 C 
ATOM      4  C   UNL     1       6.010  -3.260  23.334  0.00  0.00    +0.027 C 
ATOM      5  C   UNL     1       5.487  -2.054  24.193  0.00  0.00    +0.086 C 
ATOM      6  N   UNL     1       6.383  -1.610  25.275  0.00  0.00    -0.295 NA
ATOM      7  C   UNL     1       7.795  -5.177  23.403  0.00  0.00    +0.016 C 
ATOM      8  C   UNL     1       8.432  -2.775  23.646  0.00  0.00    -0.034 A 
ATOM      9  C   UNL     1       9.090  -2.115  24.701  0.00  0.00    -0.042 A 
ATOM     10  C   UNL     1       9.992  -1.066  24.451  0.00  0.00    +0.007 A 
ATOM     11  C   UNL     1      10.138  -0.561  23.162  0.00  0.00    +0.045 A 
ATOM     12  C   UNL     1       9.415  -1.136  22.126  0.00  0.00    +0.117 A 
ATOM     13  C   UNL     1       8.627  -2.382  26.110  0.00  0.00    +0.054 C 
ATOM     14  C   UNL     1       8.629  -2.265  22.339  0.00  0.00    +0.049 A 
ATOM     15  C   UNL     1       7.089  -2.623  26.098  0.00  0.00    +0.065 C 
ENDROOT
BRANCH  12  16
ATOM     16  O   UNL     1       9.410  -0.574  20.882  0.00  0.00    -0.507 OA
ATOM     17  H   UNL     1       8.644   0.023  20.824  0.00  0.00    +0.292 HD
ENDBRANCH  12  16
BRANCH   6  18
ATOM     18  C   UNL     1       5.997  -0.404  25.973  0.00  0.00    +0.112 C 
BRANCH  18  19
ATOM     19  C   UNL     1       7.050   0.656  25.909  0.00  0.00    -0.013 C 
ATOM     20  C   UNL     1       7.364   1.375  24.826  0.00  0.00    -0.078 C 
ATOM     21  C   UNL     1       8.488   2.369  24.841  0.00  0.00    +0.038 C 
ATOM     22  C   UNL     1       6.636   1.268  23.501  0.00  0.00    +0.038 C 
ENDBRANCH  18  19
ENDBRANCH   6  18
TORSDOF 3
ENDMDL
