MODEL 1
REMARK VINA RESULT:      -8.2      0.000      0.000
REMARK  Name = 
REMARK  12 active torsions:
REMARK  status: ('A' for Active; 'I' for Inactive)
REMARK    1  A    between atoms: C_3  and  C_4
REMARK    2  A    between atoms: C_5  and  C_40
REMARK    3  A    between atoms: C_6  and  C_7
REMARK    4  A    between atoms: C_9  and  N_13
REMARK    5  A    between atoms: C_16  and  C_17
REMARK    6  A    between atoms: C_17  and  O_19
REMARK    7  A    between atoms: O_19  and  C_20
REMARK    8  A    between atoms: C_20  and  C_21
REMARK    9  A    between atoms: N_27  and  C_30
REMARK   10  A    between atoms: C_38  and  C_39
REMARK   11  A    between atoms: C_40  and  O_42
REMARK   12  A    between atoms: O_42  and  C_43
REMARK                            x       y       z     vdW  Elec       q    Type
REMARK                         _______ _______ _______ _____ _____    ______ ____
ROOT
ATOM      1  H   UNL     1       1.362  -6.041  25.663  0.00  0.00    +0.152 HD
ATOM      2  N   UNL     1       2.381  -6.037  25.659  0.00  0.00    -0.321 N 
ATOM      3  C   UNL     1       2.995  -5.788  24.446  0.00  0.00    +0.016 C 
ATOM      4  C   UNL     1       2.009  -5.527  23.331  0.00  0.00    +0.061 C 
ATOM      5  C   UNL     1       4.348  -5.828  24.359  0.00  0.00    +0.065 C 
ATOM      6  C   UNL     1       5.213  -6.120  25.614  0.00  0.00    +0.096 C 
ATOM      7  C   UNL     1       4.375  -6.430  26.875  0.00  0.00    +0.065 C 
ATOM      8  C   UNL     1       3.022  -6.387  26.831  0.00  0.00    +0.016 C 
ATOM      9  C   UNL     1       2.088  -6.727  27.969  0.00  0.00    +0.061 C 
ENDROOT
BRANCH   6  10
ATOM     10  C   UNL     1       6.240  -4.999  25.853  0.00  0.00    -0.029 A 
ATOM     11  C   UNL     1       5.910  -3.840  26.577  0.00  0.00    +0.005 A 
ATOM     12  C   UNL     1       6.847  -2.818  26.770  0.00  0.00    +0.007 A 
ATOM     13  C   UNL     1       8.134  -2.929  26.238  0.00  0.00    +0.084 A 
ATOM     14  C   UNL     1       8.477  -4.076  25.512  0.00  0.00    +0.273 A 
ATOM     15  C   UNL     1       7.541  -5.106  25.321  0.00  0.00    +0.088 A 
BRANCH  14  16
ATOM     16  N   UNL     1       9.826  -4.199  24.938  0.00  0.00    +0.080 N 
ATOM     17  O   UNL     1      10.203  -3.316  24.155  0.00  0.00    +0.041 OA
ATOM     18  O   UNL     1      10.501  -5.182  25.272  0.00  0.00    -0.576 OA
ENDBRANCH  14  16
ENDBRANCH   6  10
BRANCH   5  19
ATOM     19  C   UNL     1       5.012  -5.581  23.051  0.00  0.00    +0.338 C 
ATOM     20  O   UNL     1       5.743  -6.381  22.488  0.00  0.00    -0.245 OA
BRANCH  19  21
ATOM     21  O   UNL     1       4.746  -4.331  22.591  0.00  0.00    -0.459 OA
BRANCH  21  22
ATOM     22  C   UNL     1       5.300  -3.257  23.383  0.00  0.00    +0.266 C 
BRANCH  22  23
ATOM     23  C   UNL     1       6.070  -2.264  22.511  0.00  0.00    +0.185 C 
ATOM     24  O   UNL     1       6.182  -0.986  23.145  0.00  0.00    -0.340 OA
ATOM     25  C   UNL     1       7.507  -0.497  22.854  0.00  0.00    +0.174 C 
ATOM     26  C   UNL     1       8.204  -0.246  24.195  0.00  0.00    +0.084 C 
ATOM     27  C   UNL     1       9.550   0.454  24.026  0.00  0.00    +0.110 C 
ATOM     28  N   UNL     1       9.361   1.662  23.218  0.00  0.00    -0.330 N 
ATOM     29  C   UNL     1       8.821   1.396  21.877  0.00  0.00    +0.110 C 
ATOM     30  C   UNL     1       7.431   0.785  22.026  0.00  0.00    +0.084 C 
ATOM     31  O   UNL     1       8.217  -1.488  22.092  0.00  0.00    -0.346 OA
ATOM     32  C   UNL     1       7.496  -2.702  22.276  0.00  0.00    +0.198 C 
BRANCH  28  33
ATOM     33  C   UNL     1       9.901   2.892  23.555  0.00  0.00    +0.030 A 
ATOM     34  C   UNL     1       9.163   3.896  24.203  0.00  0.00    +0.024 A 
ATOM     35  C   UNL     1       9.712   5.151  24.510  0.00  0.00    +0.022 A 
ATOM     36  C   UNL     1      11.030   5.430  24.176  0.00  0.00    +0.041 A 
ATOM     37 CL   UNL     1      11.714   6.961  24.554  0.00  0.00    -0.084 Cl
ATOM     38  C   UNL     1      11.794   4.468  23.530  0.00  0.00    +0.022 A 
ATOM     39  C   UNL     1      11.228   3.224  23.221  0.00  0.00    +0.024 A 
ENDBRANCH  28  33
ENDBRANCH  22  23
ENDBRANCH  21  22
ENDBRANCH  19  21
ENDBRANCH   5  19
BRANCH   7  40
ATOM     40  C   UNL     1       5.022  -6.784  28.168  0.00  0.00    +0.337 C 
ATOM     41  O   UNL     1       5.624  -7.831  28.364  0.00  0.00    -0.245 OA
BRANCH  40  42
ATOM     42  O   UNL     1       4.894  -5.804  29.096  0.00  0.00    -0.465 OA
ATOM     43  C   UNL     1       4.749  -6.292  30.440  0.00  0.00    +0.280 C 
ENDBRANCH  40  42
ENDBRANCH   7  40
TORSDOF 9
ENDMDL
MODEL 2
REMARK VINA RESULT:      -8.0      4.022      9.581
REMARK  Name = 
REMARK  12 active torsions:
REMARK  status: ('A' for Active; 'I' for Inactive)
REMARK    1  A    between atoms: C_3  and  C_4
REMARK    2  A    between atoms: C_5  and  C_40
REMARK    3  A    between atoms: C_6  and  C_7
REMARK    4  A    between atoms: C_9  and  N_13
REMARK    5  A    between atoms: C_16  and  C_17
REMARK    6  A    between atoms: C_17  and  O_19
REMARK    7  A    between atoms: O_19  and  C_20
REMARK    8  A    between atoms: C_20  and  C_21
REMARK    9  A    between atoms: N_27  and  C_30
REMARK   10  A    between atoms: C_38  and  C_39
REMARK   11  A    between atoms: C_40  and  O_42
REMARK   12  A    between atoms: O_42  and  C_43
REMARK                            x       y       z     vdW  Elec       q    Type
REMARK                         _______ _______ _______ _____ _____    ______ ____
ROOT
ATOM      1  H   UNL     1       9.919   5.649  23.039  0.00  0.00    +0.152 HD
ATOM      2  N   UNL     1       9.262   4.924  23.322  0.00  0.00    -0.321 N 
ATOM      3  C   UNL     1       9.787   3.665  23.548  0.00  0.00    +0.016 C 
ATOM      4  C   UNL     1      11.286   3.613  23.360  0.00  0.00    +0.061 C 
ATOM      5  C   UNL     1       8.960   2.640  23.868  0.00  0.00    +0.065 C 
ATOM      6  C   UNL     1       7.432   2.874  24.014  0.00  0.00    +0.096 C 
ATOM      7  C   UNL     1       6.999   4.318  23.676  0.00  0.00    +0.065 C 
ATOM      8  C   UNL     1       7.921   5.252  23.338  0.00  0.00    +0.016 C 
ATOM      9  C   UNL     1       7.627   6.676  22.927  0.00  0.00    +0.061 C 
ENDROOT
BRANCH   6  10
ATOM     10  C   UNL     1       6.930   2.419  25.397  0.00  0.00    -0.029 A 
ATOM     11  C   UNL     1       7.264   3.122  26.568  0.00  0.00    +0.005 A 
ATOM     12  C   UNL     1       6.819   2.687  27.822  0.00  0.00    +0.007 A 
ATOM     13  C   UNL     1       6.035   1.536  27.933  0.00  0.00    +0.084 A 
ATOM     14  C   UNL     1       5.696   0.824  26.776  0.00  0.00    +0.273 A 
ATOM     15  C   UNL     1       6.137   1.260  25.516  0.00  0.00    +0.088 A 
BRANCH  14  16
ATOM     16  N   UNL     1       4.880  -0.395  26.883  0.00  0.00    +0.080 N 
ATOM     17  O   UNL     1       5.118  -1.169  27.821  0.00  0.00    +0.041 OA
ATOM     18  O   UNL     1       4.006  -0.574  26.023  0.00  0.00    -0.576 OA
ENDBRANCH  14  16
ENDBRANCH   6  10
BRANCH   5  19
ATOM     19  C   UNL     1       9.518   1.280  24.092  0.00  0.00    +0.338 C 
ATOM     20  O   UNL     1       9.941   0.877  25.165  0.00  0.00    -0.245 OA
BRANCH  19  21
ATOM     21  O   UNL     1       9.550   0.564  22.939  0.00  0.00    -0.459 OA
BRANCH  21  22
ATOM     22  C   UNL     1      10.568  -0.458  22.881  0.00  0.00    +0.266 C 
BRANCH  22  23
ATOM     23  C   UNL     1       9.949  -1.855  22.800  0.00  0.00    +0.185 C 
ATOM     24  O   UNL     1       9.442  -2.279  24.069  0.00  0.00    -0.340 OA
ATOM     25  C   UNL     1       8.208  -2.977  23.805  0.00  0.00    +0.174 C 
ATOM     26  C   UNL     1       7.103  -2.260  24.588  0.00  0.00    +0.084 C 
ATOM     27  C   UNL     1       5.778  -3.015  24.544  0.00  0.00    +0.110 C 
ATOM     28  N   UNL     1       6.004  -4.401  24.968  0.00  0.00    -0.330 N 
ATOM     29  C   UNL     1       6.963  -5.126  24.123  0.00  0.00    +0.110 C 
ATOM     30  C   UNL     1       8.322  -4.440  24.233  0.00  0.00    +0.084 C 
ATOM     31  O   UNL     1       7.936  -2.937  22.394  0.00  0.00    -0.346 OA
ATOM     32  C   UNL     1       8.755  -1.894  21.876  0.00  0.00    +0.198 C 
BRANCH  28  33
ATOM     33  C   UNL     1       5.193  -5.057  25.879  0.00  0.00    +0.030 A 
ATOM     34  C   UNL     1       3.851  -4.706  26.096  0.00  0.00    +0.024 A 
ATOM     35  C   UNL     1       3.049  -5.358  27.046  0.00  0.00    +0.022 A 
ATOM     36  C   UNL     1       3.579  -6.391  27.806  0.00  0.00    +0.041 A 
ATOM     37 CL   UNL     1       2.604  -7.201  28.967  0.00  0.00    -0.084 Cl
ATOM     38  C   UNL     1       4.903  -6.767  27.628  0.00  0.00    +0.022 A 
ATOM     39  C   UNL     1       5.693  -6.100  26.682  0.00  0.00    +0.024 A 
ENDBRANCH  28  33
ENDBRANCH  22  23
ENDBRANCH  21  22
ENDBRANCH  19  21
ENDBRANCH   5  19
BRANCH   7  40
ATOM     40  C   UNL     1       5.568   4.728  23.708  0.00  0.00    +0.337 C 
ATOM     41  O   UNL     1       5.062   5.359  24.626  0.00  0.00    -0.245 OA
BRANCH  40  42
ATOM     42  O   UNL     1       4.897   4.349  22.593  0.00  0.00    -0.465 OA
ATOM     43  C   UNL     1       3.883   3.360  22.836  0.00  0.00    +0.280 C 
ENDBRANCH  40  42
ENDBRANCH   7  40
TORSDOF 9
ENDMDL
MODEL 3
REMARK VINA RESULT:      -8.0      2.570      4.402
REMARK  Name = 
REMARK  12 active torsions:
REMARK  status: ('A' for Active; 'I' for Inactive)
REMARK    1  A    between atoms: C_3  and  C_4
REMARK    2  A    between atoms: C_5  and  C_40
REMARK    3  A    between atoms: C_6  and  C_7
REMARK    4  A    between atoms: C_9  and  N_13
REMARK    5  A    between atoms: C_16  and  C_17
REMARK    6  A    between atoms: C_17  and  O_19
REMARK    7  A    between atoms: O_19  and  C_20
REMARK    8  A    between atoms: C_20  and  C_21
REMARK    9  A    between atoms: N_27  and  C_30
REMARK   10  A    between atoms: C_38  and  C_39
REMARK   11  A    between atoms: C_40  and  O_42
REMARK   12  A    between atoms: O_42  and  C_43
REMARK                            x       y       z     vdW  Elec       q    Type
REMARK                         _______ _______ _______ _____ _____    ______ ____
ROOT
ATOM      1  H   UNL     1       2.443  -5.513  25.327  0.00  0.00    +0.152 HD
ATOM      2  N   UNL     1       3.225  -4.923  25.048  0.00  0.00    -0.321 N 
ATOM      3  C   UNL     1       3.591  -3.922  25.928  0.00  0.00    +0.016 C 
ATOM      4  C   UNL     1       2.760  -3.917  27.190  0.00  0.00    +0.061 C 
ATOM      5  C   UNL     1       4.584  -3.062  25.591  0.00  0.00    +0.065 C 
ATOM      6  C   UNL     1       5.333  -3.211  24.239  0.00  0.00    +0.096 C 
ATOM      7  C   UNL     1       4.769  -4.341  23.349  0.00  0.00    +0.065 C 
ATOM      8  C   UNL     1       3.749  -5.118  23.786  0.00  0.00    +0.016 C 
ATOM      9  C   UNL     1       3.067  -6.210  22.994  0.00  0.00    +0.061 C 
ENDROOT
BRANCH   6  10
ATOM     10  C   UNL     1       6.852  -3.339  24.458  0.00  0.00    -0.029 A 
ATOM     11  C   UNL     1       7.397  -4.362  25.253  0.00  0.00    +0.005 A 
ATOM     12  C   UNL     1       8.779  -4.456  25.461  0.00  0.00    +0.007 A 
ATOM     13  C   UNL     1       9.645  -3.524  24.884  0.00  0.00    +0.084 A 
ATOM     14  C   UNL     1       9.117  -2.498  24.091  0.00  0.00    +0.273 A 
ATOM     15  C   UNL     1       7.731  -2.404  23.876  0.00  0.00    +0.088 A 
BRANCH  14  16
ATOM     16  N   UNL     1      10.019  -1.506  23.486  0.00  0.00    +0.080 N 
ATOM     17  O   UNL     1       9.981  -0.348  23.925  0.00  0.00    +0.041 OA
ATOM     18  O   UNL     1      10.759  -1.891  22.571  0.00  0.00    -0.576 OA
ENDBRANCH  14  16
ENDBRANCH   6  10
BRANCH   5  19
ATOM     19  C   UNL     1       4.967  -1.972  26.526  0.00  0.00    +0.338 C 
ATOM     20  O   UNL     1       5.732  -2.110  27.468  0.00  0.00    -0.245 OA
BRANCH  19  21
ATOM     21  O   UNL     1       4.316  -0.817  26.231  0.00  0.00    -0.459 OA
BRANCH  21  22
ATOM     22  C   UNL     1       3.964  -0.005  27.372  0.00  0.00    +0.266 C 
BRANCH  22  23
ATOM     23  C   UNL     1       4.511   1.417  27.232  0.00  0.00    +0.185 C 
ATOM     24  O   UNL     1       5.928   1.417  27.035  0.00  0.00    -0.340 OA
ATOM     25  C   UNL     1       6.209   2.452  26.070  0.00  0.00    +0.174 C 
ATOM     26  C   UNL     1       6.927   1.791  24.890  0.00  0.00    +0.084 C 
ATOM     27  C   UNL     1       7.449   2.812  23.883  0.00  0.00    +0.110 C 
ATOM     28  N   UNL     1       8.260   3.808  24.590  0.00  0.00    -0.330 N 
ATOM     29  C   UNL     1       7.521   4.538  25.630  0.00  0.00    +0.110 C 
ATOM     30  C   UNL     1       7.076   3.544  26.698  0.00  0.00    +0.084 C 
ATOM     31  O   UNL     1       4.972   3.045  25.643  0.00  0.00    -0.346 OA
ATOM     32  C   UNL     1       3.955   2.122  26.017  0.00  0.00    +0.198 C 
BRANCH  28  33
ATOM     33  C   UNL     1       9.500   4.232  24.143  0.00  0.00    +0.030 A 
ATOM     34  C   UNL     1       9.932   5.565  24.246  0.00  0.00    +0.024 A 
ATOM     35  C   UNL     1      11.179   5.989  23.759  0.00  0.00    +0.022 A 
ATOM     36  C   UNL     1      12.033   5.075  23.158  0.00  0.00    +0.041 A 
ATOM     37 CL   UNL     1      13.565   5.583  22.565  0.00  0.00    -0.084 Cl
ATOM     38  C   UNL     1      11.644   3.749  23.031  0.00  0.00    +0.022 A 
ATOM     39  C   UNL     1      10.392   3.344  23.513  0.00  0.00    +0.024 A 
ENDBRANCH  28  33
ENDBRANCH  22  23
ENDBRANCH  21  22
ENDBRANCH  19  21
ENDBRANCH   5  19
BRANCH   7  40
ATOM     40  C   UNL     1       5.321  -4.609  21.992  0.00  0.00    +0.337 C 
ATOM     41  O   UNL     1       5.394  -3.765  21.109  0.00  0.00    -0.245 OA
BRANCH  40  42
ATOM     42  O   UNL     1       5.760  -5.884  21.856  0.00  0.00    -0.465 OA
ATOM     43  C   UNL     1       7.190  -6.014  21.925  0.00  0.00    +0.280 C 
ENDBRANCH  40  42
ENDBRANCH   7  40
TORSDOF 9
ENDMDL
MODEL 4
REMARK VINA RESULT:      -7.9      3.446      4.907
REMARK  Name = 
REMARK  12 active torsions:
REMARK  status: ('A' for Active; 'I' for Inactive)
REMARK    1  A    between atoms: C_3  and  C_4
REMARK    2  A    between atoms: C_5  and  C_40
REMARK    3  A    between atoms: C_6  and  C_7
REMARK    4  A    between atoms: C_9  and  N_13
REMARK    5  A    between atoms: C_16  and  C_17
REMARK    6  A    between atoms: C_17  and  O_19
REMARK    7  A    between atoms: O_19  and  C_20
REMARK    8  A    between atoms: C_20  and  C_21
REMARK    9  A    between atoms: N_27  and  C_30
REMARK   10  A    between atoms: C_38  and  C_39
REMARK   11  A    between atoms: C_40  and  O_42
REMARK   12  A    between atoms: O_42  and  C_43
REMARK                            x       y       z     vdW  Elec       q    Type
REMARK                         _______ _______ _______ _____ _____    ______ ____
ROOT
ATOM      1  H   UNL     1       5.323  -6.042  23.617  0.00  0.00    +0.152 HD
ATOM      2  N   UNL     1       5.859  -5.474  24.271  0.00  0.00    -0.321 N 
ATOM      3  C   UNL     1       7.022  -4.902  23.787  0.00  0.00    +0.016 C 
ATOM      4  C   UNL     1       7.261  -5.208  22.326  0.00  0.00    +0.061 C 
ATOM      5  C   UNL     1       7.814  -4.185  24.621  0.00  0.00    +0.065 C 
ATOM      6  C   UNL     1       7.414  -3.975  26.106  0.00  0.00    +0.096 C 
ATOM      7  C   UNL     1       6.121  -4.722  26.502  0.00  0.00    +0.065 C 
ATOM      8  C   UNL     1       5.428  -5.435  25.582  0.00  0.00    +0.016 C 
ATOM      9  C   UNL     1       4.189  -6.258  25.851  0.00  0.00    +0.061 C 
ENDROOT
BRANCH   6  10
ATOM     10  C   UNL     1       7.358  -2.477  26.459  0.00  0.00    -0.029 A 
ATOM     11  C   UNL     1       8.515  -1.762  26.816  0.00  0.00    +0.005 A 
ATOM     12  C   UNL     1       8.448  -0.405  27.155  0.00  0.00    +0.007 A 
ATOM     13  C   UNL     1       7.222   0.265  27.151  0.00  0.00    +0.084 A 
ATOM     14  C   UNL     1       6.061  -0.434  26.800  0.00  0.00    +0.273 A 
ATOM     15  C   UNL     1       6.125  -1.795  26.454  0.00  0.00    +0.088 A 
BRANCH  14  16
ATOM     16  N   UNL     1       4.763   0.258  26.803  0.00  0.00    +0.080 N 
ATOM     17  O   UNL     1       4.686   1.337  27.408  0.00  0.00    +0.041 OA
ATOM     18  O   UNL     1       3.827  -0.284  26.201  0.00  0.00    -0.576 OA
ENDBRANCH  14  16
ENDBRANCH   6  10
BRANCH   5  19
ATOM     19  C   UNL     1       9.075  -3.585  24.108  0.00  0.00    +0.338 C 
ATOM     20  O   UNL     1      10.192  -3.998  24.377  0.00  0.00    -0.245 OA
BRANCH  19  21
ATOM     21  O   UNL     1       8.826  -2.487  23.350  0.00  0.00    -0.459 OA
BRANCH  21  22
ATOM     22  C   UNL     1       9.983  -1.915  22.702  0.00  0.00    +0.266 C 
BRANCH  22  23
ATOM     23  C   UNL     1       9.824  -0.406  22.509  0.00  0.00    +0.185 C 
ATOM     24  O   UNL     1       8.521  -0.074  22.020  0.00  0.00    -0.340 OA
ATOM     25  C   UNL     1       8.124   1.136  22.696  0.00  0.00    +0.174 C 
ATOM     26  C   UNL     1       6.813   0.839  23.430  0.00  0.00    +0.084 C 
ATOM     27  C   UNL     1       6.187   2.095  24.031  0.00  0.00    +0.110 C 
ATOM     28  N   UNL     1       6.065   3.114  22.985  0.00  0.00    -0.330 N 
ATOM     29  C   UNL     1       7.349   3.496  22.381  0.00  0.00    +0.110 C 
ATOM     30  C   UNL     1       7.944   2.273  21.689  0.00  0.00    +0.084 C 
ATOM     31  O   UNL     1       9.152   1.514  23.627  0.00  0.00    -0.346 OA
ATOM     32  C   UNL     1       9.948   0.349  23.811  0.00  0.00    +0.198 C 
BRANCH  28  33
ATOM     33  C   UNL     1       4.914   3.857  22.781  0.00  0.00    +0.030 A 
ATOM     34  C   UNL     1       4.766   5.176  23.241  0.00  0.00    +0.024 A 
ATOM     35  C   UNL     1       3.582   5.907  23.056  0.00  0.00    +0.022 A 
ATOM     36  C   UNL     1       2.509   5.328  22.393  0.00  0.00    +0.041 A 
ATOM     37 CL   UNL     1       1.057   6.217  22.156  0.00  0.00    -0.084 Cl
ATOM     38  C   UNL     1       2.610   4.026  21.926  0.00  0.00    +0.022 A 
ATOM     39  C   UNL     1       3.795   3.306  22.127  0.00  0.00    +0.024 A 
ENDBRANCH  28  33
ENDBRANCH  22  23
ENDBRANCH  21  22
ENDBRANCH  19  21
ENDBRANCH   5  19
BRANCH   7  40
ATOM     40  C   UNL     1       5.600  -4.685  27.896  0.00  0.00    +0.337 C 
ATOM     41  O   UNL     1       4.521  -4.199  28.206  0.00  0.00    -0.245 OA
BRANCH  40  42
ATOM     42  O   UNL     1       6.441  -5.277  28.778  0.00  0.00    -0.465 OA
ATOM     43  C   UNL     1       6.057  -6.615  29.137  0.00  0.00    +0.280 C 
ENDBRANCH  40  42
ENDBRANCH   7  40
TORSDOF 9
ENDMDL
MODEL 5
REMARK VINA RESULT:      -7.8      2.145      4.112
REMARK  Name = 
REMARK  12 active torsions:
REMARK  status: ('A' for Active; 'I' for Inactive)
REMARK    1  A    between atoms: C_3  and  C_4
REMARK    2  A    between atoms: C_5  and  C_40
REMARK    3  A    between atoms: C_6  and  C_7
REMARK    4  A    between atoms: C_9  and  N_13
REMARK    5  A    between atoms: C_16  and  C_17
REMARK    6  A    between atoms: C_17  and  O_19
REMARK    7  A    between atoms: O_19  and  C_20
REMARK    8  A    between atoms: C_20  and  C_21
REMARK    9  A    between atoms: N_27  and  C_30
REMARK   10  A    between atoms: C_38  and  C_39
REMARK   11  A    between atoms: C_40  and  O_42
REMARK   12  A    between atoms: O_42  and  C_43
REMARK                            x       y       z     vdW  Elec       q    Type
REMARK                         _______ _______ _______ _____ _____    ______ ____
ROOT
ATOM      1  H   UNL     1       3.104  -7.940  26.893  0.00  0.00    +0.152 HD
ATOM      2  N   UNL     1       3.665  -7.148  26.583  0.00  0.00    -0.321 N 
ATOM      3  C   UNL     1       4.155  -6.312  27.569  0.00  0.00    +0.016 C 
ATOM      4  C   UNL     1       3.784  -6.767  28.962  0.00  0.00    +0.061 C 
ATOM      5  C   UNL     1       4.859  -5.206  27.222  0.00  0.00    +0.065 C 
ATOM      6  C   UNL     1       5.144  -4.886  25.731  0.00  0.00    +0.096 C 
ATOM      7  C   UNL     1       4.483  -5.884  24.754  0.00  0.00    +0.065 C 
ATOM      8  C   UNL     1       3.776  -6.941  25.222  0.00  0.00    +0.016 C 
ATOM      9  C   UNL     1       3.031  -7.950  24.380  0.00  0.00    +0.061 C 
ENDROOT
BRANCH   6  10
ATOM     10  C   UNL     1       6.654  -4.729  25.476  0.00  0.00    -0.029 A 
ATOM     11  C   UNL     1       7.591  -5.616  26.034  0.00  0.00    +0.005 A 
ATOM     12  C   UNL     1       8.963  -5.451  25.812  0.00  0.00    +0.007 A 
ATOM     13  C   UNL     1       9.430  -4.389  25.032  0.00  0.00    +0.084 A 
ATOM     14  C   UNL     1       8.510  -3.496  24.471  0.00  0.00    +0.273 A 
ATOM     15  C   UNL     1       7.131  -3.662  24.688  0.00  0.00    +0.088 A 
BRANCH  14  16
ATOM     16  N   UNL     1       8.990  -2.369  23.656  0.00  0.00    +0.080 N 
ATOM     17  O   UNL     1       9.778  -1.571  24.183  0.00  0.00    +0.041 OA
ATOM     18  O   UNL     1       8.574  -2.288  22.493  0.00  0.00    -0.576 OA
ENDBRANCH  14  16
ENDBRANCH   6  10
BRANCH   5  19
ATOM     19  C   UNL     1       5.371  -4.294  28.279  0.00  0.00    +0.338 C 
ATOM     20  O   UNL     1       5.721  -4.657  29.392  0.00  0.00    -0.245 OA
BRANCH  19  21
ATOM     21  O   UNL     1       5.346  -3.000  27.869  0.00  0.00    -0.459 OA
BRANCH  21  22
ATOM     22  C   UNL     1       4.293  -2.195  28.443  0.00  0.00    +0.266 C 
BRANCH  22  23
ATOM     23  C   UNL     1       4.429  -0.728  28.034  0.00  0.00    +0.185 C 
ATOM     24  O   UNL     1       5.801  -0.344  27.902  0.00  0.00    -0.340 OA
ATOM     25  C   UNL     1       5.875   0.528  26.756  0.00  0.00    +0.174 C 
ATOM     26  C   UNL     1       6.865  -0.098  25.770  0.00  0.00    +0.084 C 
ATOM     27  C   UNL     1       7.177   0.826  24.596  0.00  0.00    +0.110 C 
ATOM     28  N   UNL     1       7.599   2.131  25.114  0.00  0.00    -0.330 N 
ATOM     29  C   UNL     1       6.584   2.790  25.948  0.00  0.00    +0.110 C 
ATOM     30  C   UNL     1       6.331   1.925  27.180  0.00  0.00    +0.084 C 
ATOM     31  O   UNL     1       4.571   0.638  26.163  0.00  0.00    -0.346 OA
ATOM     32  C   UNL     1       3.822  -0.458  26.678  0.00  0.00    +0.198 C 
BRANCH  28  33
ATOM     33  C   UNL     1       8.708   2.813  24.642  0.00  0.00    +0.030 A 
ATOM     34  C   UNL     1       8.789   4.215  24.621  0.00  0.00    +0.024 A 
ATOM     35  C   UNL     1       9.906   4.894  24.109  0.00  0.00    +0.022 A 
ATOM     36  C   UNL     1      10.982   4.175  23.606  0.00  0.00    +0.041 A 
ATOM     37 CL   UNL     1      12.357   4.998  22.984  0.00  0.00    -0.084 Cl
ATOM     38  C   UNL     1      10.941   2.789  23.603  0.00  0.00    +0.022 A 
ATOM     39  C   UNL     1       9.815   2.125  24.109  0.00  0.00    +0.024 A 
ENDBRANCH  28  33
ENDBRANCH  22  23
ENDBRANCH  21  22
ENDBRANCH  19  21
ENDBRANCH   5  19
BRANCH   7  40
ATOM     40  C   UNL     1       4.598  -5.719  23.279  0.00  0.00    +0.337 C 
ATOM     41  O   UNL     1       3.840  -5.031  22.610  0.00  0.00    -0.245 OA
BRANCH  40  42
ATOM     42  O   UNL     1       5.656  -6.392  22.764  0.00  0.00    -0.465 OA
ATOM     43  C   UNL     1       6.229  -5.771  21.602  0.00  0.00    +0.280 C 
ENDBRANCH  40  42
ENDBRANCH   7  40
TORSDOF 9
ENDMDL
MODEL 6
REMARK VINA RESULT:      -7.7      4.469      9.954
REMARK  Name = 
REMARK  12 active torsions:
REMARK  status: ('A' for Active; 'I' for Inactive)
REMARK    1  A    between atoms: C_3  and  C_4
REMARK    2  A    between atoms: C_5  and  C_40
REMARK    3  A    between atoms: C_6  and  C_7
REMARK    4  A    between atoms: C_9  and  N_13
REMARK    5  A    between atoms: C_16  and  C_17
REMARK    6  A    between atoms: C_17  and  O_19
REMARK    7  A    between atoms: O_19  and  C_20
REMARK    8  A    between atoms: C_20  and  C_21
REMARK    9  A    between atoms: N_27  and  C_30
REMARK   10  A    between atoms: C_38  and  C_39
REMARK   11  A    between atoms: C_40  and  O_42
REMARK   12  A    between atoms: O_42  and  C_43
REMARK                            x       y       z     vdW  Elec       q    Type
REMARK                         _______ _______ _______ _____ _____    ______ ____
ROOT
ATOM      1  H   UNL     1       9.556   5.150  22.644  0.00  0.00    +0.152 HD
ATOM      2  N   UNL     1       8.941   4.409  22.976  0.00  0.00    -0.321 N 
ATOM      3  C   UNL     1       9.552   3.260  23.443  0.00  0.00    +0.016 C 
ATOM      4  C   UNL     1      11.061   3.340  23.405  0.00  0.00    +0.061 C 
ATOM      5  C   UNL     1       8.791   2.211  23.843  0.00  0.00    +0.065 C 
ATOM      6  C   UNL     1       7.242   2.300  23.808  0.00  0.00    +0.096 C 
ATOM      7  C   UNL     1       6.718   3.625  23.210  0.00  0.00    +0.065 C 
ATOM      8  C   UNL     1       7.582   4.592  22.817  0.00  0.00    +0.016 C 
ATOM      9  C   UNL     1       7.206   5.901  22.162  0.00  0.00    +0.061 C 
ENDROOT
BRANCH   6  10
ATOM     10  C   UNL     1       6.638   2.002  25.193  0.00  0.00    -0.029 A 
ATOM     11  C   UNL     1       5.762   0.922  25.397  0.00  0.00    +0.005 A 
ATOM     12  C   UNL     1       5.202   0.674  26.656  0.00  0.00    +0.007 A 
ATOM     13  C   UNL     1       5.503   1.505  27.739  0.00  0.00    +0.084 A 
ATOM     14  C   UNL     1       6.373   2.586  27.551  0.00  0.00    +0.273 A 
ATOM     15  C   UNL     1       6.939   2.835  26.290  0.00  0.00    +0.088 A 
BRANCH  14  16
ATOM     16  N   UNL     1       6.688   3.473  28.681  0.00  0.00    +0.080 N 
ATOM     17  O   UNL     1       7.405   4.459  28.459  0.00  0.00    +0.041 OA
ATOM     18  O   UNL     1       6.218   3.176  29.788  0.00  0.00    -0.576 OA
ENDBRANCH  14  16
ENDBRANCH   6  10
BRANCH   5  19
ATOM     19  C   UNL     1       9.444   0.966  24.327  0.00  0.00    +0.338 C 
ATOM     20  O   UNL     1       9.821   0.788  25.475  0.00  0.00    -0.245 OA
BRANCH  19  21
ATOM     21  O   UNL     1       9.618   0.075  23.317  0.00  0.00    -0.459 OA
BRANCH  21  22
ATOM     22  C   UNL     1      10.152  -1.206  23.717  0.00  0.00    +0.266 C 
BRANCH  22  23
ATOM     23  C   UNL     1       9.470  -2.351  22.965  0.00  0.00    +0.185 C 
ATOM     24  O   UNL     1       8.748  -3.207  23.855  0.00  0.00    -0.340 OA
ATOM     25  C   UNL     1       7.530  -3.574  23.176  0.00  0.00    +0.174 C 
ATOM     26  C   UNL     1       6.363  -3.127  24.061  0.00  0.00    +0.084 C 
ATOM     27  C   UNL     1       5.017  -3.627  23.542  0.00  0.00    +0.110 C 
ATOM     28  N   UNL     1       5.092  -5.078  23.343  0.00  0.00    -0.330 N 
ATOM     29  C   UNL     1       6.125  -5.488  22.381  0.00  0.00    +0.110 C 
ATOM     30  C   UNL     1       7.490  -5.082  22.932  0.00  0.00    +0.084 C 
ATOM     31  O   UNL     1       7.483  -2.908  21.903  0.00  0.00    -0.346 OA
ATOM     32  C   UNL     1       8.433  -1.851  21.988  0.00  0.00    +0.198 C 
BRANCH  28  33
ATOM     33  C   UNL     1       4.113  -5.955  23.778  0.00  0.00    +0.030 A 
ATOM     34  C   UNL     1       4.274  -6.779  24.904  0.00  0.00    +0.024 A 
ATOM     35  C   UNL     1       3.286  -7.688  25.316  0.00  0.00    +0.022 A 
ATOM     36  C   UNL     1       2.099  -7.788  24.604  0.00  0.00    +0.041 A 
ATOM     37 CL   UNL     1       0.881  -8.893  25.105  0.00  0.00    -0.084 Cl
ATOM     38  C   UNL     1       1.900  -6.996  23.483  0.00  0.00    +0.022 A 
ATOM     39  C   UNL     1       2.899  -6.101  23.079  0.00  0.00    +0.024 A 
ENDBRANCH  28  33
ENDBRANCH  22  23
ENDBRANCH  21  22
ENDBRANCH  19  21
ENDBRANCH   5  19
BRANCH   7  40
ATOM     40  C   UNL     1       5.261   3.880  23.046  0.00  0.00    +0.337 C 
ATOM     41  O   UNL     1       4.583   3.396  22.150  0.00  0.00    -0.245 OA
BRANCH  40  42
ATOM     42  O   UNL     1       4.764   4.684  24.017  0.00  0.00    -0.465 OA
ATOM     43  C   UNL     1       3.512   5.301  23.675  0.00  0.00    +0.280 C 
ENDBRANCH  40  42
ENDBRANCH   7  40
TORSDOF 9
ENDMDL
MODEL 7
REMARK VINA RESULT:      -7.5      2.330      4.186
REMARK  Name = 
REMARK  12 active torsions:
REMARK  status: ('A' for Active; 'I' for Inactive)
REMARK    1  A    between atoms: C_3  and  C_4
REMARK    2  A    between atoms: C_5  and  C_40
REMARK    3  A    between atoms: C_6  and  C_7
REMARK    4  A    between atoms: C_9  and  N_13
REMARK    5  A    between atoms: C_16  and  C_17
REMARK    6  A    between atoms: C_17  and  O_19
REMARK    7  A    between atoms: O_19  and  C_20
REMARK    8  A    between atoms: C_20  and  C_21
REMARK    9  A    between atoms: N_27  and  C_30
REMARK   10  A    between atoms: C_38  and  C_39
REMARK   11  A    between atoms: C_40  and  O_42
REMARK   12  A    between atoms: O_42  and  C_43
REMARK                            x       y       z     vdW  Elec       q    Type
REMARK                         _______ _______ _______ _____ _____    ______ ____
ROOT
ATOM      1  H   UNL     1       2.732  -8.270  27.269  0.00  0.00    +0.152 HD
ATOM      2  N   UNL     1       2.991  -7.377  26.854  0.00  0.00    -0.321 N 
ATOM      3  C   UNL     1       3.504  -6.420  27.711  0.00  0.00    +0.016 C 
ATOM      4  C   UNL     1       3.620  -6.910  29.136  0.00  0.00    +0.061 C 
ATOM      5  C   UNL     1       3.812  -5.189  27.234  0.00  0.00    +0.065 C 
ATOM      6  C   UNL     1       3.623  -4.853  25.730  0.00  0.00    +0.096 C 
ATOM      7  C   UNL     1       2.991  -6.007  24.921  0.00  0.00    +0.065 C 
ATOM      8  C   UNL     1       2.698  -7.188  25.518  0.00  0.00    +0.016 C 
ATOM      9  C   UNL     1       2.024  -8.369  24.859  0.00  0.00    +0.061 C 
ENDROOT
BRANCH   6  10
ATOM     10  C   UNL     1       4.936  -4.348  25.105  0.00  0.00    -0.029 A 
ATOM     11  C   UNL     1       4.942  -3.354  24.111  0.00  0.00    +0.005 A 
ATOM     12  C   UNL     1       6.141  -2.918  23.534  0.00  0.00    +0.007 A 
ATOM     13  C   UNL     1       7.360  -3.471  23.935  0.00  0.00    +0.084 A 
ATOM     14  C   UNL     1       7.370  -4.463  24.922  0.00  0.00    +0.273 A 
ATOM     15  C   UNL     1       6.169  -4.900  25.506  0.00  0.00    +0.088 A 
BRANCH  14  16
ATOM     16  N   UNL     1       8.647  -5.060  25.344  0.00  0.00    +0.080 N 
ATOM     17  O   UNL     1       9.323  -5.643  24.485  0.00  0.00    +0.041 OA
ATOM     18  O   UNL     1       8.964  -4.944  26.536  0.00  0.00    -0.576 OA
ENDBRANCH  14  16
ENDBRANCH   6  10
BRANCH   5  19
ATOM     19  C   UNL     1       4.346  -4.151  28.156  0.00  0.00    +0.338 C 
ATOM     20  O   UNL     1       5.401  -4.246  28.763  0.00  0.00    -0.245 OA
BRANCH  19  21
ATOM     21  O   UNL     1       3.482  -3.110  28.279  0.00  0.00    -0.459 OA
BRANCH  21  22
ATOM     22  C   UNL     1       3.981  -1.988  29.040  0.00  0.00    +0.266 C 
BRANCH  22  23
ATOM     23  C   UNL     1       4.045  -0.721  28.186  0.00  0.00    +0.185 C 
ATOM     24  O   UNL     1       5.363  -0.165  28.171  0.00  0.00    -0.340 OA
ATOM     25  C   UNL     1       5.596   0.307  26.829  0.00  0.00    +0.174 C 
ATOM     26  C   UNL     1       6.842  -0.412  26.303  0.00  0.00    +0.084 C 
ATOM     27  C   UNL     1       7.306   0.139  24.958  0.00  0.00    +0.110 C 
ATOM     28  N   UNL     1       7.459   1.593  25.066  0.00  0.00    -0.330 N 
ATOM     29  C   UNL     1       6.220   2.291  25.435  0.00  0.00    +0.110 C 
ATOM     30  C   UNL     1       5.794   1.823  26.823  0.00  0.00    +0.084 C 
ATOM     31  O   UNL     1       4.452  -0.004  26.016  0.00  0.00    -0.346 OA
ATOM     32  C   UNL     1       3.730  -0.998  26.735  0.00  0.00    +0.198 C 
BRANCH  28  33
ATOM     33  C   UNL     1       8.566   2.277  24.590  0.00  0.00    +0.030 A 
ATOM     34  C   UNL     1       9.745   1.630  24.185  0.00  0.00    +0.024 A 
ATOM     35  C   UNL     1      10.872   2.336  23.736  0.00  0.00    +0.022 A 
ATOM     36  C   UNL     1      10.841   3.722  23.676  0.00  0.00    +0.041 A 
ATOM     37 CL   UNL     1      12.213   4.596  23.121  0.00  0.00    -0.084 Cl
ATOM     38  C   UNL     1       9.698   4.402  24.072  0.00  0.00    +0.022 A 
ATOM     39  C   UNL     1       8.585   3.683  24.527  0.00  0.00    +0.024 A 
ENDBRANCH  28  33
ENDBRANCH  22  23
ENDBRANCH  21  22
ENDBRANCH  19  21
ENDBRANCH   5  19
BRANCH   7  40
ATOM     40  C   UNL     1       2.683  -5.862  23.472  0.00  0.00    +0.337 C 
ATOM     41  O   UNL     1       3.447  -6.198  22.577  0.00  0.00    -0.245 OA
BRANCH  40  42
ATOM     42  O   UNL     1       1.450  -5.343  23.255  0.00  0.00    -0.465 OA
ATOM     43  C   UNL     1       0.670  -6.081  22.299  0.00  0.00    +0.280 C 
ENDBRANCH  40  42
ENDBRANCH   7  40
TORSDOF 9
ENDMDL
MODEL 8
REMARK VINA RESULT:      -7.5      4.505      9.980
REMARK  Name = 
REMARK  12 active torsions:
REMARK  status: ('A' for Active; 'I' for Inactive)
REMARK    1  A    between atoms: C_3  and  C_4
REMARK    2  A    between atoms: C_5  and  C_40
REMARK    3  A    between atoms: C_6  and  C_7
REMARK    4  A    between atoms: C_9  and  N_13
REMARK    5  A    between atoms: C_16  and  C_17
REMARK    6  A    between atoms: C_17  and  O_19
REMARK    7  A    between atoms: O_19  and  C_20
REMARK    8  A    between atoms: C_20  and  C_21
REMARK    9  A    between atoms: N_27  and  C_30
REMARK   10  A    between atoms: C_38  and  C_39
REMARK   11  A    between atoms: C_40  and  O_42
REMARK   12  A    between atoms: O_42  and  C_43
REMARK                            x       y       z     vdW  Elec       q    Type
REMARK                         _______ _______ _______ _____ _____    ______ ____
ROOT
ATOM      1  H   UNL     1       5.989   2.096  21.039  0.00  0.00    +0.152 HD
ATOM      2  N   UNL     1       6.405   2.474  21.889  0.00  0.00    -0.321 N 
ATOM      3  C   UNL     1       7.714   2.113  22.151  0.00  0.00    +0.016 C 
ATOM      4  C   UNL     1       8.306   1.231  21.075  0.00  0.00    +0.061 C 
ATOM      5  C   UNL     1       8.309   2.531  23.295  0.00  0.00    +0.065 C 
ATOM      6  C   UNL     1       7.544   3.435  24.299  0.00  0.00    +0.096 C 
ATOM      7  C   UNL     1       6.078   3.701  23.889  0.00  0.00    +0.065 C 
ATOM      8  C   UNL     1       5.586   3.202  22.729  0.00  0.00    +0.016 C 
ATOM      9  C   UNL     1       4.162   3.334  22.243  0.00  0.00    +0.061 C 
ENDROOT
BRANCH   6  10
ATOM     10  C   UNL     1       8.320   4.735  24.578  0.00  0.00    -0.029 A 
ATOM     11  C   UNL     1       8.885   5.492  23.537  0.00  0.00    +0.005 A 
ATOM     12  C   UNL     1       9.607   6.662  23.804  0.00  0.00    +0.007 A 
ATOM     13  C   UNL     1       9.784   7.097  25.120  0.00  0.00    +0.084 A 
ATOM     14  C   UNL     1       9.230   6.353  26.167  0.00  0.00    +0.273 A 
ATOM     15  C   UNL     1       8.501   5.181  25.902  0.00  0.00    +0.088 A 
BRANCH  14  16
ATOM     16  N   UNL     1       9.419   6.796  27.557  0.00  0.00    +0.080 N 
ATOM     17  O   UNL     1      10.565   7.108  27.913  0.00  0.00    +0.041 OA
ATOM     18  O   UNL     1       8.420   6.827  28.288  0.00  0.00    -0.576 OA
ENDBRANCH  14  16
ENDBRANCH   6  10
BRANCH   5  19
ATOM     19  C   UNL     1       9.710   2.130  23.589  0.00  0.00    +0.338 C 
ATOM     20  O   UNL     1      10.696   2.675  23.119  0.00  0.00    -0.245 OA
BRANCH  19  21
ATOM     21  O   UNL     1       9.751   1.044  24.404  0.00  0.00    -0.459 OA
BRANCH  21  22
ATOM     22  C   UNL     1      10.941   0.235  24.286  0.00  0.00    +0.266 C 
BRANCH  22  23
ATOM     23  C   UNL     1      10.598  -1.206  23.903  0.00  0.00    +0.185 C 
ATOM     24  O   UNL     1       9.497  -1.705  24.668  0.00  0.00    -0.340 OA
ATOM     25  C   UNL     1       8.695  -2.496  23.768  0.00  0.00    +0.174 C 
ATOM     26  C   UNL     1       7.286  -1.894  23.765  0.00  0.00    +0.084 C 
ATOM     27  C   UNL     1       6.289  -2.756  22.995  0.00  0.00    +0.110 C 
ATOM     28  N   UNL     1       6.350  -4.129  23.507  0.00  0.00    -0.330 N 
ATOM     29  C   UNL     1       7.675  -4.749  23.377  0.00  0.00    +0.110 C 
ATOM     30  C   UNL     1       8.668  -3.955  24.222  0.00  0.00    +0.084 C 
ATOM     31  O   UNL     1       9.272  -2.440  22.453  0.00  0.00    -0.346 OA
ATOM     32  C   UNL     1      10.149  -1.320  22.466  0.00  0.00    +0.198 C 
BRANCH  28  33
ATOM     33  C   UNL     1       5.223  -4.874  23.813  0.00  0.00    +0.030 A 
ATOM     34  C   UNL     1       5.246  -5.957  24.707  0.00  0.00    +0.024 A 
ATOM     35  C   UNL     1       4.104  -6.726  24.983  0.00  0.00    +0.022 A 
ATOM     36  C   UNL     1       2.899  -6.420  24.367  0.00  0.00    +0.041 A 
ATOM     37 CL   UNL     1       1.493  -7.350  24.703  0.00  0.00    -0.084 Cl
ATOM     38  C   UNL     1       2.833  -5.361  23.472  0.00  0.00    +0.022 A 
ATOM     39  C   UNL     1       3.984  -4.609  23.200  0.00  0.00    +0.024 A 
ENDBRANCH  28  33
ENDBRANCH  22  23
ENDBRANCH  21  22
ENDBRANCH  19  21
ENDBRANCH   5  19
BRANCH   7  40
ATOM     40  C   UNL     1       5.166   4.505  24.747  0.00  0.00    +0.337 C 
ATOM     41  O   UNL     1       4.485   4.031  25.647  0.00  0.00    -0.245 OA
BRANCH  40  42
ATOM     42  O   UNL     1       5.196   5.824  24.439  0.00  0.00    -0.465 OA
ATOM     43  C   UNL     1       3.901   6.384  24.161  0.00  0.00    +0.280 C 
ENDBRANCH  40  42
ENDBRANCH   7  40
TORSDOF 9
ENDMDL
MODEL 9
REMARK VINA RESULT:      -7.5      4.523      9.650
REMARK  Name = 
REMARK  12 active torsions:
REMARK  status: ('A' for Active; 'I' for Inactive)
REMARK    1  A    between atoms: C_3  and  C_4
REMARK    2  A    between atoms: C_5  and  C_40
REMARK    3  A    between atoms: C_6  and  C_7
REMARK    4  A    between atoms: C_9  and  N_13
REMARK    5  A    between atoms: C_16  and  C_17
REMARK    6  A    between atoms: C_17  and  O_19
REMARK    7  A    between atoms: O_19  and  C_20
REMARK    8  A    between atoms: C_20  and  C_21
REMARK    9  A    between atoms: N_27  and  C_30
REMARK   10  A    between atoms: C_38  and  C_39
REMARK   11  A    between atoms: C_40  and  O_42
REMARK   12  A    between atoms: O_42  and  C_43
REMARK                            x       y       z     vdW  Elec       q    Type
REMARK                         _______ _______ _______ _____ _____    ______ ____
ROOT
ATOM      1  H   UNL     1       4.852   0.946  24.412  0.00  0.00    +0.152 HD
ATOM      2  N   UNL     1       5.708   1.477  24.569  0.00  0.00    -0.321 N 
ATOM      3  C   UNL     1       6.778   1.187  23.743  0.00  0.00    +0.016 C 
ATOM      4  C   UNL     1       6.453   0.132  22.710  0.00  0.00    +0.061 C 
ATOM      5  C   UNL     1       7.964   1.814  23.937  0.00  0.00    +0.065 C 
ATOM      6  C   UNL     1       8.124   2.875  25.059  0.00  0.00    +0.096 C 
ATOM      7  C   UNL     1       6.856   3.043  25.927  0.00  0.00    +0.065 C 
ATOM      8  C   UNL     1       5.734   2.335  25.650  0.00  0.00    +0.016 C 
ATOM      9  C   UNL     1       4.453   2.359  26.453  0.00  0.00    +0.061 C 
ENDROOT
BRANCH   6  10
ATOM     10  C   UNL     1       8.626   4.214  24.489  0.00  0.00    -0.029 A 
ATOM     11  C   UNL     1       7.750   5.128  23.878  0.00  0.00    +0.005 A 
ATOM     12  C   UNL     1       8.222   6.334  23.345  0.00  0.00    +0.007 A 
ATOM     13  C   UNL     1       9.582   6.649  23.406  0.00  0.00    +0.084 A 
ATOM     14  C   UNL     1      10.467   5.748  24.010  0.00  0.00    +0.273 A 
ATOM     15  C   UNL     1       9.996   4.539  24.550  0.00  0.00    +0.088 A 
BRANCH  14  16
ATOM     16  N   UNL     1      11.902   6.064  24.070  0.00  0.00    +0.080 N 
ATOM     17  O   UNL     1      12.619   5.675  23.137  0.00  0.00    +0.041 OA
ATOM     18  O   UNL     1      12.305   6.699  25.054  0.00  0.00    -0.576 OA
ENDBRANCH  14  16
ENDBRANCH   6  10
BRANCH   5  19
ATOM     19  C   UNL     1       9.123   1.491  23.063  0.00  0.00    +0.338 C 
ATOM     20  O   UNL     1       9.231   1.851  21.901  0.00  0.00    -0.245 OA
BRANCH  19  21
ATOM     21  O   UNL     1      10.019   0.697  23.705  0.00  0.00    -0.459 OA
BRANCH  21  22
ATOM     22  C   UNL     1      10.164  -0.631  23.156  0.00  0.00    +0.266 C 
BRANCH  22  23
ATOM     23  C   UNL     1       9.636  -1.693  24.122  0.00  0.00    +0.185 C 
ATOM     24  O   UNL     1       8.227  -1.889  23.970  0.00  0.00    -0.340 OA
ATOM     25  C   UNL     1       7.992  -3.305  24.105  0.00  0.00    +0.174 C 
ATOM     26  C   UNL     1       7.311  -3.779  22.818  0.00  0.00    +0.084 C 
ATOM     27  C   UNL     1       6.836  -5.226  22.912  0.00  0.00    +0.110 C 
ATOM     28  N   UNL     1       6.010  -5.380  24.114  0.00  0.00    -0.330 N 
ATOM     29  C   UNL     1       6.717  -5.057  25.361  0.00  0.00    +0.110 C 
ATOM     30  C   UNL     1       7.114  -3.583  25.326  0.00  0.00    +0.084 C 
ATOM     31  O   UNL     1       9.250  -3.975  24.289  0.00  0.00    -0.346 OA
ATOM     32  C   UNL     1      10.243  -3.051  23.860  0.00  0.00    +0.198 C 
BRANCH  28  33
ATOM     33  C   UNL     1       4.791  -6.037  24.117  0.00  0.00    +0.030 A 
ATOM     34  C   UNL     1       4.433  -6.974  25.100  0.00  0.00    +0.024 A 
ATOM     35  C   UNL     1       3.207  -7.658  25.074  0.00  0.00    +0.022 A 
ATOM     36  C   UNL     1       2.299  -7.411  24.054  0.00  0.00    +0.041 A 
ATOM     37 CL   UNL     1       0.793  -8.237  24.017  0.00  0.00    -0.084 Cl
ATOM     38  C   UNL     1       2.614  -6.496  23.060  0.00  0.00    +0.022 A 
ATOM     39  C   UNL     1       3.846  -5.829  23.094  0.00  0.00    +0.024 A 
ENDBRANCH  28  33
ENDBRANCH  22  23
ENDBRANCH  21  22
ENDBRANCH  19  21
ENDBRANCH   5  19
BRANCH   7  40
ATOM     40  C   UNL     1       6.826   3.977  27.085  0.00  0.00    +0.337 C 
ATOM     41  O   UNL     1       6.366   5.109  27.034  0.00  0.00    -0.245 OA
BRANCH  40  42
ATOM     42  O   UNL     1       7.338   3.421  28.210  0.00  0.00    -0.465 OA
ATOM     43  C   UNL     1       6.620   3.768  29.406  0.00  0.00    +0.280 C 
ENDBRANCH  40  42
ENDBRANCH   7  40
TORSDOF 9
ENDMDL
