MODEL 1
REMARK VINA RESULT:      -6.8      0.000      0.000
REMARK  Name = 
REMARK  31 active torsions:
REMARK  status: ('A' for Active; 'I' for Inactive)
REMARK    1  A    between atoms: O_1  and  C_2
REMARK    2  A    between atoms: C_4  and  C_10
REMARK    3  A    between atoms: C_6  and  O_7
REMARK    4  A    between atoms: C_8  and  O_9
REMARK    5  A    between atoms: C_10  and  O_12
REMARK    6  A    between atoms: O_12  and  C_13
REMARK    7  A    between atoms: C_13  and  C_14
REMARK    8  A    between atoms: C_17  and  O_19
REMARK    9  A    between atoms: O_19  and  C_20
REMARK   10  A    between atoms: C_20  and  C_22
REMARK   11  A    between atoms: C_24  and  O_25
REMARK   12  A    between atoms: C_26  and  O_27
REMARK   13  A    between atoms: C_28  and  O_29
REMARK   14  A    between atoms: C_31  and  O_33
REMARK   15  A    between atoms: O_33  and  C_34
REMARK   16  A    between atoms: C_34  and  C_36
REMARK   17  A    between atoms: C_38  and  O_39
REMARK   18  A    between atoms: C_40  and  O_41
REMARK   19  A    between atoms: C_42  and  O_43
REMARK   20  A    between atoms: C_45  and  O_47
REMARK   21  A    between atoms: O_47  and  C_48
REMARK   22  A    between atoms: C_48  and  C_50
REMARK   23  A    between atoms: C_52  and  O_53
REMARK   24  A    between atoms: C_54  and  O_55
REMARK   25  A    between atoms: C_56  and  O_57
REMARK   26  A    between atoms: C_59  and  O_61
REMARK   27  A    between atoms: O_61  and  C_62
REMARK   28  A    between atoms: C_62  and  C_64
REMARK   29  A    between atoms: C_66  and  O_67
REMARK   30  A    between atoms: C_68  and  O_69
REMARK   31  A    between atoms: C_70  and  O_71
REMARK                            x       y       z     vdW  Elec       q    Type
REMARK                         _______ _______ _______ _____ _____    ______ ____
ROOT
ATOM      1  C   UNL     1       5.636   1.172  27.978  0.00  0.00    +0.204 C 
ATOM      2  C   UNL     1       5.996  -0.124  27.211  0.00  0.00    +0.253 C 
ATOM      3  C   UNL     1       4.908  -0.423  26.173  0.00  0.00    +0.266 C 
ATOM      4  C   UNL     1       3.498  -0.395  26.793  0.00  0.00    +0.289 C 
ATOM      5  C   UNL     1       3.252   0.973  27.451  0.00  0.00    +0.356 C 
ATOM      6  O   UNL     1       4.274   1.188  28.454  0.00  0.00    -0.328 OA
ENDROOT
BRANCH   1   7
ATOM      7  C   UNL     1       6.004   2.430  27.162  0.00  0.00    +0.268 C 
BRANCH   7   8
ATOM      8  O   UNL     1       7.424   2.666  27.146  0.00  0.00    -0.458 OA
BRANCH   8   9
ATOM      9  C   UNL     1       7.756   3.696  26.345  0.00  0.00    +0.340 C 
ATOM     10  O   UNL     1       7.893   4.859  26.682  0.00  0.00    -0.245 OA
BRANCH   9  15
ATOM     11  C   UNL     1       7.381   3.254  22.662  0.00  0.00    +0.163 A 
ATOM     12  C   UNL     1       8.384   2.334  22.381  0.00  0.00    +0.201 A 
ATOM     13  C   UNL     1       9.225   1.869  23.397  0.00  0.00    +0.163 A 
ATOM     14  C   UNL     1       9.066   2.309  24.706  0.00  0.00    +0.064 A 
ATOM     15  C   UNL     1       8.040   3.222  24.983  0.00  0.00    +0.066 A 
ATOM     16  C   UNL     1       7.203   3.701  23.962  0.00  0.00    +0.064 A 
BRANCH  11  17
ATOM     17  O   UNL     1       6.566   3.707  21.665  0.00  0.00    -0.503 OA
ATOM     18  H   UNL     1       6.876   4.573  21.362  0.00  0.00    +0.292 HD
ENDBRANCH  11  17
BRANCH  12  19
ATOM     19  O   UNL     1       8.553   1.856  21.109  0.00  0.00    -0.501 OA
ATOM     20  H   UNL     1       9.005   1.000  21.217  0.00  0.00    +0.292 HD
ENDBRANCH  12  19
BRANCH  13  21
ATOM     21  O   UNL     1      10.189   0.960  23.057  0.00  0.00    -0.503 OA
ATOM     22  H   UNL     1       9.978   0.106  23.472  0.00  0.00    +0.292 HD
ENDBRANCH  13  21
ENDBRANCH   9  15
ENDBRANCH   8   9
ENDBRANCH   7   8
ENDBRANCH   1   7
BRANCH   4  23
ATOM     23  O   UNL     1       3.408  -1.476  27.773  0.00  0.00    -0.448 OA
BRANCH  23  24
ATOM     24  C   UNL     1       2.646  -2.537  27.392  0.00  0.00    +0.340 C 
ATOM     25  O   UNL     1       1.544  -2.456  26.873  0.00  0.00    -0.245 OA
BRANCH  24  26
ATOM     26  C   UNL     1       3.322  -3.831  27.677  0.00  0.00    +0.066 A 
ATOM     27  C   UNL     1       2.715  -5.009  27.206  0.00  0.00    +0.064 A 
ATOM     28  C   UNL     1       3.353  -6.228  27.399  0.00  0.00    +0.163 A 
ATOM     29  C   UNL     1       4.581  -6.289  28.032  0.00  0.00    +0.201 A 
ATOM     30  C   UNL     1       5.183  -5.127  28.504  0.00  0.00    +0.163 A 
ATOM     31  C   UNL     1       4.563  -3.892  28.335  0.00  0.00    +0.064 A 
BRANCH  30  32
ATOM     32  O   UNL     1       6.400  -5.251  29.116  0.00  0.00    -0.503 OA
ATOM     33  H   UNL     1       6.688  -4.371  29.417  0.00  0.00    +0.292 HD
ENDBRANCH  30  32
BRANCH  29  34
ATOM     34  O   UNL     1       5.197  -7.503  28.176  0.00  0.00    -0.501 OA
ATOM     35  H   UNL     1       4.649  -7.976  28.836  0.00  0.00    +0.292 HD
ENDBRANCH  29  34
BRANCH  28  36
ATOM     36  O   UNL     1       2.773  -7.371  26.921  0.00  0.00    -0.503 OA
ATOM     37  H   UNL     1       3.042  -8.068  27.552  0.00  0.00    +0.292 HD
ENDBRANCH  28  36
ENDBRANCH  24  26
ENDBRANCH  23  24
ENDBRANCH   4  23
BRANCH   3  38
ATOM     38  O   UNL     1       5.080  -1.732  25.601  0.00  0.00    -0.450 OA
BRANCH  38  39
ATOM     39  C   UNL     1       5.633  -1.739  24.365  0.00  0.00    +0.340 C 
ATOM     40  O   UNL     1       5.991  -0.760  23.731  0.00  0.00    -0.245 OA
BRANCH  39  41
ATOM     41  C   UNL     1       5.617  -3.110  23.805  0.00  0.00    +0.066 A 
ATOM     42  C   UNL     1       5.804  -3.352  22.436  0.00  0.00    +0.064 A 
ATOM     43  C   UNL     1       5.848  -4.661  21.983  0.00  0.00    +0.163 A 
ATOM     44  C   UNL     1       5.703  -5.721  22.869  0.00  0.00    +0.201 A 
ATOM     45  C   UNL     1       5.521  -5.483  24.227  0.00  0.00    +0.163 A 
ATOM     46  C   UNL     1       5.479  -4.181  24.707  0.00  0.00    +0.064 A 
BRANCH  45  47
ATOM     47  O   UNL     1       5.398  -6.565  25.054  0.00  0.00    -0.503 OA
ATOM     48  H   UNL     1       5.143  -6.246  25.940  0.00  0.00    +0.292 HD
ENDBRANCH  45  47
BRANCH  44  49
ATOM     49  O   UNL     1       5.753  -7.000  22.388  0.00  0.00    -0.501 OA
ATOM     50  H   UNL     1       5.914  -6.891  21.428  0.00  0.00    +0.292 HD
ENDBRANCH  44  49
BRANCH  43  51
ATOM     51  O   UNL     1       6.046  -4.898  20.652  0.00  0.00    -0.503 OA
ATOM     52  H   UNL     1       5.868  -4.036  20.223  0.00  0.00    +0.292 HD
ENDBRANCH  43  51
ENDBRANCH  39  41
ENDBRANCH  38  39
ENDBRANCH   3  38
BRANCH   5  53
ATOM     53  O   UNL     1       3.200   2.150  26.620  0.00  0.00    -0.428 OA
BRANCH  53  54
ATOM     54  C   UNL     1       2.192   2.413  25.763  0.00  0.00    +0.342 C 
ATOM     55  O   UNL     1       1.138   1.820  25.655  0.00  0.00    -0.245 OA
BRANCH  54  56
ATOM     56  C   UNL     1       2.709   3.405  24.786  0.00  0.00    +0.066 A 
ATOM     57  C   UNL     1       2.562   3.146  23.413  0.00  0.00    +0.064 A 
ATOM     58  C   UNL     1       3.137   4.023  22.501  0.00  0.00    +0.163 A 
ATOM     59  C   UNL     1       3.846   5.134  22.939  0.00  0.00    +0.201 A 
ATOM     60  C   UNL     1       4.015   5.371  24.299  0.00  0.00    +0.163 A 
ATOM     61  C   UNL     1       3.450   4.512  25.232  0.00  0.00    +0.064 A 
BRANCH  60  62
ATOM     62  O   UNL     1       4.758   6.455  24.669  0.00  0.00    -0.503 OA
ATOM     63  H   UNL     1       4.355   6.853  25.460  0.00  0.00    +0.292 HD
ENDBRANCH  60  62
BRANCH  59  64
ATOM     64  O   UNL     1       4.381   5.991  22.016  0.00  0.00    -0.501 OA
ATOM     65  H   UNL     1       3.614   6.496  21.676  0.00  0.00    +0.292 HD
ENDBRANCH  59  64
BRANCH  58  66
ATOM     66  O   UNL     1       3.015   3.780  21.163  0.00  0.00    -0.503 OA
ATOM     67  H   UNL     1       3.097   2.808  21.074  0.00  0.00    +0.292 HD
ENDBRANCH  58  66
ENDBRANCH  54  56
ENDBRANCH  53  54
ENDBRANCH   5  53
BRANCH   2  68
ATOM     68  O   UNL     1       7.274   0.114  26.554  0.00  0.00    -0.451 OA
BRANCH  68  69
ATOM     69  C   UNL     1       8.374  -0.528  27.000  0.00  0.00    +0.340 C 
ATOM     70  O   UNL     1       9.123  -0.132  27.877  0.00  0.00    -0.245 OA
BRANCH  69  71
ATOM     71  C   UNL     1       8.611  -1.790  26.228  0.00  0.00    +0.066 A 
ATOM     72  C   UNL     1       9.155  -1.805  24.930  0.00  0.00    +0.064 A 
ATOM     73  C   UNL     1       9.461  -3.023  24.329  0.00  0.00    +0.163 A 
ATOM     74  C   UNL     1       9.200  -4.220  24.982  0.00  0.00    +0.201 A 
ATOM     75  C   UNL     1       8.614  -4.215  26.239  0.00  0.00    +0.163 A 
ATOM     76  C   UNL     1       8.328  -3.008  26.876  0.00  0.00    +0.064 A 
BRANCH  75  77
ATOM     77  O   UNL     1       8.349  -5.421  26.825  0.00  0.00    -0.503 OA
ATOM     78  H   UNL     1       8.083  -5.264  27.749  0.00  0.00    +0.292 HD
ENDBRANCH  75  77
BRANCH  74  79
ATOM     79  O   UNL     1       9.534  -5.400  24.375  0.00  0.00    -0.501 OA
ATOM     80  H   UNL     1       9.175  -5.321  23.468  0.00  0.00    +0.292 HD
ENDBRANCH  74  79
BRANCH  73  81
ATOM     81  O   UNL     1      10.048  -3.040  23.096  0.00  0.00    -0.503 OA
ATOM     82  H   UNL     1       9.360  -2.705  22.486  0.00  0.00    +0.292 HD
ENDBRANCH  73  81
ENDBRANCH  69  71
ENDBRANCH  68  69
ENDBRANCH   2  68
TORSDOF 31
ENDMDL
MODEL 2
REMARK VINA RESULT:      -6.7      1.558      2.550
REMARK  Name = 
REMARK  31 active torsions:
REMARK  status: ('A' for Active; 'I' for Inactive)
REMARK    1  A    between atoms: O_1  and  C_2
REMARK    2  A    between atoms: C_4  and  C_10
REMARK    3  A    between atoms: C_6  and  O_7
REMARK    4  A    between atoms: C_8  and  O_9
REMARK    5  A    between atoms: C_10  and  O_12
REMARK    6  A    between atoms: O_12  and  C_13
REMARK    7  A    between atoms: C_13  and  C_14
REMARK    8  A    between atoms: C_17  and  O_19
REMARK    9  A    between atoms: O_19  and  C_20
REMARK   10  A    between atoms: C_20  and  C_22
REMARK   11  A    between atoms: C_24  and  O_25
REMARK   12  A    between atoms: C_26  and  O_27
REMARK   13  A    between atoms: C_28  and  O_29
REMARK   14  A    between atoms: C_31  and  O_33
REMARK   15  A    between atoms: O_33  and  C_34
REMARK   16  A    between atoms: C_34  and  C_36
REMARK   17  A    between atoms: C_38  and  O_39
REMARK   18  A    between atoms: C_40  and  O_41
REMARK   19  A    between atoms: C_42  and  O_43
REMARK   20  A    between atoms: C_45  and  O_47
REMARK   21  A    between atoms: O_47  and  C_48
REMARK   22  A    between atoms: C_48  and  C_50
REMARK   23  A    between atoms: C_52  and  O_53
REMARK   24  A    between atoms: C_54  and  O_55
REMARK   25  A    between atoms: C_56  and  O_57
REMARK   26  A    between atoms: C_59  and  O_61
REMARK   27  A    between atoms: O_61  and  C_62
REMARK   28  A    between atoms: C_62  and  C_64
REMARK   29  A    between atoms: C_66  and  O_67
REMARK   30  A    between atoms: C_68  and  O_69
REMARK   31  A    between atoms: C_70  and  O_71
REMARK                            x       y       z     vdW  Elec       q    Type
REMARK                         _______ _______ _______ _____ _____    ______ ____
ROOT
ATOM      1  C   UNL     1       6.173   1.373  28.448  0.00  0.00    +0.204 C 
ATOM      2  C   UNL     1       6.569   0.151  27.583  0.00  0.00    +0.253 C 
ATOM      3  C   UNL     1       5.348  -0.334  26.793  0.00  0.00    +0.266 C 
ATOM      4  C   UNL     1       4.121  -0.540  27.701  0.00  0.00    +0.289 C 
ATOM      5  C   UNL     1       3.799   0.771  28.438  0.00  0.00    +0.356 C 
ATOM      6  O   UNL     1       4.963   1.162  29.205  0.00  0.00    -0.328 OA
ENDROOT
BRANCH   1   7
ATOM      7  C   UNL     1       6.142   2.670  27.611  0.00  0.00    +0.268 C 
BRANCH   7   8
ATOM      8  O   UNL     1       7.323   3.468  27.809  0.00  0.00    -0.458 OA
BRANCH   8   9
ATOM      9  C   UNL     1       7.134   4.751  27.446  0.00  0.00    +0.340 C 
ATOM     10  O   UNL     1       6.898   5.685  28.192  0.00  0.00    -0.245 OA
BRANCH   9  15
ATOM     11  C   UNL     1       6.460   5.752  23.918  0.00  0.00    +0.163 A 
ATOM     12  C   UNL     1       7.558   5.216  23.255  0.00  0.00    +0.201 A 
ATOM     13  C   UNL     1       8.558   4.544  23.966  0.00  0.00    +0.163 A 
ATOM     14  C   UNL     1       8.467   4.390  25.344  0.00  0.00    +0.064 A 
ATOM     15  C   UNL     1       7.347   4.917  26.002  0.00  0.00    +0.066 A 
ATOM     16  C   UNL     1       6.349   5.605  25.293  0.00  0.00    +0.064 A 
BRANCH  11  17
ATOM     17  O   UNL     1       5.491   6.410  23.220  0.00  0.00    -0.503 OA
ATOM     18  H   UNL     1       4.851   5.771  22.872  0.00  0.00    +0.292 HD
ENDBRANCH  11  17
BRANCH  12  19
ATOM     19  O   UNL     1       7.668   5.322  21.894  0.00  0.00    -0.501 OA
ATOM     20  H   UNL     1       7.262   6.179  21.672  0.00  0.00    +0.292 HD
ENDBRANCH  12  19
BRANCH  13  21
ATOM     21  O   UNL     1       9.609   4.034  23.254  0.00  0.00    -0.503 OA
ATOM     22  H   UNL     1       9.288   3.739  22.384  0.00  0.00    +0.292 HD
ENDBRANCH  13  21
ENDBRANCH   9  15
ENDBRANCH   8   9
ENDBRANCH   7   8
ENDBRANCH   1   7
BRANCH   4  23
ATOM     23  O   UNL     1       4.425  -1.615  28.645  0.00  0.00    -0.448 OA
BRANCH  23  24
ATOM     24  C   UNL     1       3.509  -2.620  28.689  0.00  0.00    +0.340 C 
ATOM     25  O   UNL     1       2.300  -2.461  28.751  0.00  0.00    -0.245 OA
BRANCH  24  26
ATOM     26  C   UNL     1       4.157  -3.958  28.646  0.00  0.00    +0.066 A 
ATOM     27  C   UNL     1       3.695  -4.942  29.538  0.00  0.00    +0.064 A 
ATOM     28  C   UNL     1       4.234  -6.221  29.479  0.00  0.00    +0.163 A 
ATOM     29  C   UNL     1       5.204  -6.536  28.544  0.00  0.00    +0.201 A 
ATOM     30  C   UNL     1       5.667  -5.564  27.662  0.00  0.00    +0.163 A 
ATOM     31  C   UNL     1       5.154  -4.271  27.705  0.00  0.00    +0.064 A 
BRANCH  30  32
ATOM     32  O   UNL     1       6.621  -5.938  26.757  0.00  0.00    -0.503 OA
ATOM     33  H   UNL     1       6.187  -6.109  25.901  0.00  0.00    +0.292 HD
ENDBRANCH  30  32
BRANCH  29  34
ATOM     34  O   UNL     1       5.689  -7.815  28.492  0.00  0.00    -0.501 OA
ATOM     35  H   UNL     1       6.245  -7.830  27.685  0.00  0.00    +0.292 HD
ENDBRANCH  29  34
BRANCH  28  36
ATOM     36  O   UNL     1       3.769  -7.184  30.332  0.00  0.00    -0.503 OA
ATOM     37  H   UNL     1       3.364  -6.686  31.070  0.00  0.00    +0.292 HD
ENDBRANCH  28  36
ENDBRANCH  24  26
ENDBRANCH  23  24
ENDBRANCH   4  23
BRANCH   3  38
ATOM     38  O   UNL     1       5.608  -1.598  26.159  0.00  0.00    -0.450 OA
BRANCH  38  39
ATOM     39  C   UNL     1       5.652  -1.552  24.806  0.00  0.00    +0.340 C 
ATOM     40  O   UNL     1       5.563  -0.548  24.117  0.00  0.00    -0.245 OA
BRANCH  39  41
ATOM     41  C   UNL     1       5.679  -2.923  24.247  0.00  0.00    +0.066 A 
ATOM     42  C   UNL     1       4.511  -3.569  23.816  0.00  0.00    +0.064 A 
ATOM     43  C   UNL     1       4.609  -4.824  23.238  0.00  0.00    +0.163 A 
ATOM     44  C   UNL     1       5.845  -5.440  23.091  0.00  0.00    +0.201 A 
ATOM     45  C   UNL     1       7.005  -4.800  23.515  0.00  0.00    +0.163 A 
ATOM     46  C   UNL     1       6.934  -3.539  24.092  0.00  0.00    +0.064 A 
BRANCH  45  47
ATOM     47  O   UNL     1       8.195  -5.448  23.333  0.00  0.00    -0.503 OA
ATOM     48  H   UNL     1       8.077  -6.382  23.587  0.00  0.00    +0.292 HD
ENDBRANCH  45  47
BRANCH  44  49
ATOM     49  O   UNL     1       5.906  -6.678  22.515  0.00  0.00    -0.501 OA
ATOM     50  H   UNL     1       4.984  -7.007  22.552  0.00  0.00    +0.292 HD
ENDBRANCH  44  49
BRANCH  43  51
ATOM     51  O   UNL     1       3.473  -5.447  22.803  0.00  0.00    -0.503 OA
ATOM     52  H   UNL     1       2.744  -4.904  23.167  0.00  0.00    +0.292 HD
ENDBRANCH  43  51
ENDBRANCH  39  41
ENDBRANCH  38  39
ENDBRANCH   3  38
BRANCH   5  53
ATOM     53  O   UNL     1       3.374   1.917  27.674  0.00  0.00    -0.428 OA
BRANCH  53  54
ATOM     54  C   UNL     1       2.314   1.904  26.839  0.00  0.00    +0.342 C 
ATOM     55  O   UNL     1       1.276   1.289  26.970  0.00  0.00    -0.245 OA
BRANCH  54  56
ATOM     56  C   UNL     1       2.746   2.578  25.588  0.00  0.00    +0.066 A 
ATOM     57  C   UNL     1       1.873   3.490  24.971  0.00  0.00    +0.064 A 
ATOM     58  C   UNL     1       2.235   4.040  23.747  0.00  0.00    +0.163 A 
ATOM     59  C   UNL     1       3.437   3.694  23.144  0.00  0.00    +0.201 A 
ATOM     60  C   UNL     1       4.285   2.768  23.743  0.00  0.00    +0.163 A 
ATOM     61  C   UNL     1       3.949   2.204  24.966  0.00  0.00    +0.064 A 
BRANCH  60  62
ATOM     62  O   UNL     1       5.433   2.435  23.083  0.00  0.00    -0.503 OA
ATOM     63  H   UNL     1       6.142   2.305  23.736  0.00  0.00    +0.292 HD
ENDBRANCH  60  62
BRANCH  59  64
ATOM     64  O   UNL     1       3.776   4.271  21.951  0.00  0.00    -0.501 OA
ATOM     65  H   UNL     1       4.394   3.634  21.537  0.00  0.00    +0.292 HD
ENDBRANCH  59  64
BRANCH  58  66
ATOM     66  O   UNL     1       1.393   4.919  23.128  0.00  0.00    -0.503 OA
ATOM     67  H   UNL     1       0.651   5.042  23.755  0.00  0.00    +0.292 HD
ENDBRANCH  58  66
ENDBRANCH  54  56
ENDBRANCH  53  54
ENDBRANCH   5  53
BRANCH   2  68
ATOM     68  O   UNL     1       7.618   0.598  26.675  0.00  0.00    -0.451 OA
BRANCH  68  69
ATOM     69  C   UNL     1       8.666  -0.215  26.429  0.00  0.00    +0.340 C 
ATOM     70  O   UNL     1       9.307  -0.825  27.268  0.00  0.00    -0.245 OA
BRANCH  69  71
ATOM     71  C   UNL     1       9.002  -0.233  24.968  0.00  0.00    +0.066 A 
ATOM     72  C   UNL     1       9.796  -1.232  24.376  0.00  0.00    +0.064 A 
ATOM     73  C   UNL     1       9.959  -1.248  22.993  0.00  0.00    +0.163 A 
ATOM     74  C   UNL     1       9.379  -0.268  22.201  0.00  0.00    +0.201 A 
ATOM     75  C   UNL     1       8.641   0.753  22.783  0.00  0.00    +0.163 A 
ATOM     76  C   UNL     1       8.435   0.773  24.162  0.00  0.00    +0.064 A 
BRANCH  75  77
ATOM     77  O   UNL     1       8.118   1.712  21.961  0.00  0.00    -0.503 OA
ATOM     78  H   UNL     1       8.811   2.369  21.773  0.00  0.00    +0.292 HD
ENDBRANCH  75  77
BRANCH  74  79
ATOM     79  O   UNL     1       9.538  -0.324  20.842  0.00  0.00    -0.501 OA
ATOM     80  H   UNL     1       9.520  -1.279  20.632  0.00  0.00    +0.292 HD
ENDBRANCH  74  79
BRANCH  73  81
ATOM     81  O   UNL     1      10.674  -2.254  22.409  0.00  0.00    -0.503 OA
ATOM     82  H   UNL     1      10.330  -2.307  21.494  0.00  0.00    +0.292 HD
ENDBRANCH  73  81
ENDBRANCH  69  71
ENDBRANCH  68  69
ENDBRANCH   2  68
TORSDOF 31
ENDMDL
MODEL 3
REMARK VINA RESULT:      -6.7      1.427      2.115
REMARK  Name = 
REMARK  31 active torsions:
REMARK  status: ('A' for Active; 'I' for Inactive)
REMARK    1  A    between atoms: O_1  and  C_2
REMARK    2  A    between atoms: C_4  and  C_10
REMARK    3  A    between atoms: C_6  and  O_7
REMARK    4  A    between atoms: C_8  and  O_9
REMARK    5  A    between atoms: C_10  and  O_12
REMARK    6  A    between atoms: O_12  and  C_13
REMARK    7  A    between atoms: C_13  and  C_14
REMARK    8  A    between atoms: C_17  and  O_19
REMARK    9  A    between atoms: O_19  and  C_20
REMARK   10  A    between atoms: C_20  and  C_22
REMARK   11  A    between atoms: C_24  and  O_25
REMARK   12  A    between atoms: C_26  and  O_27
REMARK   13  A    between atoms: C_28  and  O_29
REMARK   14  A    between atoms: C_31  and  O_33
REMARK   15  A    between atoms: O_33  and  C_34
REMARK   16  A    between atoms: C_34  and  C_36
REMARK   17  A    between atoms: C_38  and  O_39
REMARK   18  A    between atoms: C_40  and  O_41
REMARK   19  A    between atoms: C_42  and  O_43
REMARK   20  A    between atoms: C_45  and  O_47
REMARK   21  A    between atoms: O_47  and  C_48
REMARK   22  A    between atoms: C_48  and  C_50
REMARK   23  A    between atoms: C_52  and  O_53
REMARK   24  A    between atoms: C_54  and  O_55
REMARK   25  A    between atoms: C_56  and  O_57
REMARK   26  A    between atoms: C_59  and  O_61
REMARK   27  A    between atoms: O_61  and  C_62
REMARK   28  A    between atoms: C_62  and  C_64
REMARK   29  A    between atoms: C_66  and  O_67
REMARK   30  A    between atoms: C_68  and  O_69
REMARK   31  A    between atoms: C_70  and  O_71
REMARK                            x       y       z     vdW  Elec       q    Type
REMARK                         _______ _______ _______ _____ _____    ______ ____
ROOT
ATOM      1  C   UNL     1       5.808   1.225  27.345  0.00  0.00    +0.204 C 
ATOM      2  C   UNL     1       6.051  -0.279  27.071  0.00  0.00    +0.253 C 
ATOM      3  C   UNL     1       4.822  -0.878  26.377  0.00  0.00    +0.266 C 
ATOM      4  C   UNL     1       3.520  -0.549  27.131  0.00  0.00    +0.289 C 
ATOM      5  C   UNL     1       3.372   0.976  27.264  0.00  0.00    +0.356 C 
ATOM      6  O   UNL     1       4.532   1.488  27.965  0.00  0.00    -0.328 OA
ENDROOT
BRANCH   1   7
ATOM      7  C   UNL     1       6.050   2.077  26.080  0.00  0.00    +0.268 C 
BRANCH   7   8
ATOM      8  O   UNL     1       7.192   2.941  26.222  0.00  0.00    -0.458 OA
BRANCH   8   9
ATOM      9  C   UNL     1       7.532   3.523  25.056  0.00  0.00    +0.340 C 
ATOM     10  O   UNL     1       7.316   4.678  24.735  0.00  0.00    -0.245 OA
BRANCH   9  15
ATOM     11  C   UNL     1       8.612   1.624  22.035  0.00  0.00    +0.163 A 
ATOM     12  C   UNL     1       9.617   0.814  22.551  0.00  0.00    +0.201 A 
ATOM     13  C   UNL     1       9.980   0.905  23.898  0.00  0.00    +0.163 A 
ATOM     14  C   UNL     1       9.336   1.797  24.748  0.00  0.00    +0.064 A 
ATOM     15  C   UNL     1       8.311   2.596  24.223  0.00  0.00    +0.066 A 
ATOM     16  C   UNL     1       7.954   2.517  22.867  0.00  0.00    +0.064 A 
BRANCH  11  17
ATOM     17  O   UNL     1       8.266   1.534  20.718  0.00  0.00    -0.503 OA
ATOM     18  H   UNL     1       9.022   1.212  20.205  0.00  0.00    +0.292 HD
ENDBRANCH  11  17
BRANCH  12  19
ATOM     19  O   UNL     1      10.255  -0.097  21.752  0.00  0.00    -0.501 OA
ATOM     20  H   UNL     1      10.427   0.373  20.916  0.00  0.00    +0.292 HD
ENDBRANCH  12  19
BRANCH  13  21
ATOM     21  O   UNL     1      10.972   0.075  24.346  0.00  0.00    -0.503 OA
ATOM     22  H   UNL     1      11.722   0.119  23.729  0.00  0.00    +0.292 HD
ENDBRANCH  13  21
ENDBRANCH   9  15
ENDBRANCH   8   9
ENDBRANCH   7   8
ENDBRANCH   1   7
BRANCH   4  23
ATOM     23  O   UNL     1       3.577  -1.190  28.444  0.00  0.00    -0.448 OA
BRANCH  23  24
ATOM     24  C   UNL     1       2.533  -2.015  28.728  0.00  0.00    +0.340 C 
ATOM     25  O   UNL     1       1.357  -1.688  28.705  0.00  0.00    -0.245 OA
BRANCH  24  26
ATOM     26  C   UNL     1       2.993  -3.388  29.070  0.00  0.00    +0.066 A 
ATOM     27  C   UNL     1       2.174  -4.468  28.698  0.00  0.00    +0.064 A 
ATOM     28  C   UNL     1       2.604  -5.766  28.944  0.00  0.00    +0.163 A 
ATOM     29  C   UNL     1       3.833  -6.001  29.536  0.00  0.00    +0.201 A 
ATOM     30  C   UNL     1       4.644  -4.935  29.910  0.00  0.00    +0.163 A 
ATOM     31  C   UNL     1       4.234  -3.623  29.686  0.00  0.00    +0.064 A 
BRANCH  30  32
ATOM     32  O   UNL     1       5.850  -5.232  30.484  0.00  0.00    -0.503 OA
ATOM     33  H   UNL     1       6.471  -5.499  29.782  0.00  0.00    +0.292 HD
ENDBRANCH  30  32
BRANCH  29  34
ATOM     34  O   UNL     1       4.241  -7.292  29.734  0.00  0.00    -0.501 OA
ATOM     35  H   UNL     1       3.439  -7.753  30.058  0.00  0.00    +0.292 HD
ENDBRANCH  29  34
BRANCH  28  36
ATOM     36  O   UNL     1       1.817  -6.817  28.562  0.00  0.00    -0.503 OA
ATOM     37  H   UNL     1       1.604  -6.638  27.624  0.00  0.00    +0.292 HD
ENDBRANCH  28  36
ENDBRANCH  24  26
ENDBRANCH  23  24
ENDBRANCH   4  23
BRANCH   3  38
ATOM     38  O   UNL     1       4.910  -2.312  26.313  0.00  0.00    -0.450 OA
BRANCH  38  39
ATOM     39  C   UNL     1       4.849  -2.825  25.060  0.00  0.00    +0.340 C 
ATOM     40  O   UNL     1       4.926  -2.192  24.019  0.00  0.00    -0.245 OA
BRANCH  39  41
ATOM     41  C   UNL     1       4.527  -4.269  25.114  0.00  0.00    +0.066 A 
ATOM     42  C   UNL     1       5.115  -5.124  26.057  0.00  0.00    +0.064 A 
ATOM     43  C   UNL     1       4.721  -6.451  26.104  0.00  0.00    +0.163 A 
ATOM     44  C   UNL     1       3.761  -6.934  25.223  0.00  0.00    +0.201 A 
ATOM     45  C   UNL     1       3.174  -6.088  24.288  0.00  0.00    +0.163 A 
ATOM     46  C   UNL     1       3.548  -4.751  24.226  0.00  0.00    +0.064 A 
BRANCH  45  47
ATOM     47  O   UNL     1       2.225  -6.614  23.456  0.00  0.00    -0.503 OA
ATOM     48  H   UNL     1       1.721  -5.878  23.063  0.00  0.00    +0.292 HD
ENDBRANCH  45  47
BRANCH  44  49
ATOM     49  O   UNL     1       3.393  -8.249  25.296  0.00  0.00    -0.501 OA
ATOM     50  H   UNL     1       2.465  -8.258  24.983  0.00  0.00    +0.292 HD
ENDBRANCH  44  49
BRANCH  43  51
ATOM     51  O   UNL     1       5.281  -7.280  27.033  0.00  0.00    -0.503 OA
ATOM     52  H   UNL     1       4.783  -8.118  26.943  0.00  0.00    +0.292 HD
ENDBRANCH  43  51
ENDBRANCH  39  41
ENDBRANCH  38  39
ENDBRANCH   3  38
BRANCH   5  53
ATOM     53  O   UNL     1       3.197   1.768  26.073  0.00  0.00    -0.428 OA
BRANCH  53  54
ATOM     54  C   UNL     1       2.393   2.850  26.009  0.00  0.00    +0.342 C 
ATOM     55  O   UNL     1       1.308   2.998  26.534  0.00  0.00    -0.245 OA
BRANCH  54  56
ATOM     56  C   UNL     1       2.954   3.740  24.961  0.00  0.00    +0.066 A 
ATOM     57  C   UNL     1       2.844   3.357  23.615  0.00  0.00    +0.064 A 
ATOM     58  C   UNL     1       3.460   4.137  22.643  0.00  0.00    +0.163 A 
ATOM     59  C   UNL     1       4.174   5.275  22.998  0.00  0.00    +0.201 A 
ATOM     60  C   UNL     1       4.306   5.634  24.335  0.00  0.00    +0.163 A 
ATOM     61  C   UNL     1       3.700   4.874  25.326  0.00  0.00    +0.064 A 
BRANCH  60  62
ATOM     62  O   UNL     1       5.055   6.739  24.626  0.00  0.00    -0.503 OA
ATOM     63  H   UNL     1       4.613   7.522  24.256  0.00  0.00    +0.292 HD
ENDBRANCH  60  62
BRANCH  59  64
ATOM     64  O   UNL     1       4.749   6.035  22.017  0.00  0.00    -0.501 OA
ATOM     65  H   UNL     1       3.994   6.362  21.485  0.00  0.00    +0.292 HD
ENDBRANCH  59  64
BRANCH  58  66
ATOM     66  O   UNL     1       3.373   3.773  21.330  0.00  0.00    -0.503 OA
ATOM     67  H   UNL     1       4.188   3.259  21.156  0.00  0.00    +0.292 HD
ENDBRANCH  58  66
ENDBRANCH  54  56
ENDBRANCH  53  54
ENDBRANCH   5  53
BRANCH   2  68
ATOM     68  O   UNL     1       7.218  -0.367  26.202  0.00  0.00    -0.451 OA
BRANCH  68  69
ATOM     69  C   UNL     1       8.282  -1.096  26.599  0.00  0.00    +0.340 C 
ATOM     70  O   UNL     1       9.081  -0.779  27.464  0.00  0.00    -0.245 OA
BRANCH  69  71
ATOM     71  C   UNL     1       8.407  -2.350  25.787  0.00  0.00    +0.066 A 
ATOM     72  C   UNL     1       8.636  -3.615  26.360  0.00  0.00    +0.064 A 
ATOM     73  C   UNL     1       8.615  -4.748  25.550  0.00  0.00    +0.163 A 
ATOM     74  C   UNL     1       8.410  -4.636  24.182  0.00  0.00    +0.201 A 
ATOM     75  C   UNL     1       8.238  -3.387  23.602  0.00  0.00    +0.163 A 
ATOM     76  C   UNL     1       8.222  -2.241  24.395  0.00  0.00    +0.064 A 
BRANCH  75  77
ATOM     77  O   UNL     1       8.072  -3.329  22.246  0.00  0.00    -0.503 OA
ATOM     78  H   UNL     1       7.385  -2.668  22.047  0.00  0.00    +0.292 HD
ENDBRANCH  75  77
BRANCH  74  79
ATOM     79  O   UNL     1       8.371  -5.770  23.415  0.00  0.00    -0.501 OA
ATOM     80  H   UNL     1       7.918  -5.495  22.593  0.00  0.00    +0.292 HD
ENDBRANCH  74  79
BRANCH  73  81
ATOM     81  O   UNL     1       8.772  -5.982  26.111  0.00  0.00    -0.503 OA
ATOM     82  H   UNL     1       7.905  -6.186  26.516  0.00  0.00    +0.292 HD
ENDBRANCH  73  81
ENDBRANCH  69  71
ENDBRANCH  68  69
ENDBRANCH   2  68
TORSDOF 31
ENDMDL
MODEL 4
REMARK VINA RESULT:      -6.6      1.450      2.606
REMARK  Name = 
REMARK  31 active torsions:
REMARK  status: ('A' for Active; 'I' for Inactive)
REMARK    1  A    between atoms: O_1  and  C_2
REMARK    2  A    between atoms: C_4  and  C_10
REMARK    3  A    between atoms: C_6  and  O_7
REMARK    4  A    between atoms: C_8  and  O_9
REMARK    5  A    between atoms: C_10  and  O_12
REMARK    6  A    between atoms: O_12  and  C_13
REMARK    7  A    between atoms: C_13  and  C_14
REMARK    8  A    between atoms: C_17  and  O_19
REMARK    9  A    between atoms: O_19  and  C_20
REMARK   10  A    between atoms: C_20  and  C_22
REMARK   11  A    between atoms: C_24  and  O_25
REMARK   12  A    between atoms: C_26  and  O_27
REMARK   13  A    between atoms: C_28  and  O_29
REMARK   14  A    between atoms: C_31  and  O_33
REMARK   15  A    between atoms: O_33  and  C_34
REMARK   16  A    between atoms: C_34  and  C_36
REMARK   17  A    between atoms: C_38  and  O_39
REMARK   18  A    between atoms: C_40  and  O_41
REMARK   19  A    between atoms: C_42  and  O_43
REMARK   20  A    between atoms: C_45  and  O_47
REMARK   21  A    between atoms: O_47  and  C_48
REMARK   22  A    between atoms: C_48  and  C_50
REMARK   23  A    between atoms: C_52  and  O_53
REMARK   24  A    between atoms: C_54  and  O_55
REMARK   25  A    between atoms: C_56  and  O_57
REMARK   26  A    between atoms: C_59  and  O_61
REMARK   27  A    between atoms: O_61  and  C_62
REMARK   28  A    between atoms: C_62  and  C_64
REMARK   29  A    between atoms: C_66  and  O_67
REMARK   30  A    between atoms: C_68  and  O_69
REMARK   31  A    between atoms: C_70  and  O_71
REMARK                            x       y       z     vdW  Elec       q    Type
REMARK                         _______ _______ _______ _____ _____    ______ ____
ROOT
ATOM      1  C   UNL     1       5.948   1.269  27.322  0.00  0.00    +0.204 C 
ATOM      2  C   UNL     1       6.183  -0.238  27.058  0.00  0.00    +0.253 C 
ATOM      3  C   UNL     1       4.960  -0.830  26.347  0.00  0.00    +0.266 C 
ATOM      4  C   UNL     1       3.648  -0.486  27.077  0.00  0.00    +0.289 C 
ATOM      5  C   UNL     1       3.512   1.041  27.200  0.00  0.00    +0.356 C 
ATOM      6  O   UNL     1       4.664   1.546  27.918  0.00  0.00    -0.328 OA
ENDROOT
BRANCH   1   7
ATOM      7  C   UNL     1       6.219   2.112  26.056  0.00  0.00    +0.268 C 
BRANCH   7   8
ATOM      8  O   UNL     1       7.335   3.004  26.232  0.00  0.00    -0.458 OA
BRANCH   8   9
ATOM      9  C   UNL     1       7.695   3.596  25.077  0.00  0.00    +0.340 C 
ATOM     10  O   UNL     1       7.599   4.781  24.811  0.00  0.00    -0.245 OA
BRANCH   9  15
ATOM     11  C   UNL     1      10.047   0.949  23.907  0.00  0.00    +0.163 A 
ATOM     12  C   UNL     1       9.697   0.829  22.567  0.00  0.00    +0.201 A 
ATOM     13  C   UNL     1       8.656   1.595  22.034  0.00  0.00    +0.163 A 
ATOM     14  C   UNL     1       7.960   2.498  22.830  0.00  0.00    +0.064 A 
ATOM     15  C   UNL     1       8.331   2.625  24.175  0.00  0.00    +0.066 A 
ATOM     16  C   UNL     1       9.367   1.847  24.716  0.00  0.00    +0.064 A 
BRANCH  11  17
ATOM     17  O   UNL     1      11.061   0.196  24.422  0.00  0.00    -0.503 OA
ATOM     18  H   UNL     1      11.199  -0.586  23.867  0.00  0.00    +0.292 HD
ENDBRANCH  11  17
BRANCH  12  19
ATOM     19  O   UNL     1      10.379  -0.028  21.745  0.00  0.00    -0.501 OA
ATOM     20  H   UNL     1      10.470   0.449  20.899  0.00  0.00    +0.292 HD
ENDBRANCH  12  19
BRANCH  13  21
ATOM     21  O   UNL     1       8.366   1.436  20.706  0.00  0.00    -0.503 OA
ATOM     22  H   UNL     1       9.189   1.509  20.192  0.00  0.00    +0.292 HD
ENDBRANCH  13  21
ENDBRANCH   9  15
ENDBRANCH   8   9
ENDBRANCH   7   8
ENDBRANCH   1   7
BRANCH   4  23
ATOM     23  O   UNL     1       3.677  -1.121  28.394  0.00  0.00    -0.448 OA
BRANCH  23  24
ATOM     24  C   UNL     1       2.587  -1.877  28.693  0.00  0.00    +0.340 C 
ATOM     25  O   UNL     1       1.442  -1.457  28.761  0.00  0.00    -0.245 OA
BRANCH  24  26
ATOM     26  C   UNL     1       2.950  -3.301  28.924  0.00  0.00    +0.066 A 
ATOM     27  C   UNL     1       4.175  -3.574  29.558  0.00  0.00    +0.064 A 
ATOM     28  C   UNL     1       4.514  -4.889  29.848  0.00  0.00    +0.163 A 
ATOM     29  C   UNL     1       3.653  -5.925  29.533  0.00  0.00    +0.201 A 
ATOM     30  C   UNL     1       2.441  -5.661  28.901  0.00  0.00    +0.163 A 
ATOM     31  C   UNL     1       2.080  -4.353  28.589  0.00  0.00    +0.064 A 
BRANCH  30  32
ATOM     32  O   UNL     1       1.630  -6.726  28.622  0.00  0.00    -0.503 OA
ATOM     33  H   UNL     1       1.239  -6.596  27.739  0.00  0.00    +0.292 HD
ENDBRANCH  30  32
BRANCH  29  34
ATOM     34  O   UNL     1       4.003  -7.207  29.862  0.00  0.00    -0.501 OA
ATOM     35  H   UNL     1       4.524  -7.111  30.687  0.00  0.00    +0.292 HD
ENDBRANCH  29  34
BRANCH  28  36
ATOM     36  O   UNL     1       5.696  -5.152  30.484  0.00  0.00    -0.503 OA
ATOM     37  H   UNL     1       5.507  -5.931  31.045  0.00  0.00    +0.292 HD
ENDBRANCH  28  36
ENDBRANCH  24  26
ENDBRANCH  23  24
ENDBRANCH   4  23
BRANCH   3  38
ATOM     38  O   UNL     1       5.036  -2.265  26.290  0.00  0.00    -0.450 OA
BRANCH  38  39
ATOM     39  C   UNL     1       4.875  -2.790  25.052  0.00  0.00    +0.340 C 
ATOM     40  O   UNL     1       4.958  -2.182  23.997  0.00  0.00    -0.245 OA
BRANCH  39  41
ATOM     41  C   UNL     1       4.433  -4.200  25.147  0.00  0.00    +0.066 A 
ATOM     42  C   UNL     1       3.486  -4.740  24.265  0.00  0.00    +0.064 A 
ATOM     43  C   UNL     1       3.165  -6.084  24.359  0.00  0.00    +0.163 A 
ATOM     44  C   UNL     1       3.766  -6.888  25.320  0.00  0.00    +0.201 A 
ATOM     45  C   UNL     1       4.707  -6.356  26.194  0.00  0.00    +0.163 A 
ATOM     46  C   UNL     1       5.051  -5.012  26.115  0.00  0.00    +0.064 A 
BRANCH  45  47
ATOM     47  O   UNL     1       5.277  -7.197  27.110  0.00  0.00    -0.503 OA
ATOM     48  H   UNL     1       6.241  -7.052  27.101  0.00  0.00    +0.292 HD
ENDBRANCH  45  47
BRANCH  44  49
ATOM     49  O   UNL     1       3.427  -8.211  25.385  0.00  0.00    -0.501 OA
ATOM     50  H   UNL     1       3.390  -8.403  26.345  0.00  0.00    +0.292 HD
ENDBRANCH  44  49
BRANCH  43  51
ATOM     51  O   UNL     1       2.255  -6.614  23.490  0.00  0.00    -0.503 OA
ATOM     52  H   UNL     1       2.303  -7.579  23.645  0.00  0.00    +0.292 HD
ENDBRANCH  43  51
ENDBRANCH  39  41
ENDBRANCH  38  39
ENDBRANCH   3  38
BRANCH   5  53
ATOM     53  O   UNL     1       3.364   1.829  26.002  0.00  0.00    -0.428 OA
BRANCH  53  54
ATOM     54  C   UNL     1       2.694   3.000  25.959  0.00  0.00    +0.342 C 
ATOM     55  O   UNL     1       1.667   3.287  26.538  0.00  0.00    -0.245 OA
BRANCH  54  56
ATOM     56  C   UNL     1       3.299   3.799  24.862  0.00  0.00    +0.066 A 
ATOM     57  C   UNL     1       4.059   4.934  25.188  0.00  0.00    +0.064 A 
ATOM     58  C   UNL     1       4.537   5.739  24.161  0.00  0.00    +0.163 A 
ATOM     59  C   UNL     1       4.265   5.427  22.835  0.00  0.00    +0.201 A 
ATOM     60  C   UNL     1       3.487   4.319  22.517  0.00  0.00    +0.163 A 
ATOM     61  C   UNL     1       2.998   3.497  23.523  0.00  0.00    +0.064 A 
BRANCH  60  62
ATOM     62  O   UNL     1       3.217   4.087  21.198  0.00  0.00    -0.503 OA
ATOM     63  H   UNL     1       4.059   4.000  20.719  0.00  0.00    +0.292 HD
ENDBRANCH  60  62
BRANCH  59  64
ATOM     64  O   UNL     1       4.769   6.225  21.845  0.00  0.00    -0.501 OA
ATOM     65  H   UNL     1       4.102   6.179  21.129  0.00  0.00    +0.292 HD
ENDBRANCH  59  64
BRANCH  58  66
ATOM     66  O   UNL     1       5.267   6.852  24.460  0.00  0.00    -0.503 OA
ATOM     67  H   UNL     1       5.608   6.695  25.365  0.00  0.00    +0.292 HD
ENDBRANCH  58  66
ENDBRANCH  54  56
ENDBRANCH  53  54
ENDBRANCH   5  53
BRANCH   2  68
ATOM     68  O   UNL     1       7.364  -0.340  26.210  0.00  0.00    -0.451 OA
BRANCH  68  69
ATOM     69  C   UNL     1       8.397  -1.110  26.610  0.00  0.00    +0.340 C 
ATOM     70  O   UNL     1       9.206  -0.823  27.476  0.00  0.00    -0.245 OA
BRANCH  69  71
ATOM     71  C   UNL     1       8.476  -2.369  25.799  0.00  0.00    +0.066 A 
ATOM     72  C   UNL     1       8.667  -3.639  26.373  0.00  0.00    +0.064 A 
ATOM     73  C   UNL     1       8.603  -4.772  25.565  0.00  0.00    +0.163 A 
ATOM     74  C   UNL     1       8.392  -4.656  24.199  0.00  0.00    +0.201 A 
ATOM     75  C   UNL     1       8.257  -3.403  23.617  0.00  0.00    +0.163 A 
ATOM     76  C   UNL     1       8.284  -2.256  24.409  0.00  0.00    +0.064 A 
BRANCH  75  77
ATOM     77  O   UNL     1       8.083  -3.342  22.263  0.00  0.00    -0.503 OA
ATOM     78  H   UNL     1       8.699  -2.681  21.902  0.00  0.00    +0.292 HD
ENDBRANCH  75  77
BRANCH  74  79
ATOM     79  O   UNL     1       8.311  -5.789  23.435  0.00  0.00    -0.501 OA
ATOM     80  H   UNL     1       7.913  -6.458  24.028  0.00  0.00    +0.292 HD
ENDBRANCH  74  79
BRANCH  73  81
ATOM     81  O   UNL     1       8.724  -6.010  26.127  0.00  0.00    -0.503 OA
ATOM     82  H   UNL     1       7.993  -6.064  26.776  0.00  0.00    +0.292 HD
ENDBRANCH  73  81
ENDBRANCH  69  71
ENDBRANCH  68  69
ENDBRANCH   2  68
TORSDOF 31
ENDMDL
MODEL 5
REMARK VINA RESULT:      -6.4      1.577      6.645
REMARK  Name = 
REMARK  31 active torsions:
REMARK  status: ('A' for Active; 'I' for Inactive)
REMARK    1  A    between atoms: O_1  and  C_2
REMARK    2  A    between atoms: C_4  and  C_10
REMARK    3  A    between atoms: C_6  and  O_7
REMARK    4  A    between atoms: C_8  and  O_9
REMARK    5  A    between atoms: C_10  and  O_12
REMARK    6  A    between atoms: O_12  and  C_13
REMARK    7  A    between atoms: C_13  and  C_14
REMARK    8  A    between atoms: C_17  and  O_19
REMARK    9  A    between atoms: O_19  and  C_20
REMARK   10  A    between atoms: C_20  and  C_22
REMARK   11  A    between atoms: C_24  and  O_25
REMARK   12  A    between atoms: C_26  and  O_27
REMARK   13  A    between atoms: C_28  and  O_29
REMARK   14  A    between atoms: C_31  and  O_33
REMARK   15  A    between atoms: O_33  and  C_34
REMARK   16  A    between atoms: C_34  and  C_36
REMARK   17  A    between atoms: C_38  and  O_39
REMARK   18  A    between atoms: C_40  and  O_41
REMARK   19  A    between atoms: C_42  and  O_43
REMARK   20  A    between atoms: C_45  and  O_47
REMARK   21  A    between atoms: O_47  and  C_48
REMARK   22  A    between atoms: C_48  and  C_50
REMARK   23  A    between atoms: C_52  and  O_53
REMARK   24  A    between atoms: C_54  and  O_55
REMARK   25  A    between atoms: C_56  and  O_57
REMARK   26  A    between atoms: C_59  and  O_61
REMARK   27  A    between atoms: O_61  and  C_62
REMARK   28  A    between atoms: C_62  and  C_64
REMARK   29  A    between atoms: C_66  and  O_67
REMARK   30  A    between atoms: C_68  and  O_69
REMARK   31  A    between atoms: C_70  and  O_71
REMARK                            x       y       z     vdW  Elec       q    Type
REMARK                         _______ _______ _______ _____ _____    ______ ____
ROOT
ATOM      1  C   UNL     1       4.429   0.056  27.516  0.00  0.00    +0.204 C 
ATOM      2  C   UNL     1       5.761  -0.180  26.763  0.00  0.00    +0.253 C 
ATOM      3  C   UNL     1       5.637  -1.428  25.882  0.00  0.00    +0.266 C 
ATOM      4  C   UNL     1       5.104  -2.639  26.671  0.00  0.00    +0.289 C 
ATOM      5  C   UNL     1       3.746  -2.287  27.300  0.00  0.00    +0.356 C 
ATOM      6  O   UNL     1       3.924  -1.134  28.158  0.00  0.00    -0.328 OA
ENDROOT
BRANCH   1   7
ATOM      7  C   UNL     1       3.383   0.743  26.611  0.00  0.00    +0.268 C 
BRANCH   7   8
ATOM      8  O   UNL     1       3.316   2.161  26.846  0.00  0.00    -0.458 OA
BRANCH   8   9
ATOM      9  C   UNL     1       2.371   2.753  26.092  0.00  0.00    +0.340 C 
ATOM     10  O   UNL     1       1.165   2.633  26.218  0.00  0.00    -0.245 OA
BRANCH   9  15
ATOM     11  C   UNL     1       3.339   4.204  22.796  0.00  0.00    +0.163 A 
ATOM     12  C   UNL     1       4.160   5.258  23.178  0.00  0.00    +0.201 A 
ATOM     13  C   UNL     1       4.382   5.530  24.532  0.00  0.00    +0.163 A 
ATOM     14  C   UNL     1       3.795   4.746  25.519  0.00  0.00    +0.064 A 
ATOM     15  C   UNL     1       2.983   3.674  25.123  0.00  0.00    +0.066 A 
ATOM     16  C   UNL     1       2.748   3.407  23.765  0.00  0.00    +0.064 A 
BRANCH  11  17
ATOM     17  O   UNL     1       3.123   3.946  21.474  0.00  0.00    -0.503 OA
ATOM     18  H   UNL     1       2.764   3.052  21.372  0.00  0.00    +0.292 HD
ENDBRANCH  11  17
BRANCH  12  19
ATOM     19  O   UNL     1       4.779   6.034  22.235  0.00  0.00    -0.501 OA
ATOM     20  H   UNL     1       4.347   6.905  22.299  0.00  0.00    +0.292 HD
ENDBRANCH  12  19
BRANCH  13  21
ATOM     21  O   UNL     1       5.206   6.577  24.842  0.00  0.00    -0.503 OA
ATOM     22  H   UNL     1       5.337   6.600  25.806  0.00  0.00    +0.292 HD
ENDBRANCH  13  21
ENDBRANCH   9  15
ENDBRANCH   8   9
ENDBRANCH   7   8
ENDBRANCH   1   7
BRANCH   4  23
ATOM     23  O   UNL     1       6.087  -2.984  27.698  0.00  0.00    -0.448 OA
BRANCH  23  24
ATOM     24  C   UNL     1       6.384  -4.308  27.789  0.00  0.00    +0.340 C 
ATOM     25  O   UNL     1       6.153  -5.011  28.761  0.00  0.00    -0.245 OA
BRANCH  24  26
ATOM     26  C   UNL     1       7.025  -4.817  26.548  0.00  0.00    +0.066 A 
ATOM     27  C   UNL     1       6.190  -5.272  25.513  0.00  0.00    +0.064 A 
ATOM     28  C   UNL     1       6.754  -5.693  24.316  0.00  0.00    +0.163 A 
ATOM     29  C   UNL     1       8.125  -5.651  24.130  0.00  0.00    +0.201 A 
ATOM     30  C   UNL     1       8.957  -5.206  25.152  0.00  0.00    +0.163 A 
ATOM     31  C   UNL     1       8.419  -4.788  26.367  0.00  0.00    +0.064 A 
BRANCH  30  32
ATOM     32  O   UNL     1      10.302  -5.182  24.905  0.00  0.00    -0.503 OA
ATOM     33  H   UNL     1      10.477  -5.686  24.090  0.00  0.00    +0.292 HD
ENDBRANCH  30  32
BRANCH  29  34
ATOM     34  O   UNL     1       8.646  -6.041  22.926  0.00  0.00    -0.501 OA
ATOM     35  H   UNL     1       9.449  -6.551  23.163  0.00  0.00    +0.292 HD
ENDBRANCH  29  34
BRANCH  28  36
ATOM     36  O   UNL     1       5.939  -6.115  23.302  0.00  0.00    -0.503 OA
ATOM     37  H   UNL     1       5.881  -5.349  22.696  0.00  0.00    +0.292 HD
ENDBRANCH  28  36
ENDBRANCH  24  26
ENDBRANCH  23  24
ENDBRANCH   4  23
BRANCH   3  38
ATOM     38  O   UNL     1       6.914  -1.816  25.346  0.00  0.00    -0.450 OA
BRANCH  38  39
ATOM     39  C   UNL     1       6.996  -1.772  23.995  0.00  0.00    +0.340 C 
ATOM     40  O   UNL     1       6.419  -2.512  23.214  0.00  0.00    -0.245 OA
BRANCH  39  41
ATOM     41  C   UNL     1       8.012  -0.779  23.576  0.00  0.00    +0.066 A 
ATOM     42  C   UNL     1       7.945  -0.131  22.334  0.00  0.00    +0.064 A 
ATOM     43  C   UNL     1       8.886   0.839  22.028  0.00  0.00    +0.163 A 
ATOM     44  C   UNL     1       9.888   1.163  22.934  0.00  0.00    +0.201 A 
ATOM     45  C   UNL     1       9.955   0.523  24.167  0.00  0.00    +0.163 A 
ATOM     46  C   UNL     1       9.020  -0.449  24.500  0.00  0.00    +0.064 A 
BRANCH  45  47
ATOM     47  O   UNL     1      10.954   0.891  25.025  0.00  0.00    -0.503 OA
ATOM     48  H   UNL     1      11.771   0.430  24.759  0.00  0.00    +0.292 HD
ENDBRANCH  45  47
BRANCH  44  49
ATOM     49  O   UNL     1      10.799   2.125  22.601  0.00  0.00    -0.501 OA
ATOM     50  H   UNL     1      10.253   2.900  22.354  0.00  0.00    +0.292 HD
ENDBRANCH  44  49
BRANCH  43  51
ATOM     51  O   UNL     1       8.811   1.483  20.825  0.00  0.00    -0.503 OA
ATOM     52  H   UNL     1       8.126   2.170  20.959  0.00  0.00    +0.292 HD
ENDBRANCH  43  51
ENDBRANCH  39  41
ENDBRANCH  38  39
ENDBRANCH   3  38
BRANCH   5  53
ATOM     53  O   UNL     1       2.623  -2.019  26.436  0.00  0.00    -0.428 OA
BRANCH  53  54
ATOM     54  C   UNL     1       1.563  -2.845  26.314  0.00  0.00    +0.342 C 
ATOM     55  O   UNL     1       0.443  -2.682  26.752  0.00  0.00    -0.245 OA
BRANCH  54  56
ATOM     56  C   UNL     1       2.079  -4.125  25.766  0.00  0.00    +0.066 A 
ATOM     57  C   UNL     1       2.490  -4.173  24.424  0.00  0.00    +0.064 A 
ATOM     58  C   UNL     1       2.874  -5.394  23.883  0.00  0.00    +0.163 A 
ATOM     59  C   UNL     1       2.849  -6.548  24.656  0.00  0.00    +0.201 A 
ATOM     60  C   UNL     1       2.413  -6.503  25.975  0.00  0.00    +0.163 A 
ATOM     61  C   UNL     1       2.025  -5.296  26.541  0.00  0.00    +0.064 A 
BRANCH  60  62
ATOM     62  O   UNL     1       2.370  -7.676  26.673  0.00  0.00    -0.503 OA
ATOM     63  H   UNL     1       3.124  -8.227  26.403  0.00  0.00    +0.292 HD
ENDBRANCH  60  62
BRANCH  59  64
ATOM     64  O   UNL     1       3.255  -7.732  24.102  0.00  0.00    -0.501 OA
ATOM     65  H   UNL     1       2.488  -8.331  24.213  0.00  0.00    +0.292 HD
ENDBRANCH  59  64
BRANCH  58  66
ATOM     66  O   UNL     1       3.265  -5.461  22.576  0.00  0.00    -0.503 OA
ATOM     67  H   UNL     1       2.435  -5.401  22.061  0.00  0.00    +0.292 HD
ENDBRANCH  58  66
ENDBRANCH  54  56
ENDBRANCH  53  54
ENDBRANCH   5  53
BRANCH   2  68
ATOM     68  O   UNL     1       5.998   1.001  25.942  0.00  0.00    -0.451 OA
BRANCH  68  69
ATOM     69  C   UNL     1       6.809   1.974  26.406  0.00  0.00    +0.340 C 
ATOM     70  O   UNL     1       7.103   2.159  27.575  0.00  0.00    -0.245 OA
BRANCH  69  71
ATOM     71  C   UNL     1       7.272   2.865  25.293  0.00  0.00    +0.066 A 
ATOM     72  C   UNL     1       6.800   2.749  23.972  0.00  0.00    +0.064 A 
ATOM     73  C   UNL     1       7.183   3.694  23.022  0.00  0.00    +0.163 A 
ATOM     74  C   UNL     1       8.053   4.722  23.358  0.00  0.00    +0.201 A 
ATOM     75  C   UNL     1       8.565   4.810  24.644  0.00  0.00    +0.163 A 
ATOM     76  C   UNL     1       8.172   3.896  25.621  0.00  0.00    +0.064 A 
BRANCH  75  77
ATOM     77  O   UNL     1       9.443   5.822  24.915  0.00  0.00    -0.503 OA
ATOM     78  H   UNL     1      10.289   5.431  25.196  0.00  0.00    +0.292 HD
ENDBRANCH  75  77
BRANCH  74  79
ATOM     79  O   UNL     1       8.392   5.648  22.409  0.00  0.00    -0.501 OA
ATOM     80  H   UNL     1       9.314   5.427  22.167  0.00  0.00    +0.292 HD
ENDBRANCH  74  79
BRANCH  73  81
ATOM     81  O   UNL     1       6.677   3.623  21.757  0.00  0.00    -0.503 OA
ATOM     82  H   UNL     1       7.444   3.779  21.170  0.00  0.00    +0.292 HD
ENDBRANCH  73  81
ENDBRANCH  69  71
ENDBRANCH  68  69
ENDBRANCH   2  68
TORSDOF 31
ENDMDL
MODEL 6
REMARK VINA RESULT:      -6.3      1.903      9.527
REMARK  Name = 
REMARK  31 active torsions:
REMARK  status: ('A' for Active; 'I' for Inactive)
REMARK    1  A    between atoms: O_1  and  C_2
REMARK    2  A    between atoms: C_4  and  C_10
REMARK    3  A    between atoms: C_6  and  O_7
REMARK    4  A    between atoms: C_8  and  O_9
REMARK    5  A    between atoms: C_10  and  O_12
REMARK    6  A    between atoms: O_12  and  C_13
REMARK    7  A    between atoms: C_13  and  C_14
REMARK    8  A    between atoms: C_17  and  O_19
REMARK    9  A    between atoms: O_19  and  C_20
REMARK   10  A    between atoms: C_20  and  C_22
REMARK   11  A    between atoms: C_24  and  O_25
REMARK   12  A    between atoms: C_26  and  O_27
REMARK   13  A    between atoms: C_28  and  O_29
REMARK   14  A    between atoms: C_31  and  O_33
REMARK   15  A    between atoms: O_33  and  C_34
REMARK   16  A    between atoms: C_34  and  C_36
REMARK   17  A    between atoms: C_38  and  O_39
REMARK   18  A    between atoms: C_40  and  O_41
REMARK   19  A    between atoms: C_42  and  O_43
REMARK   20  A    between atoms: C_45  and  O_47
REMARK   21  A    between atoms: O_47  and  C_48
REMARK   22  A    between atoms: C_48  and  C_50
REMARK   23  A    between atoms: C_52  and  O_53
REMARK   24  A    between atoms: C_54  and  O_55
REMARK   25  A    between atoms: C_56  and  O_57
REMARK   26  A    between atoms: C_59  and  O_61
REMARK   27  A    between atoms: O_61  and  C_62
REMARK   28  A    between atoms: C_62  and  C_64
REMARK   29  A    between atoms: C_66  and  O_67
REMARK   30  A    between atoms: C_68  and  O_69
REMARK   31  A    between atoms: C_70  and  O_71
REMARK                            x       y       z     vdW  Elec       q    Type
REMARK                         _______ _______ _______ _____ _____    ______ ____
ROOT
ATOM      1  C   UNL     1       8.798  -1.152  26.666  0.00  0.00    +0.204 C 
ATOM      2  C   UNL     1       8.027   0.186  26.781  0.00  0.00    +0.253 C 
ATOM      3  C   UNL     1       7.422   0.547  25.420  0.00  0.00    +0.266 C 
ATOM      4  C   UNL     1       8.469   0.487  24.291  0.00  0.00    +0.289 C 
ATOM      5  C   UNL     1       9.096  -0.917  24.245  0.00  0.00    +0.356 C 
ATOM      6  O   UNL     1       9.693  -1.193  25.535  0.00  0.00    -0.328 OA
ENDROOT
BRANCH   1   7
ATOM      7  C   UNL     1       7.839  -2.362  26.718  0.00  0.00    +0.268 C 
BRANCH   7   8
ATOM      8  O   UNL     1       8.517  -3.569  27.110  0.00  0.00    -0.458 OA
BRANCH   8   9
ATOM      9  C   UNL     1       8.232  -4.598  26.289  0.00  0.00    +0.340 C 
ATOM     10  O   UNL     1       8.891  -4.962  25.331  0.00  0.00    -0.245 OA
BRANCH   9  15
ATOM     11  C   UNL     1       5.922  -6.362  28.624  0.00  0.00    +0.163 A 
ATOM     12  C   UNL     1       4.907  -6.771  27.767  0.00  0.00    +0.201 A 
ATOM     13  C   UNL     1       4.950  -6.442  26.409  0.00  0.00    +0.163 A 
ATOM     14  C   UNL     1       6.013  -5.711  25.889  0.00  0.00    +0.064 A 
ATOM     15  C   UNL     1       7.040  -5.319  26.757  0.00  0.00    +0.066 A 
ATOM     16  C   UNL     1       6.992  -5.636  28.125  0.00  0.00    +0.064 A 
BRANCH  11  17
ATOM     17  O   UNL     1       5.872  -6.681  29.950  0.00  0.00    -0.503 OA
ATOM     18  H   UNL     1       6.426  -7.458  30.118  0.00  0.00    +0.292 HD
ENDBRANCH  11  17
BRANCH  12  19
ATOM     19  O   UNL     1       3.859  -7.517  28.236  0.00  0.00    -0.501 OA
ATOM     20  H   UNL     1       3.511  -7.017  28.996  0.00  0.00    +0.292 HD
ENDBRANCH  12  19
BRANCH  13  21
ATOM     21  O   UNL     1       3.925  -6.881  25.616  0.00  0.00    -0.503 OA
ATOM     22  H   UNL     1       3.859  -6.304  24.836  0.00  0.00    +0.292 HD
ENDBRANCH  13  21
ENDBRANCH   9  15
ENDBRANCH   8   9
ENDBRANCH   7   8
ENDBRANCH   1   7
BRANCH   4  23
ATOM     23  O   UNL     1       9.482   1.509  24.551  0.00  0.00    -0.448 OA
BRANCH  23  24
ATOM     24  C   UNL     1       9.803   2.287  23.482  0.00  0.00    +0.340 C 
ATOM     25  O   UNL     1      10.568   1.964  22.587  0.00  0.00    -0.245 OA
BRANCH  24  26
ATOM     26  C   UNL     1       9.099   3.596  23.522  0.00  0.00    +0.066 A 
ATOM     27  C   UNL     1       8.019   3.791  22.643  0.00  0.00    +0.064 A 
ATOM     28  C   UNL     1       7.299   4.978  22.700  0.00  0.00    +0.163 A 
ATOM     29  C   UNL     1       7.626   5.957  23.621  0.00  0.00    +0.201 A 
ATOM     30  C   UNL     1       8.697   5.771  24.489  0.00  0.00    +0.163 A 
ATOM     31  C   UNL     1       9.443   4.596  24.448  0.00  0.00    +0.064 A 
BRANCH  30  32
ATOM     32  O   UNL     1       8.966   6.773  25.381  0.00  0.00    -0.503 OA
ATOM     33  H   UNL     1       9.405   6.385  26.160  0.00  0.00    +0.292 HD
ENDBRANCH  30  32
BRANCH  29  34
ATOM     34  O   UNL     1       6.875   7.100  23.672  0.00  0.00    -0.501 OA
ATOM     35  H   UNL     1       7.254   7.605  24.422  0.00  0.00    +0.292 HD
ENDBRANCH  29  34
BRANCH  28  36
ATOM     36  O   UNL     1       6.235   5.157  21.860  0.00  0.00    -0.503 OA
ATOM     37  H   UNL     1       5.711   5.872  22.273  0.00  0.00    +0.292 HD
ENDBRANCH  28  36
ENDBRANCH  24  26
ENDBRANCH  23  24
ENDBRANCH   4  23
BRANCH   3  38
ATOM     38  O   UNL     1       6.898   1.887  25.423  0.00  0.00    -0.450 OA
BRANCH  38  39
ATOM     39  C   UNL     1       5.591   1.982  25.079  0.00  0.00    +0.340 C 
ATOM     40  O   UNL     1       4.943   1.141  24.476  0.00  0.00    -0.245 OA
BRANCH  39  41
ATOM     41  C   UNL     1       5.072   3.330  25.407  0.00  0.00    +0.066 A 
ATOM     42  C   UNL     1       3.749   3.700  25.130  0.00  0.00    +0.064 A 
ATOM     43  C   UNL     1       3.301   4.951  25.524  0.00  0.00    +0.163 A 
ATOM     44  C   UNL     1       4.153   5.831  26.180  0.00  0.00    +0.201 A 
ATOM     45  C   UNL     1       5.465   5.465  26.458  0.00  0.00    +0.163 A 
ATOM     46  C   UNL     1       5.936   4.214  26.079  0.00  0.00    +0.064 A 
BRANCH  45  47
ATOM     47  O   UNL     1       6.254   6.366  27.118  0.00  0.00    -0.503 OA
ATOM     48  H   UNL     1       5.808   6.612  27.950  0.00  0.00    +0.292 HD
ENDBRANCH  45  47
BRANCH  44  49
ATOM     49  O   UNL     1       3.680   7.057  26.556  0.00  0.00    -0.501 OA
ATOM     50  H   UNL     1       2.755   6.885  26.830  0.00  0.00    +0.292 HD
ENDBRANCH  44  49
BRANCH  43  51
ATOM     51  O   UNL     1       2.008   5.306  25.269  0.00  0.00    -0.503 OA
ATOM     52  H   UNL     1       1.866   5.054  24.333  0.00  0.00    +0.292 HD
ENDBRANCH  43  51
ENDBRANCH  39  41
ENDBRANCH  38  39
ENDBRANCH   3  38
BRANCH   5  53
ATOM     53  O   UNL     1       8.266  -2.043  23.898  0.00  0.00    -0.428 OA
BRANCH  53  54
ATOM     54  C   UNL     1       7.997  -2.407  22.627  0.00  0.00    +0.342 C 
ATOM     55  O   UNL     1       8.403  -1.888  21.607  0.00  0.00    -0.245 OA
BRANCH  54  56
ATOM     56  C   UNL     1       6.899  -3.404  22.690  0.00  0.00    +0.066 A 
ATOM     57  C   UNL     1       6.991  -4.567  21.908  0.00  0.00    +0.064 A 
ATOM     58  C   UNL     1       5.917  -5.448  21.888  0.00  0.00    +0.163 A 
ATOM     59  C   UNL     1       4.771  -5.183  22.627  0.00  0.00    +0.201 A 
ATOM     60  C   UNL     1       4.671  -4.016  23.377  0.00  0.00    +0.163 A 
ATOM     61  C   UNL     1       5.729  -3.119  23.416  0.00  0.00    +0.064 A 
BRANCH  60  62
ATOM     62  O   UNL     1       3.504  -3.788  24.049  0.00  0.00    -0.503 OA
ATOM     63  H   UNL     1       3.713  -3.598  24.980  0.00  0.00    +0.292 HD
ENDBRANCH  60  62
BRANCH  59  64
ATOM     64  O   UNL     1       3.740  -6.081  22.606  0.00  0.00    -0.501 OA
ATOM     65  H   UNL     1       3.027  -5.650  23.120  0.00  0.00    +0.292 HD
ENDBRANCH  59  64
BRANCH  58  66
ATOM     66  O   UNL     1       5.985  -6.578  21.124  0.00  0.00    -0.503 OA
ATOM     67  H   UNL     1       5.658  -7.295  21.704  0.00  0.00    +0.292 HD
ENDBRANCH  58  66
ENDBRANCH  54  56
ENDBRANCH  53  54
ENDBRANCH   5  53
BRANCH   2  68
ATOM     68  O   UNL     1       6.974  -0.017  27.768  0.00  0.00    -0.451 OA
BRANCH  68  69
ATOM     69  C   UNL     1       6.757   0.930  28.704  0.00  0.00    +0.340 C 
ATOM     70  O   UNL     1       7.566   1.312  29.532  0.00  0.00    -0.245 OA
BRANCH  69  71
ATOM     71  C   UNL     1       5.344   1.429  28.647  0.00  0.00    +0.066 A 
ATOM     72  C   UNL     1       4.957   2.691  29.133  0.00  0.00    +0.064 A 
ATOM     73  C   UNL     1       3.651   3.132  28.931  0.00  0.00    +0.163 A 
ATOM     74  C   UNL     1       2.722   2.324  28.291  0.00  0.00    +0.201 A 
ATOM     75  C   UNL     1       3.082   1.056  27.857  0.00  0.00    +0.163 A 
ATOM     76  C   UNL     1       4.392   0.604  28.018  0.00  0.00    +0.064 A 
BRANCH  75  77
ATOM     77  O   UNL     1       2.122   0.288  27.261  0.00  0.00    -0.503 OA
ATOM     78  H   UNL     1       1.378   0.187  27.881  0.00  0.00    +0.292 HD
ENDBRANCH  75  77
BRANCH  74  79
ATOM     79  O   UNL     1       1.453   2.795  28.086  0.00  0.00    -0.501 OA
ATOM     80  H   UNL     1       0.875   2.145  28.533  0.00  0.00    +0.292 HD
ENDBRANCH  74  79
BRANCH  73  81
ATOM     81  O   UNL     1       3.289   4.382  29.343  0.00  0.00    -0.503 OA
ATOM     82  H   UNL     1       2.408   4.265  29.754  0.00  0.00    +0.292 HD
ENDBRANCH  73  81
ENDBRANCH  69  71
ENDBRANCH  68  69
ENDBRANCH   2  68
TORSDOF 31
ENDMDL
MODEL 7
REMARK VINA RESULT:      -6.2      1.844      3.282
REMARK  Name = 
REMARK  31 active torsions:
REMARK  status: ('A' for Active; 'I' for Inactive)
REMARK    1  A    between atoms: O_1  and  C_2
REMARK    2  A    between atoms: C_4  and  C_10
REMARK    3  A    between atoms: C_6  and  O_7
REMARK    4  A    between atoms: C_8  and  O_9
REMARK    5  A    between atoms: C_10  and  O_12
REMARK    6  A    between atoms: O_12  and  C_13
REMARK    7  A    between atoms: C_13  and  C_14
REMARK    8  A    between atoms: C_17  and  O_19
REMARK    9  A    between atoms: O_19  and  C_20
REMARK   10  A    between atoms: C_20  and  C_22
REMARK   11  A    between atoms: C_24  and  O_25
REMARK   12  A    between atoms: C_26  and  O_27
REMARK   13  A    between atoms: C_28  and  O_29
REMARK   14  A    between atoms: C_31  and  O_33
REMARK   15  A    between atoms: O_33  and  C_34
REMARK   16  A    between atoms: C_34  and  C_36
REMARK   17  A    between atoms: C_38  and  O_39
REMARK   18  A    between atoms: C_40  and  O_41
REMARK   19  A    between atoms: C_42  and  O_43
REMARK   20  A    between atoms: C_45  and  O_47
REMARK   21  A    between atoms: O_47  and  C_48
REMARK   22  A    between atoms: C_48  and  C_50
REMARK   23  A    between atoms: C_52  and  O_53
REMARK   24  A    between atoms: C_54  and  O_55
REMARK   25  A    between atoms: C_56  and  O_57
REMARK   26  A    between atoms: C_59  and  O_61
REMARK   27  A    between atoms: O_61  and  C_62
REMARK   28  A    between atoms: C_62  and  C_64
REMARK   29  A    between atoms: C_66  and  O_67
REMARK   30  A    between atoms: C_68  and  O_69
REMARK   31  A    between atoms: C_70  and  O_71
REMARK                            x       y       z     vdW  Elec       q    Type
REMARK                         _______ _______ _______ _____ _____    ______ ____
ROOT
ATOM      1  C   UNL     1       6.745   0.045  27.407  0.00  0.00    +0.204 C 
ATOM      2  C   UNL     1       6.413  -1.407  26.985  0.00  0.00    +0.253 C 
ATOM      3  C   UNL     1       4.904  -1.541  26.753  0.00  0.00    +0.266 C 
ATOM      4  C   UNL     1       4.089  -0.999  27.943  0.00  0.00    +0.289 C 
ATOM      5  C   UNL     1       4.466   0.470  28.199  0.00  0.00    +0.356 C 
ATOM      6  O   UNL     1       5.890   0.538  28.458  0.00  0.00    -0.328 OA
ENDROOT
BRANCH   1   7
ATOM      7  C   UNL     1       6.803   0.988  26.185  0.00  0.00    +0.268 C 
BRANCH   7   8
ATOM      8  O   UNL     1       7.914   1.899  26.260  0.00  0.00    -0.458 OA
BRANCH   8   9
ATOM      9  C   UNL     1       8.090   2.577  25.110  0.00  0.00    +0.340 C 
ATOM     10  O   UNL     1       8.024   3.785  24.966  0.00  0.00    -0.245 OA
BRANCH   9  15
ATOM     11  C   UNL     1       9.671  -0.342  23.414  0.00  0.00    +0.163 A 
ATOM     12  C   UNL     1       9.380  -0.089  22.079  0.00  0.00    +0.201 A 
ATOM     13  C   UNL     1       8.628   1.033  21.717  0.00  0.00    +0.163 A 
ATOM     14  C   UNL     1       8.167   1.920  22.684  0.00  0.00    +0.064 A 
ATOM     15  C   UNL     1       8.480   1.665  24.026  0.00  0.00    +0.066 A 
ATOM     16  C   UNL     1       9.224   0.532  24.393  0.00  0.00    +0.064 A 
BRANCH  11  17
ATOM     17  O   UNL     1      10.402  -1.441  23.761  0.00  0.00    -0.503 OA
ATOM     18  H   UNL     1       9.879  -2.007  24.348  0.00  0.00    +0.292 HD
ENDBRANCH  11  17
BRANCH  12  19
ATOM     19  O   UNL     1       9.842  -0.923  21.096  0.00  0.00    -0.501 OA
ATOM     20  H   UNL     1      10.409  -0.365  20.534  0.00  0.00    +0.292 HD
ENDBRANCH  12  19
BRANCH  13  21
ATOM     21  O   UNL     1       8.382   1.230  20.386  0.00  0.00    -0.503 OA
ATOM     22  H   UNL     1       8.059   0.399  19.998  0.00  0.00    +0.292 HD
ENDBRANCH  13  21
ENDBRANCH   9  15
ENDBRANCH   8   9
ENDBRANCH   7   8
ENDBRANCH   1   7
BRANCH   4  23
ATOM     23  O   UNL     1       4.378  -1.830  29.111  0.00  0.00    -0.448 OA
BRANCH  23  24
ATOM     24  C   UNL     1       3.284  -2.304  29.765  0.00  0.00    +0.340 C 
ATOM     25  O   UNL     1       2.459  -1.613  30.342  0.00  0.00    -0.245 OA
BRANCH  24  26
ATOM     26  C   UNL     1       3.199  -3.788  29.693  0.00  0.00    +0.066 A 
ATOM     27  C   UNL     1       4.401  -4.518  29.709  0.00  0.00    +0.064 A 
ATOM     28  C   UNL     1       4.355  -5.906  29.708  0.00  0.00    +0.163 A 
ATOM     29  C   UNL     1       3.141  -6.571  29.708  0.00  0.00    +0.201 A 
ATOM     30  C   UNL     1       1.950  -5.853  29.687  0.00  0.00    +0.163 A 
ATOM     31  C   UNL     1       1.965  -4.461  29.676  0.00  0.00    +0.064 A 
BRANCH  30  32
ATOM     32  O   UNL     1       0.783  -6.567  29.695  0.00  0.00    -0.503 OA
ATOM     33  H   UNL     1       0.922  -7.394  29.199  0.00  0.00    +0.292 HD
ENDBRANCH  30  32
BRANCH  29  34
ATOM     34  O   UNL     1       3.131  -7.939  29.741  0.00  0.00    -0.501 OA
ATOM     35  H   UNL     1       3.995  -8.197  29.355  0.00  0.00    +0.292 HD
ENDBRANCH  29  34
BRANCH  28  36
ATOM     36  O   UNL     1       5.523  -6.616  29.747  0.00  0.00    -0.503 OA
ATOM     37  H   UNL     1       5.252  -7.527  29.979  0.00  0.00    +0.292 HD
ENDBRANCH  28  36
ENDBRANCH  24  26
ENDBRANCH  23  24
ENDBRANCH   4  23
BRANCH   3  38
ATOM     38  O   UNL     1       4.523  -2.918  26.587  0.00  0.00    -0.450 OA
BRANCH  38  39
ATOM     39  C   UNL     1       3.410  -3.109  25.839  0.00  0.00    +0.340 C 
ATOM     40  O   UNL     1       2.526  -2.290  25.641  0.00  0.00    -0.245 OA
BRANCH  39  41
ATOM     41  C   UNL     1       3.326  -4.520  25.397  0.00  0.00    +0.066 A 
ATOM     42  C   UNL     1       2.970  -5.551  26.278  0.00  0.00    +0.064 A 
ATOM     43  C   UNL     1       2.840  -6.841  25.789  0.00  0.00    +0.163 A 
ATOM     44  C   UNL     1       3.066  -7.114  24.446  0.00  0.00    +0.201 A 
ATOM     45  C   UNL     1       3.417  -6.092  23.570  0.00  0.00    +0.163 A 
ATOM     46  C   UNL     1       3.547  -4.789  24.034  0.00  0.00    +0.064 A 
BRANCH  45  47
ATOM     47  O   UNL     1       3.614  -6.416  22.256  0.00  0.00    -0.503 OA
ATOM     48  H   UNL     1       2.964  -7.099  22.009  0.00  0.00    +0.292 HD
ENDBRANCH  45  47
BRANCH  44  49
ATOM     49  O   UNL     1       2.929  -8.397  23.996  0.00  0.00    -0.501 OA
ATOM     50  H   UNL     1       3.843  -8.679  23.787  0.00  0.00    +0.292 HD
ENDBRANCH  44  49
BRANCH  43  51
ATOM     51  O   UNL     1       2.477  -7.843  26.643  0.00  0.00    -0.503 OA
ATOM     52  H   UNL     1       1.618  -8.159  26.297  0.00  0.00    +0.292 HD
ENDBRANCH  43  51
ENDBRANCH  39  41
ENDBRANCH  38  39
ENDBRANCH   3  38
BRANCH   5  53
ATOM     53  O   UNL     1       4.158   1.457  27.195  0.00  0.00    -0.428 OA
BRANCH  53  54
ATOM     54  C   UNL     1       4.129   2.784  27.438  0.00  0.00    +0.342 C 
ATOM     55  O   UNL     1       3.818   3.341  28.471  0.00  0.00    -0.245 OA
BRANCH  54  56
ATOM     56  C   UNL     1       4.297   3.463  26.129  0.00  0.00    +0.066 A 
ATOM     57  C   UNL     1       4.178   2.707  24.951  0.00  0.00    +0.064 A 
ATOM     58  C   UNL     1       4.438   3.320  23.731  0.00  0.00    +0.163 A 
ATOM     59  C   UNL     1       4.811   4.658  23.678  0.00  0.00    +0.201 A 
ATOM     60  C   UNL     1       4.957   5.395  24.848  0.00  0.00    +0.163 A 
ATOM     61  C   UNL     1       4.703   4.808  26.080  0.00  0.00    +0.064 A 
BRANCH  60  62
ATOM     62  O   UNL     1       5.367   6.693  24.736  0.00  0.00    -0.503 OA
ATOM     63  H   UNL     1       5.870   6.931  25.533  0.00  0.00    +0.292 HD
ENDBRANCH  60  62
BRANCH  59  64
ATOM     64  O   UNL     1       5.037   5.239  22.461  0.00  0.00    -0.501 OA
ATOM     65  H   UNL     1       5.648   4.625  22.004  0.00  0.00    +0.292 HD
ENDBRANCH  59  64
BRANCH  58  66
ATOM     66  O   UNL     1       4.339   2.597  22.578  0.00  0.00    -0.503 OA
ATOM     67  H   UNL     1       3.673   1.905  22.770  0.00  0.00    +0.292 HD
ENDBRANCH  58  66
ENDBRANCH  54  56
ENDBRANCH  53  54
ENDBRANCH   5  53
BRANCH   2  68
ATOM     68  O   UNL     1       7.142  -1.666  25.750  0.00  0.00    -0.451 OA
BRANCH  68  69
ATOM     69  C   UNL     1       7.760  -2.855  25.586  0.00  0.00    +0.340 C 
ATOM     70  O   UNL     1       8.549  -3.361  26.366  0.00  0.00    -0.245 OA
BRANCH  69  71
ATOM     71  C   UNL     1       7.402  -3.470  24.267  0.00  0.00    +0.066 A 
ATOM     72  C   UNL     1       7.817  -4.758  23.884  0.00  0.00    +0.064 A 
ATOM     73  C   UNL     1       7.340  -5.308  22.696  0.00  0.00    +0.163 A 
ATOM     74  C   UNL     1       6.491  -4.582  21.872  0.00  0.00    +0.201 A 
ATOM     75  C   UNL     1       6.121  -3.290  22.216  0.00  0.00    +0.163 A 
ATOM     76  C   UNL     1       6.559  -2.730  23.415  0.00  0.00    +0.064 A 
BRANCH  75  77
ATOM     77  O   UNL     1       5.309  -2.607  21.354  0.00  0.00    -0.503 OA
ATOM     78  H   UNL     1       4.714  -3.244  20.920  0.00  0.00    +0.292 HD
ENDBRANCH  75  77
BRANCH  74  79
ATOM     79  O   UNL     1       6.020  -5.158  20.723  0.00  0.00    -0.501 OA
ATOM     80  H   UNL     1       6.611  -4.823  20.019  0.00  0.00    +0.292 HD
ENDBRANCH  74  79
BRANCH  73  81
ATOM     81  O   UNL     1       7.689  -6.582  22.353  0.00  0.00    -0.503 OA
ATOM     82  H   UNL     1       8.167  -6.930  23.133  0.00  0.00    +0.292 HD
ENDBRANCH  73  81
ENDBRANCH  69  71
ENDBRANCH  68  69
ENDBRANCH   2  68
TORSDOF 31
ENDMDL
MODEL 8
REMARK VINA RESULT:      -6.2      1.808      3.451
REMARK  Name = 
REMARK  31 active torsions:
REMARK  status: ('A' for Active; 'I' for Inactive)
REMARK    1  A    between atoms: O_1  and  C_2
REMARK    2  A    between atoms: C_4  and  C_10
REMARK    3  A    between atoms: C_6  and  O_7
REMARK    4  A    between atoms: C_8  and  O_9
REMARK    5  A    between atoms: C_10  and  O_12
REMARK    6  A    between atoms: O_12  and  C_13
REMARK    7  A    between atoms: C_13  and  C_14
REMARK    8  A    between atoms: C_17  and  O_19
REMARK    9  A    between atoms: O_19  and  C_20
REMARK   10  A    between atoms: C_20  and  C_22
REMARK   11  A    between atoms: C_24  and  O_25
REMARK   12  A    between atoms: C_26  and  O_27
REMARK   13  A    between atoms: C_28  and  O_29
REMARK   14  A    between atoms: C_31  and  O_33
REMARK   15  A    between atoms: O_33  and  C_34
REMARK   16  A    between atoms: C_34  and  C_36
REMARK   17  A    between atoms: C_38  and  O_39
REMARK   18  A    between atoms: C_40  and  O_41
REMARK   19  A    between atoms: C_42  and  O_43
REMARK   20  A    between atoms: C_45  and  O_47
REMARK   21  A    between atoms: O_47  and  C_48
REMARK   22  A    between atoms: C_48  and  C_50
REMARK   23  A    between atoms: C_52  and  O_53
REMARK   24  A    between atoms: C_54  and  O_55
REMARK   25  A    between atoms: C_56  and  O_57
REMARK   26  A    between atoms: C_59  and  O_61
REMARK   27  A    between atoms: O_61  and  C_62
REMARK   28  A    between atoms: C_62  and  C_64
REMARK   29  A    between atoms: C_66  and  O_67
REMARK   30  A    between atoms: C_68  and  O_69
REMARK   31  A    between atoms: C_70  and  O_71
REMARK                            x       y       z     vdW  Elec       q    Type
REMARK                         _______ _______ _______ _____ _____    ______ ____
ROOT
ATOM      1  C   UNL     1       8.253  -0.868  26.571  0.00  0.00    +0.204 C 
ATOM      2  C   UNL     1       7.660  -2.189  26.023  0.00  0.00    +0.253 C 
ATOM      3  C   UNL     1       6.144  -2.037  25.852  0.00  0.00    +0.266 C 
ATOM      4  C   UNL     1       5.473  -1.495  27.129  0.00  0.00    +0.289 C 
ATOM      5  C   UNL     1       6.109  -0.148  27.512  0.00  0.00    +0.356 C 
ATOM      6  O   UNL     1       7.529  -0.352  27.707  0.00  0.00    -0.328 OA
ENDROOT
BRANCH   1   7
ATOM      7  C   UNL     1       8.437   0.177  25.448  0.00  0.00    +0.268 C 
BRANCH   7   8
ATOM      8  O   UNL     1       9.823   0.369  25.113  0.00  0.00    -0.458 OA
BRANCH   8   9
ATOM      9  C   UNL     1      10.001   0.562  23.792  0.00  0.00    +0.340 C 
ATOM     10  O   UNL     1      10.447  -0.245  22.996  0.00  0.00    -0.245 OA
BRANCH   9  15
ATOM     11  C   UNL     1       9.680   4.273  23.612  0.00  0.00    +0.163 A 
ATOM     12  C   UNL     1       8.561   4.424  22.802  0.00  0.00    +0.201 A 
ATOM     13  C   UNL     1       7.912   3.304  22.273  0.00  0.00    +0.163 A 
ATOM     14  C   UNL     1       8.367   2.021  22.555  0.00  0.00    +0.064 A 
ATOM     15  C   UNL     1       9.485   1.878  23.388  0.00  0.00    +0.066 A 
ATOM     16  C   UNL     1      10.147   3.001  23.910  0.00  0.00    +0.064 A 
BRANCH  11  17
ATOM     17  O   UNL     1      10.312   5.369  24.122  0.00  0.00    -0.503 OA
ATOM     18  H   UNL     1      10.318   5.320  25.089  0.00  0.00    +0.292 HD
ENDBRANCH  11  17
BRANCH  12  19
ATOM     19  O   UNL     1       8.066   5.670  22.525  0.00  0.00    -0.501 OA
ATOM     20  H   UNL     1       7.173   5.682  22.915  0.00  0.00    +0.292 HD
ENDBRANCH  12  19
BRANCH  13  21
ATOM     21  O   UNL     1       6.812   3.519  21.488  0.00  0.00    -0.503 OA
ATOM     22  H   UNL     1       6.190   4.093  21.967  0.00  0.00    +0.292 HD
ENDBRANCH  13  21
ENDBRANCH   9  15
ENDBRANCH   8   9
ENDBRANCH   7   8
ENDBRANCH   1   7
BRANCH   4  23
ATOM     23  O   UNL     1       5.649  -2.483  28.192  0.00  0.00    -0.448 OA
BRANCH  23  24
ATOM     24  C   UNL     1       4.559  -2.677  28.984  0.00  0.00    +0.340 C 
ATOM     25  O   UNL     1       4.013  -1.809  29.646  0.00  0.00    -0.245 OA
BRANCH  24  26
ATOM     26  C   UNL     1       4.095  -4.089  28.946  0.00  0.00    +0.066 A 
ATOM     27  C   UNL     1       2.710  -4.327  28.921  0.00  0.00    +0.064 A 
ATOM     28  C   UNL     1       2.244  -5.632  28.820  0.00  0.00    +0.163 A 
ATOM     29  C   UNL     1       3.129  -6.692  28.729  0.00  0.00    +0.201 A 
ATOM     30  C   UNL     1       4.501  -6.461  28.758  0.00  0.00    +0.163 A 
ATOM     31  C   UNL     1       4.997  -5.165  28.870  0.00  0.00    +0.064 A 
BRANCH  30  32
ATOM     32  O   UNL     1       5.324  -7.549  28.658  0.00  0.00    -0.503 OA
ATOM     33  H   UNL     1       4.925  -8.288  29.152  0.00  0.00    +0.292 HD
ENDBRANCH  30  32
BRANCH  29  34
ATOM     34  O   UNL     1       2.636  -7.962  28.597  0.00  0.00    -0.501 OA
ATOM     35  H   UNL     1       2.158  -7.948  27.742  0.00  0.00    +0.292 HD
ENDBRANCH  29  34
BRANCH  28  36
ATOM     36  O   UNL     1       0.896  -5.861  28.772  0.00  0.00    -0.503 OA
ATOM     37  H   UNL     1       0.508  -5.002  28.508  0.00  0.00    +0.292 HD
ENDBRANCH  28  36
ENDBRANCH  24  26
ENDBRANCH  23  24
ENDBRANCH   4  23
BRANCH   3  38
ATOM     38  O   UNL     1       5.524  -3.304  25.568  0.00  0.00    -0.450 OA
BRANCH  38  39
ATOM     39  C   UNL     1       4.630  -3.278  24.550  0.00  0.00    +0.340 C 
ATOM     40  O   UNL     1       4.275  -2.289  23.929  0.00  0.00    -0.245 OA
BRANCH  39  41
ATOM     41  C   UNL     1       4.014  -4.614  24.376  0.00  0.00    +0.066 A 
ATOM     42  C   UNL     1       3.080  -4.871  23.363  0.00  0.00    +0.064 A 
ATOM     43  C   UNL     1       2.591  -6.158  23.206  0.00  0.00    +0.163 A 
ATOM     44  C   UNL     1       3.015  -7.181  24.045  0.00  0.00    +0.201 A 
ATOM     45  C   UNL     1       3.944  -6.929  25.049  0.00  0.00    +0.163 A 
ATOM     46  C   UNL     1       4.453  -5.648  25.222  0.00  0.00    +0.064 A 
BRANCH  45  47
ATOM     47  O   UNL     1       4.336  -7.977  25.835  0.00  0.00    -0.503 OA
ATOM     48  H   UNL     1       3.655  -8.117  26.519  0.00  0.00    +0.292 HD
ENDBRANCH  45  47
BRANCH  44  49
ATOM     49  O   UNL     1       2.515  -8.440  23.863  0.00  0.00    -0.501 OA
ATOM     50  H   UNL     1       2.804  -8.932  24.659  0.00  0.00    +0.292 HD
ENDBRANCH  44  49
BRANCH  43  51
ATOM     51  O   UNL     1       1.693  -6.413  22.209  0.00  0.00    -0.503 OA
ATOM     52  H   UNL     1       0.837  -6.512  22.673  0.00  0.00    +0.292 HD
ENDBRANCH  43  51
ENDBRANCH  39  41
ENDBRANCH  38  39
ENDBRANCH   3  38
BRANCH   5  53
ATOM     53  O   UNL     1       5.947   0.979  26.627  0.00  0.00    -0.428 OA
BRANCH  53  54
ATOM     54  C   UNL     1       5.833   2.253  27.057  0.00  0.00    +0.342 C 
ATOM     55  O   UNL     1       5.879   2.655  28.201  0.00  0.00    -0.245 OA
BRANCH  54  56
ATOM     56  C   UNL     1       5.379   3.058  25.895  0.00  0.00    +0.066 A 
ATOM     57  C   UNL     1       4.619   2.434  24.892  0.00  0.00    +0.064 A 
ATOM     58  C   UNL     1       4.283   3.160  23.755  0.00  0.00    +0.163 A 
ATOM     59  C   UNL     1       4.693   4.480  23.613  0.00  0.00    +0.201 A 
ATOM     60  C   UNL     1       5.471   5.085  24.595  0.00  0.00    +0.163 A 
ATOM     61  C   UNL     1       5.820   4.384  25.740  0.00  0.00    +0.064 A 
BRANCH  60  62
ATOM     62  O   UNL     1       5.880   6.371  24.380  0.00  0.00    -0.503 OA
ATOM     63  H   UNL     1       5.094   6.936  24.286  0.00  0.00    +0.292 HD
ENDBRANCH  60  62
BRANCH  59  64
ATOM     64  O   UNL     1       4.327   5.176  22.494  0.00  0.00    -0.501 OA
ATOM     65  H   UNL     1       4.383   6.117  22.761  0.00  0.00    +0.292 HD
ENDBRANCH  59  64
BRANCH  58  66
ATOM     66  O   UNL     1       3.555   2.566  22.765  0.00  0.00    -0.503 OA
ATOM     67  H   UNL     1       2.629   2.590  23.083  0.00  0.00    +0.292 HD
ENDBRANCH  58  66
ENDBRANCH  54  56
ENDBRANCH  53  54
ENDBRANCH   5  53
BRANCH   2  68
ATOM     68  O   UNL     1       8.294  -2.434  24.733  0.00  0.00    -0.451 OA
BRANCH  68  69
ATOM     69  C   UNL     1       8.779  -3.664  24.462  0.00  0.00    +0.340 C 
ATOM     70  O   UNL     1       9.786  -4.155  24.943  0.00  0.00    -0.245 OA
BRANCH  69  71
ATOM     71  C   UNL     1       7.948  -4.352  23.422  0.00  0.00    +0.066 A 
ATOM     72  C   UNL     1       7.782  -5.749  23.374  0.00  0.00    +0.064 A 
ATOM     73  C   UNL     1       6.894  -6.302  22.454  0.00  0.00    +0.163 A 
ATOM     74  C   UNL     1       6.203  -5.494  21.563  0.00  0.00    +0.201 A 
ATOM     75  C   UNL     1       6.403  -4.121  21.568  0.00  0.00    +0.163 A 
ATOM     76  C   UNL     1       7.261  -3.539  22.500  0.00  0.00    +0.064 A 
BRANCH  75  77
ATOM     77  O   UNL     1       5.722  -3.373  20.648  0.00  0.00    -0.503 OA
ATOM     78  H   UNL     1       6.150  -2.501  20.581  0.00  0.00    +0.292 HD
ENDBRANCH  75  77
BRANCH  74  79
ATOM     79  O   UNL     1       5.320  -6.065  20.687  0.00  0.00    -0.501 OA
ATOM     80  H   UNL     1       5.697  -6.948  20.498  0.00  0.00    +0.292 HD
ENDBRANCH  74  79
BRANCH  73  81
ATOM     81  O   UNL     1       6.682  -7.651  22.448  0.00  0.00    -0.503 OA
ATOM     82  H   UNL     1       5.902  -7.785  23.024  0.00  0.00    +0.292 HD
ENDBRANCH  73  81
ENDBRANCH  69  71
ENDBRANCH  68  69
ENDBRANCH   2  68
TORSDOF 31
ENDMDL
MODEL 9
REMARK VINA RESULT:      -6.1      1.827      6.221
REMARK  Name = 
REMARK  31 active torsions:
REMARK  status: ('A' for Active; 'I' for Inactive)
REMARK    1  A    between atoms: O_1  and  C_2
REMARK    2  A    between atoms: C_4  and  C_10
REMARK    3  A    between atoms: C_6  and  O_7
REMARK    4  A    between atoms: C_8  and  O_9
REMARK    5  A    between atoms: C_10  and  O_12
REMARK    6  A    between atoms: O_12  and  C_13
REMARK    7  A    between atoms: C_13  and  C_14
REMARK    8  A    between atoms: C_17  and  O_19
REMARK    9  A    between atoms: O_19  and  C_20
REMARK   10  A    between atoms: C_20  and  C_22
REMARK   11  A    between atoms: C_24  and  O_25
REMARK   12  A    between atoms: C_26  and  O_27
REMARK   13  A    between atoms: C_28  and  O_29
REMARK   14  A    between atoms: C_31  and  O_33
REMARK   15  A    between atoms: O_33  and  C_34
REMARK   16  A    between atoms: C_34  and  C_36
REMARK   17  A    between atoms: C_38  and  O_39
REMARK   18  A    between atoms: C_40  and  O_41
REMARK   19  A    between atoms: C_42  and  O_43
REMARK   20  A    between atoms: C_45  and  O_47
REMARK   21  A    between atoms: O_47  and  C_48
REMARK   22  A    between atoms: C_48  and  C_50
REMARK   23  A    between atoms: C_52  and  O_53
REMARK   24  A    between atoms: C_54  and  O_55
REMARK   25  A    between atoms: C_56  and  O_57
REMARK   26  A    between atoms: C_59  and  O_61
REMARK   27  A    between atoms: O_61  and  C_62
REMARK   28  A    between atoms: C_62  and  C_64
REMARK   29  A    between atoms: C_66  and  O_67
REMARK   30  A    between atoms: C_68  and  O_69
REMARK   31  A    between atoms: C_70  and  O_71
REMARK                            x       y       z     vdW  Elec       q    Type
REMARK                         _______ _______ _______ _____ _____    ______ ____
ROOT
ATOM      1  C   UNL     1       5.203   0.923  26.285  0.00  0.00    +0.204 C 
ATOM      2  C   UNL     1       4.201   0.245  27.250  0.00  0.00    +0.253 C 
ATOM      3  C   UNL     1       4.628  -1.207  27.495  0.00  0.00    +0.266 C 
ATOM      4  C   UNL     1       4.885  -1.961  26.176  0.00  0.00    +0.289 C 
ATOM      5  C   UNL     1       5.952  -1.217  25.357  0.00  0.00    +0.356 C 
ATOM      6  O   UNL     1       5.483   0.131  25.112  0.00  0.00    -0.328 OA
ENDROOT
BRANCH   1   7
ATOM      7  C   UNL     1       6.481   1.376  27.025  0.00  0.00    +0.268 C 
BRANCH   7   8
ATOM      8  O   UNL     1       7.378   2.096  26.160  0.00  0.00    -0.458 OA
BRANCH   8   9
ATOM      9  C   UNL     1       7.337   3.423  26.383  0.00  0.00    +0.340 C 
ATOM     10  O   UNL     1       7.321   3.974  27.469  0.00  0.00    -0.245 OA
BRANCH   9  15
ATOM     11  C   UNL     1       6.310   4.738  23.048  0.00  0.00    +0.163 A 
ATOM     12  C   UNL     1       7.453   5.419  22.646  0.00  0.00    +0.201 A 
ATOM     13  C   UNL     1       8.571   5.485  23.482  0.00  0.00    +0.163 A 
ATOM     14  C   UNL     1       8.565   4.863  24.726  0.00  0.00    +0.064 A 
ATOM     15  C   UNL     1       7.415   4.163  25.115  0.00  0.00    +0.066 A 
ATOM     16  C   UNL     1       6.286   4.107  24.283  0.00  0.00    +0.064 A 
BRANCH  11  17
ATOM     17  O   UNL     1       5.220   4.680  22.229  0.00  0.00    -0.503 OA
ATOM     18  H   UNL     1       4.413   4.777  22.756  0.00  0.00    +0.292 HD
ENDBRANCH  11  17
BRANCH  12  19
ATOM     19  O   UNL     1       7.508   6.019  21.416  0.00  0.00    -0.501 OA
ATOM     20  H   UNL     1       8.409   6.382  21.350  0.00  0.00    +0.292 HD
ENDBRANCH  12  19
BRANCH  13  21
ATOM     21  O   UNL     1       9.667   6.164  23.025  0.00  0.00    -0.503 OA
ATOM     22  H   UNL     1      10.438   5.571  23.045  0.00  0.00    +0.292 HD
ENDBRANCH  13  21
ENDBRANCH   9  15
ENDBRANCH   8   9
ENDBRANCH   7   8
ENDBRANCH   1   7
BRANCH   4  23
ATOM     23  O   UNL     1       3.622  -2.045  25.445  0.00  0.00    -0.448 OA
BRANCH  23  24
ATOM     24  C   UNL     1       3.046  -3.277  25.430  0.00  0.00    +0.340 C 
ATOM     25  O   UNL     1       2.077  -3.605  26.099  0.00  0.00    -0.245 OA
BRANCH  24  26
ATOM     26  C   UNL     1       3.735  -4.197  24.487  0.00  0.00    +0.066 A 
ATOM     27  C   UNL     1       4.394  -3.634  23.379  0.00  0.00    +0.064 A 
ATOM     28  C   UNL     1       5.102  -4.458  22.515  0.00  0.00    +0.163 A 
ATOM     29  C   UNL     1       5.177  -5.821  22.744  0.00  0.00    +0.201 A 
ATOM     30  C   UNL     1       4.524  -6.384  23.836  0.00  0.00    +0.163 A 
ATOM     31  C   UNL     1       3.797  -5.583  24.713  0.00  0.00    +0.064 A 
BRANCH  30  32
ATOM     32  O   UNL     1       4.642  -7.735  24.012  0.00  0.00    -0.503 OA
ATOM     33  H   UNL     1       4.605  -7.928  24.967  0.00  0.00    +0.292 HD
ENDBRANCH  30  32
BRANCH  29  34
ATOM     34  O   UNL     1       5.911  -6.600  21.892  0.00  0.00    -0.501 OA
ATOM     35  H   UNL     1       6.068  -6.026  21.113  0.00  0.00    +0.292 HD
ENDBRANCH  29  34
BRANCH  28  36
ATOM     36  O   UNL     1       5.760  -3.907  21.451  0.00  0.00    -0.503 OA
ATOM     37  H   UNL     1       5.277  -3.077  21.264  0.00  0.00    +0.292 HD
ENDBRANCH  28  36
ENDBRANCH  24  26
ENDBRANCH  23  24
ENDBRANCH   4  23
BRANCH   3  38
ATOM     38  O   UNL     1       3.607  -1.939  28.195  0.00  0.00    -0.450 OA
BRANCH  38  39
ATOM     39  C   UNL     1       4.040  -2.598  29.296  0.00  0.00    +0.340 C 
ATOM     40  O   UNL     1       4.214  -2.114  30.403  0.00  0.00    -0.245 OA
BRANCH  39  41
ATOM     41  C   UNL     1       4.423  -3.985  28.944  0.00  0.00    +0.066 A 
ATOM     42  C   UNL     1       5.737  -4.322  28.590  0.00  0.00    +0.064 A 
ATOM     43  C   UNL     1       6.049  -5.648  28.339  0.00  0.00    +0.163 A 
ATOM     44  C   UNL     1       5.074  -6.633  28.431  0.00  0.00    +0.201 A 
ATOM     45  C   UNL     1       3.770  -6.301  28.785  0.00  0.00    +0.163 A 
ATOM     46  C   UNL     1       3.434  -4.980  29.047  0.00  0.00    +0.064 A 
BRANCH  45  47
ATOM     47  O   UNL     1       2.855  -7.314  28.873  0.00  0.00    -0.503 OA
ATOM     48  H   UNL     1       2.328  -7.321  28.052  0.00  0.00    +0.292 HD
ENDBRANCH  45  47
BRANCH  44  49
ATOM     49  O   UNL     1       5.415  -7.932  28.178  0.00  0.00    -0.501 OA
ATOM     50  H   UNL     1       5.002  -8.437  28.909  0.00  0.00    +0.292 HD
ENDBRANCH  44  49
BRANCH  43  51
ATOM     51  O   UNL     1       7.333  -5.979  28.009  0.00  0.00    -0.503 OA
ATOM     52  H   UNL     1       7.869  -5.652  28.760  0.00  0.00    +0.292 HD
ENDBRANCH  43  51
ENDBRANCH  39  41
ENDBRANCH  38  39
ENDBRANCH   3  38
BRANCH   5  53
ATOM     53  O   UNL     1       7.294  -1.125  25.875  0.00  0.00    -0.428 OA
BRANCH  53  54
ATOM     54  C   UNL     1       8.369  -1.660  25.260  0.00  0.00    +0.342 C 
ATOM     55  O   UNL     1       8.980  -2.661  25.575  0.00  0.00    -0.245 OA
BRANCH  54  56
ATOM     56  C   UNL     1       8.840  -0.658  24.271  0.00  0.00    +0.066 A 
ATOM     57  C   UNL     1       8.726  -0.949  22.901  0.00  0.00    +0.064 A 
ATOM     58  C   UNL     1       9.262  -0.058  21.979  0.00  0.00    +0.163 A 
ATOM     59  C   UNL     1       9.899   1.101  22.405  0.00  0.00    +0.201 A 
ATOM     60  C   UNL     1      10.037   1.371  23.762  0.00  0.00    +0.163 A 
ATOM     61  C   UNL     1       9.511   0.499  24.705  0.00  0.00    +0.064 A 
BRANCH  60  62
ATOM     62  O   UNL     1      10.711   2.504  24.121  0.00  0.00    -0.503 OA
ATOM     63  H   UNL     1      10.068   3.164  24.432  0.00  0.00    +0.292 HD
ENDBRANCH  60  62
BRANCH  59  64
ATOM     64  O   UNL     1      10.395   1.970  21.472  0.00  0.00    -0.501 OA
ATOM     65  H   UNL     1      11.228   2.305  21.867  0.00  0.00    +0.292 HD
ENDBRANCH  59  64
BRANCH  58  66
ATOM     66  O   UNL     1       9.170  -0.331  20.645  0.00  0.00    -0.503 OA
ATOM     67  H   UNL     1      10.078  -0.205  20.299  0.00  0.00    +0.292 HD
ENDBRANCH  58  66
ENDBRANCH  54  56
ENDBRANCH  53  54
ENDBRANCH   5  53
BRANCH   2  68
ATOM     68  O   UNL     1       4.234   1.002  28.495  0.00  0.00    -0.451 OA
BRANCH  68  69
ATOM     69  C   UNL     1       3.126   1.658  28.898  0.00  0.00    +0.340 C 
ATOM     70  O   UNL     1       2.291   1.234  29.679  0.00  0.00    -0.245 OA
BRANCH  69  71
ATOM     71  C   UNL     1       3.004   2.981  28.205  0.00  0.00    +0.066 A 
ATOM     72  C   UNL     1       4.046   3.926  28.165  0.00  0.00    +0.064 A 
ATOM     73  C   UNL     1       3.898   5.077  27.395  0.00  0.00    +0.163 A 
ATOM     74  C   UNL     1       2.721   5.319  26.702  0.00  0.00    +0.201 A 
ATOM     75  C   UNL     1       1.668   4.419  26.780  0.00  0.00    +0.163 A 
ATOM     76  C   UNL     1       1.803   3.243  27.517  0.00  0.00    +0.064 A 
BRANCH  75  77
ATOM     77  O   UNL     1       0.519   4.719  26.104  0.00  0.00    -0.503 OA
ATOM     78  H   UNL     1       0.707   4.697  25.149  0.00  0.00    +0.292 HD
ENDBRANCH  75  77
BRANCH  74  79
ATOM     79  O   UNL     1       2.615   6.448  25.935  0.00  0.00    -0.501 OA
ATOM     80  H   UNL     1       3.512   6.839  25.947  0.00  0.00    +0.292 HD
ENDBRANCH  74  79
BRANCH  73  81
ATOM     81  O   UNL     1       4.932   5.964  27.302  0.00  0.00    -0.503 OA
ATOM     82  H   UNL     1       5.136   6.011  26.346  0.00  0.00    +0.292 HD
ENDBRANCH  73  81
ENDBRANCH  69  71
ENDBRANCH  68  69
ENDBRANCH   2  68
TORSDOF 31
ENDMDL
