MODEL 1
REMARK VINA RESULT:      -4.3      0.000      0.000
REMARK  Name = 
REMARK  7 active torsions:
REMARK  status: ('A' for Active; 'I' for Inactive)
REMARK    1  A    between atoms: N_1  and  C_2
REMARK    2  A    between atoms: C_2  and  C_4
REMARK    3  A    between atoms: C_2  and  C_10
REMARK    4  A    between atoms: C_4  and  S_5
REMARK    5  A    between atoms: S_5  and  S_6
REMARK    6  A    between atoms: S_6  and  O_7
REMARK    7  A    between atoms: C_10  and  O_11
REMARK                            x       y       z     vdW  Elec       q    Type
REMARK                         _______ _______ _______ _____ _____    ______ ____
ROOT
ATOM      1  C   UNK     1       8.075  -5.339  25.626  0.00  0.00    +0.172 C 
ENDROOT
BRANCH   1   2
ATOM      2  N   UNK     1       8.111  -5.554  27.117  0.00  0.00    -0.318 NA
ATOM      3  H   UNK     1       9.088  -5.519  27.433  0.00  0.00    +0.119 HD
ATOM      4  H   UNK     1       7.676  -4.738  27.562  0.00  0.00    +0.119 HD
ENDBRANCH   1   2
BRANCH   1   5
ATOM      5  C   UNK     1       9.479  -4.861  25.193  0.00  0.00    +0.323 C 
ATOM      6  O   UNK     1       9.724  -3.957  24.416  0.00  0.00    -0.249 OA
BRANCH   5   7
ATOM      7  O   UNK     1      10.454  -5.603  25.788  0.00  0.00    -0.480 OA
ATOM      8  H   UNK     1      10.690  -6.311  25.139  0.00  0.00    +0.295 HD
ENDBRANCH   5   7
ENDBRANCH   1   5
BRANCH   1   9
ATOM      9  C   UNK     1       6.977  -4.332  25.254  0.00  0.00    +0.125 C 
BRANCH   9  10
ATOM     10  S   UNK     1       5.706  -5.009  24.149  0.00  0.00    +0.029 S 
BRANCH  10  11
ATOM     11  S   UNK     1       6.656  -4.874  22.311  0.00  0.00    +0.135 S 
ATOM     12  O   UNK     1       5.652  -4.535  21.330  0.00  0.00    -0.136 OA
ATOM     13  O   UNK     1       7.523  -6.016  22.159  0.00  0.00    -0.136 OA
BRANCH  11  14
ATOM     14  O   UNK     1       7.643  -3.605  22.440  0.00  0.00    -0.245 OA
ATOM     15  H   UNK     1       7.078  -2.821  22.608  0.00  0.00    +0.245 HD
ENDBRANCH  11  14
ENDBRANCH  10  11
ENDBRANCH   9  10
ENDBRANCH   1   9
TORSDOF 7
ENDMDL
MODEL 2
REMARK VINA RESULT:      -4.2      1.921      2.409
REMARK  Name = 
REMARK  7 active torsions:
REMARK  status: ('A' for Active; 'I' for Inactive)
REMARK    1  A    between atoms: N_1  and  C_2
REMARK    2  A    between atoms: C_2  and  C_4
REMARK    3  A    between atoms: C_2  and  C_10
REMARK    4  A    between atoms: C_4  and  S_5
REMARK    5  A    between atoms: S_5  and  S_6
REMARK    6  A    between atoms: S_6  and  O_7
REMARK    7  A    between atoms: C_10  and  O_11
REMARK                            x       y       z     vdW  Elec       q    Type
REMARK                         _______ _______ _______ _____ _____    ______ ____
ROOT
ATOM      1  C   UNK     1       8.993  -4.695  25.213  0.00  0.00    +0.172 C 
ENDROOT
BRANCH   1   2
ATOM      2  N   UNK     1      10.260  -5.492  25.386  0.00  0.00    -0.318 NA
ATOM      3  H   UNK     1      11.061  -4.900  25.133  0.00  0.00    +0.119 HD
ATOM      4  H   UNK     1      10.387  -5.666  26.389  0.00  0.00    +0.119 HD
ENDBRANCH   1   2
BRANCH   1   5
ATOM      5  C   UNK     1       8.197  -4.801  26.532  0.00  0.00    +0.323 C 
ATOM      6  O   UNK     1       7.676  -3.879  27.135  0.00  0.00    -0.249 OA
BRANCH   5   7
ATOM      7  O   UNK     1       8.152  -6.087  26.977  0.00  0.00    -0.480 OA
ATOM      8  H   UNK     1       8.527  -6.640  26.246  0.00  0.00    +0.295 HD
ENDBRANCH   5   7
ENDBRANCH   1   5
BRANCH   1   9
ATOM      9  C   UNK     1       8.194  -5.209  24.007  0.00  0.00    +0.125 C 
BRANCH   9  10
ATOM     10  S   UNK     1       6.691  -4.251  23.662  0.00  0.00    +0.029 S 
BRANCH  10  11
ATOM     11  S   UNK     1       6.168  -4.982  21.794  0.00  0.00    +0.135 S 
ATOM     12  O   UNK     1       7.251  -5.823  21.341  0.00  0.00    -0.136 OA
ATOM     13  O   UNK     1       5.659  -3.892  21.001  0.00  0.00    -0.136 OA
BRANCH  11  14
ATOM     14  O   UNK     1       4.900  -5.943  22.058  0.00  0.00    -0.245 OA
ATOM     15  H   UNK     1       4.958  -6.677  21.409  0.00  0.00    +0.245 HD
ENDBRANCH  11  14
ENDBRANCH  10  11
ENDBRANCH   9  10
ENDBRANCH   1   9
TORSDOF 7
ENDMDL
MODEL 3
REMARK VINA RESULT:      -4.2      3.613      4.545
REMARK  Name = 
REMARK  7 active torsions:
REMARK  status: ('A' for Active; 'I' for Inactive)
REMARK    1  A    between atoms: N_1  and  C_2
REMARK    2  A    between atoms: C_2  and  C_4
REMARK    3  A    between atoms: C_2  and  C_10
REMARK    4  A    between atoms: C_4  and  S_5
REMARK    5  A    between atoms: S_5  and  S_6
REMARK    6  A    between atoms: S_6  and  O_7
REMARK    7  A    between atoms: C_10  and  O_11
REMARK                            x       y       z     vdW  Elec       q    Type
REMARK                         _______ _______ _______ _____ _____    ______ ____
ROOT
ATOM      1  C   UNK     1       8.640  -1.758  22.994  0.00  0.00    +0.172 C 
ENDROOT
BRANCH   1   2
ATOM      2  N   UNK     1       7.764  -2.758  22.285  0.00  0.00    -0.318 NA
ATOM      3  H   UNK     1       6.929  -2.930  22.856  0.00  0.00    +0.119 HD
ATOM      4  H   UNK     1       7.398  -2.309  21.438  0.00  0.00    +0.119 HD
ENDBRANCH   1   2
BRANCH   1   5
ATOM      5  C   UNK     1       9.433  -0.989  21.913  0.00  0.00    +0.323 C 
ATOM      6  O   UNK     1       9.109   0.065  21.396  0.00  0.00    -0.249 OA
BRANCH   5   7
ATOM      7  O   UNK     1      10.573  -1.653  21.575  0.00  0.00    -0.480 OA
ATOM      8  H   UNK     1      10.632  -2.423  22.195  0.00  0.00    +0.295 HD
ENDBRANCH   5   7
ENDBRANCH   1   5
BRANCH   1   9
ATOM      9  C   UNK     1       9.561  -2.465  23.999  0.00  0.00    +0.125 C 
BRANCH   9  10
ATOM     10  S   UNK     1       8.700  -3.080  25.474  0.00  0.00    +0.029 S 
BRANCH  10  11
ATOM     11  S   UNK     1       8.812  -5.129  25.180  0.00  0.00    +0.135 S 
ATOM     12  O   UNK     1       8.523  -5.381  23.788  0.00  0.00    -0.136 OA
ATOM     13  O   UNK     1       8.095  -5.785  26.244  0.00  0.00    -0.136 OA
BRANCH  11  14
ATOM     14  O   UNK     1      10.363  -5.504  25.418  0.00  0.00    -0.245 OA
ATOM     15  H   UNK     1      10.727  -5.775  24.549  0.00  0.00    +0.245 HD
ENDBRANCH  11  14
ENDBRANCH  10  11
ENDBRANCH   9  10
ENDBRANCH   1   9
TORSDOF 7
ENDMDL
MODEL 4
REMARK VINA RESULT:      -4.2      4.610      5.464
REMARK  Name = 
REMARK  7 active torsions:
REMARK  status: ('A' for Active; 'I' for Inactive)
REMARK    1  A    between atoms: N_1  and  C_2
REMARK    2  A    between atoms: C_2  and  C_4
REMARK    3  A    between atoms: C_2  and  C_10
REMARK    4  A    between atoms: C_4  and  S_5
REMARK    5  A    between atoms: S_5  and  S_6
REMARK    6  A    between atoms: S_6  and  O_7
REMARK    7  A    between atoms: C_10  and  O_11
REMARK                            x       y       z     vdW  Elec       q    Type
REMARK                         _______ _______ _______ _____ _____    ______ ____
ROOT
ATOM      1  C   UNK     1       9.165  -0.347  21.755  0.00  0.00    +0.172 C 
ENDROOT
BRANCH   1   2
ATOM      2  N   UNK     1      10.197  -1.412  21.487  0.00  0.00    -0.318 NA
ATOM      3  H   UNK     1      10.922  -1.360  22.212  0.00  0.00    +0.119 HD
ATOM      4  H   UNK     1       9.754  -2.324  21.642  0.00  0.00    +0.119 HD
ENDBRANCH   1   2
BRANCH   1   5
ATOM      5  C   UNK     1       9.911   0.897  22.286  0.00  0.00    +0.323 C 
ATOM      6  O   UNK     1      10.503   0.983  23.346  0.00  0.00    -0.249 OA
BRANCH   5   7
ATOM      7  O   UNK     1       9.817   1.936  21.410  0.00  0.00    -0.480 OA
ATOM      8  H   UNK     1       9.162   1.654  20.723  0.00  0.00    +0.295 HD
ENDBRANCH   5   7
ENDBRANCH   1   5
BRANCH   1   9
ATOM      9  C   UNK     1       8.108  -0.859  22.744  0.00  0.00    +0.125 C 
BRANCH   9  10
ATOM     10  S   UNK     1       7.721  -2.623  22.556  0.00  0.00    +0.029 S 
BRANCH  10  11
ATOM     11  S   UNK     1       8.766  -3.437  24.151  0.00  0.00    +0.135 S 
ATOM     12  O   UNK     1       8.046  -3.097  25.356  0.00  0.00    -0.136 OA
ATOM     13  O   UNK     1      10.165  -3.137  23.982  0.00  0.00    -0.136 OA
BRANCH  11  14
ATOM     14  O   UNK     1       8.647  -5.034  23.960  0.00  0.00    -0.245 OA
ATOM     15  H   UNK     1       8.997  -5.445  24.779  0.00  0.00    +0.245 HD
ENDBRANCH  11  14
ENDBRANCH  10  11
ENDBRANCH   9  10
ENDBRANCH   1   9
TORSDOF 7
ENDMDL
MODEL 5
REMARK VINA RESULT:      -4.2      5.075      5.849
REMARK  Name = 
REMARK  7 active torsions:
REMARK  status: ('A' for Active; 'I' for Inactive)
REMARK    1  A    between atoms: N_1  and  C_2
REMARK    2  A    between atoms: C_2  and  C_4
REMARK    3  A    between atoms: C_2  and  C_10
REMARK    4  A    between atoms: C_4  and  S_5
REMARK    5  A    between atoms: S_5  and  S_6
REMARK    6  A    between atoms: S_6  and  O_7
REMARK    7  A    between atoms: C_10  and  O_11
REMARK                            x       y       z     vdW  Elec       q    Type
REMARK                         _______ _______ _______ _____ _____    ______ ____
ROOT
ATOM      1  C   UNK     1       9.122   1.211  23.385  0.00  0.00    +0.172 C 
ENDROOT
BRANCH   1   2
ATOM      2  N   UNK     1       7.716   0.676  23.468  0.00  0.00    -0.318 NA
ATOM      3  H   UNK     1       7.166   1.068  22.694  0.00  0.00    +0.119 HD
ATOM      4  H   UNK     1       7.750  -0.329  23.265  0.00  0.00    +0.119 HD
ENDBRANCH   1   2
BRANCH   1   5
ATOM      5  C   UNK     1       9.548   1.163  21.901  0.00  0.00    +0.323 C 
ATOM      6  O   UNK     1       9.383   0.231  21.135  0.00  0.00    -0.249 OA
BRANCH   5   7
ATOM      7  O   UNK     1      10.168   2.317  21.530  0.00  0.00    -0.480 OA
ATOM      8  H   UNK     1      11.078   2.273  21.918  0.00  0.00    +0.295 HD
ENDBRANCH   5   7
ENDBRANCH   1   5
BRANCH   1   9
ATOM      9  C   UNK     1      10.061   0.399  24.287  0.00  0.00    +0.125 C 
BRANCH   9  10
ATOM     10  S   UNK     1       9.257  -1.009  25.104  0.00  0.00    +0.029 S 
BRANCH  10  11
ATOM     11  S   UNK     1       9.443  -2.477  23.652  0.00  0.00    +0.135 S 
ATOM     12  O   UNK     1       8.242  -2.445  22.851  0.00  0.00    -0.136 OA
ATOM     13  O   UNK     1       9.916  -3.685  24.278  0.00  0.00    -0.136 OA
BRANCH  11  14
ATOM     14  O   UNK     1      10.656  -1.984  22.709  0.00  0.00    -0.245 OA
ATOM     15  H   UNK     1      11.441  -2.519  22.952  0.00  0.00    +0.245 HD
ENDBRANCH  11  14
ENDBRANCH  10  11
ENDBRANCH   9  10
ENDBRANCH   1   9
TORSDOF 7
ENDMDL
MODEL 6
REMARK VINA RESULT:      -4.1      2.901      3.423
REMARK  Name = 
REMARK  7 active torsions:
REMARK  status: ('A' for Active; 'I' for Inactive)
REMARK    1  A    between atoms: N_1  and  C_2
REMARK    2  A    between atoms: C_2  and  C_4
REMARK    3  A    between atoms: C_2  and  C_10
REMARK    4  A    between atoms: C_4  and  S_5
REMARK    5  A    between atoms: S_5  and  S_6
REMARK    6  A    between atoms: S_6  and  O_7
REMARK    7  A    between atoms: C_10  and  O_11
REMARK                            x       y       z     vdW  Elec       q    Type
REMARK                         _______ _______ _______ _____ _____    ______ ____
ROOT
ATOM      1  C   UNK     1       9.075  -4.640  25.588  0.00  0.00    +0.172 C 
ENDROOT
BRANCH   1   2
ATOM      2  N   UNK     1       9.987  -5.806  25.305  0.00  0.00    -0.318 NA
ATOM      3  H   UNK     1       9.761  -6.568  25.955  0.00  0.00    +0.119 HD
ATOM      4  H   UNK     1       9.738  -6.182  24.384  0.00  0.00    +0.119 HD
ENDBRANCH   1   2
BRANCH   1   5
ATOM      5  C   UNK     1       7.802  -5.201  26.260  0.00  0.00    +0.323 C 
ATOM      6  O   UNK     1       6.659  -5.064  25.864  0.00  0.00    -0.249 OA
BRANCH   5   7
ATOM      7  O   UNK     1       8.108  -5.880  27.400  0.00  0.00    -0.480 OA
ATOM      8  H   UNK     1       8.971  -6.332  27.224  0.00  0.00    +0.295 HD
ENDBRANCH   5   7
ENDBRANCH   1   5
BRANCH   1   9
ATOM      9  C   UNK     1       8.762  -3.875  24.295  0.00  0.00    +0.125 C 
BRANCH   9  10
ATOM     10  S   UNK     1       9.637  -2.291  24.149  0.00  0.00    +0.029 S 
BRANCH  10  11
ATOM     11  S   UNK     1       8.825  -1.542  22.395  0.00  0.00    +0.135 S 
ATOM     12  O   UNK     1       8.485  -0.159  22.633  0.00  0.00    -0.136 OA
ATOM     13  O   UNK     1       7.865  -2.492  21.891  0.00  0.00    -0.136 OA
BRANCH  11  14
ATOM     14  O   UNK     1      10.037  -1.557  21.331  0.00  0.00    -0.245 OA
ATOM     15  H   UNK     1      10.177  -2.493  21.072  0.00  0.00    +0.245 HD
ENDBRANCH  11  14
ENDBRANCH  10  11
ENDBRANCH   9  10
ENDBRANCH   1   9
TORSDOF 7
ENDMDL
MODEL 7
REMARK VINA RESULT:      -4.1      5.748      6.665
REMARK  Name = 
REMARK  7 active torsions:
REMARK  status: ('A' for Active; 'I' for Inactive)
REMARK    1  A    between atoms: N_1  and  C_2
REMARK    2  A    between atoms: C_2  and  C_4
REMARK    3  A    between atoms: C_2  and  C_10
REMARK    4  A    between atoms: C_4  and  S_5
REMARK    5  A    between atoms: S_5  and  S_6
REMARK    6  A    between atoms: S_6  and  O_7
REMARK    7  A    between atoms: C_10  and  O_11
REMARK                            x       y       z     vdW  Elec       q    Type
REMARK                         _______ _______ _______ _____ _____    ______ ____
ROOT
ATOM      1  C   UNK     1       8.504  -0.983  23.125  0.00  0.00    +0.172 C 
ENDROOT
BRANCH   1   2
ATOM      2  N   UNK     1       8.894  -0.860  24.575  0.00  0.00    -0.318 NA
ATOM      3  H   UNK     1       9.911  -0.977  24.655  0.00  0.00    +0.119 HD
ATOM      4  H   UNK     1       8.732   0.112  24.862  0.00  0.00    +0.119 HD
ENDBRANCH   1   2
BRANCH   1   5
ATOM      5  C   UNK     1       9.760  -1.432  22.345  0.00  0.00    +0.323 C 
ATOM      6  O   UNK     1      10.577  -2.257  22.709  0.00  0.00    -0.249 OA
BRANCH   5   7
ATOM      7  O   UNK     1       9.868  -0.764  21.163  0.00  0.00    -0.480 OA
ATOM      8  H   UNK     1       8.977  -0.822  20.735  0.00  0.00    +0.295 HD
ENDBRANCH   5   7
ENDBRANCH   1   5
BRANCH   1   9
ATOM      9  C   UNK     1       7.940   0.347  22.605  0.00  0.00    +0.125 C 
BRANCH   9  10
ATOM     10  S   UNK     1       8.120   1.726  23.771  0.00  0.00    +0.029 S 
BRANCH  10  11
ATOM     11  S   UNK     1      10.041   2.371  23.338  0.00  0.00    +0.135 S 
ATOM     12  O   UNK     1      10.957   1.462  23.985  0.00  0.00    -0.136 OA
ATOM     13  O   UNK     1      10.104   3.797  23.541  0.00  0.00    -0.136 OA
BRANCH  11  14
ATOM     14  O   UNK     1      10.207   2.161  21.748  0.00  0.00    -0.245 OA
ATOM     15  H   UNK     1       9.393   2.513  21.328  0.00  0.00    +0.245 HD
ENDBRANCH  11  14
ENDBRANCH  10  11
ENDBRANCH   9  10
ENDBRANCH   1   9
TORSDOF 7
ENDMDL
MODEL 8
REMARK VINA RESULT:      -4.0      5.669      6.516
REMARK  Name = 
REMARK  7 active torsions:
REMARK  status: ('A' for Active; 'I' for Inactive)
REMARK    1  A    between atoms: N_1  and  C_2
REMARK    2  A    between atoms: C_2  and  C_4
REMARK    3  A    between atoms: C_2  and  C_10
REMARK    4  A    between atoms: C_4  and  S_5
REMARK    5  A    between atoms: S_5  and  S_6
REMARK    6  A    between atoms: S_6  and  O_7
REMARK    7  A    between atoms: C_10  and  O_11
REMARK                            x       y       z     vdW  Elec       q    Type
REMARK                         _______ _______ _______ _____ _____    ______ ____
ROOT
ATOM      1  C   UNK     1      10.307  -1.432  22.667  0.00  0.00    +0.172 C 
ENDROOT
BRANCH   1   2
ATOM      2  N   UNK     1       9.738  -0.912  21.373  0.00  0.00    -0.318 NA
ATOM      3  H   UNK     1       8.726  -1.087  21.361  0.00  0.00    +0.119 HD
ATOM      4  H   UNK     1       9.813   0.112  21.386  0.00  0.00    +0.119 HD
ENDBRANCH   1   2
BRANCH   1   5
ATOM      5  C   UNK     1       9.347  -2.525  23.188  0.00  0.00    +0.323 C 
ATOM      6  O   UNK     1       8.185  -2.678  22.860  0.00  0.00    -0.249 OA
BRANCH   5   7
ATOM      7  O   UNK     1       9.963  -3.322  24.105  0.00  0.00    -0.480 OA
ATOM      8  H   UNK     1       9.238  -3.803  24.577  0.00  0.00    +0.295 HD
ENDBRANCH   5   7
ENDBRANCH   1   5
BRANCH   1   9
ATOM      9  C   UNK     1      10.487  -0.287  23.674  0.00  0.00    +0.125 C 
BRANCH   9  10
ATOM     10  S   UNK     1       9.009   0.747  23.881  0.00  0.00    +0.029 S 
BRANCH  10  11
ATOM     11  S   UNK     1       9.629   2.517  22.998  0.00  0.00    +0.135 S 
ATOM     12  O   UNK     1      10.905   2.864  23.578  0.00  0.00    -0.136 OA
ATOM     13  O   UNK     1       8.518   3.434  22.980  0.00  0.00    -0.136 OA
BRANCH  11  14
ATOM     14  O   UNK     1       9.896   2.143  21.452  0.00  0.00    -0.245 OA
ATOM     15  H   UNK     1      10.780   2.501  21.221  0.00  0.00    +0.245 HD
ENDBRANCH  11  14
ENDBRANCH  10  11
ENDBRANCH   9  10
ENDBRANCH   1   9
TORSDOF 7
ENDMDL
MODEL 9
REMARK VINA RESULT:      -4.0      6.308      6.978
REMARK  Name = 
REMARK  7 active torsions:
REMARK  status: ('A' for Active; 'I' for Inactive)
REMARK    1  A    between atoms: N_1  and  C_2
REMARK    2  A    between atoms: C_2  and  C_4
REMARK    3  A    between atoms: C_2  and  C_10
REMARK    4  A    between atoms: C_4  and  S_5
REMARK    5  A    between atoms: S_5  and  S_6
REMARK    6  A    between atoms: S_6  and  O_7
REMARK    7  A    between atoms: C_10  and  O_11
REMARK                            x       y       z     vdW  Elec       q    Type
REMARK                         _______ _______ _______ _____ _____    ______ ____
ROOT
ATOM      1  C   UNK     1       9.747   1.860  23.126  0.00  0.00    +0.172 C 
ENDROOT
BRANCH   1   2
ATOM      2  N   UNK     1       9.939   1.763  21.635  0.00  0.00    -0.318 NA
ATOM      3  H   UNK     1      10.208   2.687  21.275  0.00  0.00    +0.119 HD
ATOM      4  H   UNK     1      10.764   1.178  21.462  0.00  0.00    +0.119 HD
ENDBRANCH   1   2
BRANCH   1   5
ATOM      5  C   UNK     1      10.072   3.312  23.541  0.00  0.00    +0.323 C 
ATOM      6  O   UNK     1       9.394   4.025  24.259  0.00  0.00    -0.249 OA
BRANCH   5   7
ATOM      7  O   UNK     1      11.239   3.733  22.980  0.00  0.00    -0.480 OA
ATOM      8  H   UNK     1      11.242   3.374  22.057  0.00  0.00    +0.295 HD
ENDBRANCH   5   7
ENDBRANCH   1   5
BRANCH   1   9
ATOM      9  C   UNK     1      10.632   0.836  23.850  0.00  0.00    +0.125 C 
BRANCH   9  10
ATOM     10  S   UNK     1       9.698  -0.469  24.700  0.00  0.00    +0.029 S 
BRANCH  10  11
ATOM     11  S   UNK     1       9.773  -1.995  23.298  0.00  0.00    +0.135 S 
ATOM     12  O   UNK     1      10.124  -3.207  23.999  0.00  0.00    -0.136 OA
ATOM     13  O   UNK     1      10.512  -1.529  22.152  0.00  0.00    -0.136 OA
BRANCH  11  14
ATOM     14  O   UNK     1       8.254  -2.167  22.783  0.00  0.00    -0.245 OA
ATOM     15  H   UNK     1       7.698  -1.576  23.333  0.00  0.00    +0.245 HD
ENDBRANCH  11  14
ENDBRANCH  10  11
ENDBRANCH   9  10
ENDBRANCH   1   9
TORSDOF 7
ENDMDL
