MODEL 1
REMARK VINA RESULT:      -7.1      0.000      0.000
REMARK  Name = 
REMARK  5 active torsions:
REMARK  status: ('A' for Active; 'I' for Inactive)
REMARK    1  A    between atoms: C_2  and  C_3
REMARK    2  A    between atoms: C_2  and  C_5
REMARK    3  A    between atoms: C_2  and  C_11
REMARK    4  A    between atoms: C_3  and  C_4
REMARK    5  A    between atoms: C_12  and  O_13
REMARK                            x       y       z     vdW  Elec       q    Type
REMARK                         _______ _______ _______ _____ _____    ______ ____
ROOT
ATOM      1  C   UNL     1       8.339  -2.089  23.726  0.00  0.00    +0.086 A 
ATOM      2  C   UNL     1       9.758  -1.962  23.276  0.00  0.00    +0.344 A 
ATOM      3  O   UNL     1      10.568  -2.872  23.435  0.00  0.00    -0.245 OA
ATOM      4  O   UNL     1      10.154  -0.773  22.725  0.00  0.00    -0.427 OA
ATOM      5  C   UNL     1       9.239   0.273  22.494  0.00  0.00    +0.116 A 
ATOM      6  C   UNL     1       9.818   1.504  21.860  0.00  0.00    +0.075 C 
ATOM      7  C   UNL     1      10.425   2.509  22.838  0.00  0.00    +0.008 C 
ATOM      8  C   UNL     1       9.655   3.025  24.068  0.00  0.00    +0.000 C 
ATOM      9  C   UNL     1       8.291   2.475  24.495  0.00  0.00    +0.000 C 
ATOM     10  C   UNL     1       7.191   2.541  23.432  0.00  0.00    +0.005 C 
ATOM     11  C   UNL     1       6.959   1.275  22.589  0.00  0.00    +0.042 C 
ATOM     12  C   UNL     1       7.944   0.154  22.831  0.00  0.00    +0.033 A 
ATOM     13  C   UNL     1       7.522  -1.036  23.530  0.00  0.00    +0.134 A 
ENDROOT
BRANCH  13  14
ATOM     14  O   UNL     1       6.247  -0.941  24.030  0.00  0.00    -0.506 OA
ATOM     15  H   UNL     1       5.685  -0.469  23.403  0.00  0.00    +0.292 HD
ENDBRANCH  13  14
BRANCH   1  16
ATOM     16  C   UNL     1       7.980  -3.424  24.393  0.00  0.00    +0.059 C 
BRANCH  16  17
ATOM     17  C   UNL     1       7.026  -4.283  23.553  0.00  0.00    -0.040 A 
ATOM     18  C   UNL     1       5.631  -4.288  23.728  0.00  0.00    +0.004 A 
ATOM     19  C   UNL     1       4.813  -5.142  22.986  0.00  0.00    +0.000 A 
ATOM     20  C   UNL     1       5.373  -6.017  22.062  0.00  0.00    +0.000 A 
ATOM     21  C   UNL     1       6.750  -6.017  21.856  0.00  0.00    +0.000 A 
ATOM     22  C   UNL     1       7.568  -5.149  22.585  0.00  0.00    +0.004 A 
ENDBRANCH  16  17
BRANCH  16  23
ATOM     23  C   UNL     1       7.559  -3.236  25.873  0.00  0.00    +0.010 C 
ATOM     24  C   UNL     1       7.814  -4.470  26.735  0.00  0.00    +0.005 C 
ENDBRANCH  16  23
ENDBRANCH   1  16
TORSDOF 4
ENDMDL
MODEL 2
REMARK VINA RESULT:      -6.6      1.819      3.570
REMARK  Name = 
REMARK  5 active torsions:
REMARK  status: ('A' for Active; 'I' for Inactive)
REMARK    1  A    between atoms: C_2  and  C_3
REMARK    2  A    between atoms: C_2  and  C_5
REMARK    3  A    between atoms: C_2  and  C_11
REMARK    4  A    between atoms: C_3  and  C_4
REMARK    5  A    between atoms: C_12  and  O_13
REMARK                            x       y       z     vdW  Elec       q    Type
REMARK                         _______ _______ _______ _____ _____    ______ ____
ROOT
ATOM      1  C   UNL     1       7.005  -2.754  24.037  0.00  0.00    +0.086 A 
ATOM      2  C   UNL     1       6.259  -2.144  22.894  0.00  0.00    +0.344 A 
ATOM      3  O   UNL     1       5.481  -2.803  22.209  0.00  0.00    -0.245 OA
ATOM      4  O   UNL     1       6.508  -0.832  22.591  0.00  0.00    -0.427 OA
ATOM      5  C   UNL     1       7.365  -0.043  23.383  0.00  0.00    +0.116 A 
ATOM      6  C   UNL     1       7.517   1.383  22.938  0.00  0.00    +0.075 C 
ATOM      7  C   UNL     1       8.594   1.617  21.880  0.00  0.00    +0.008 C 
ATOM      8  C   UNL     1      10.036   1.101  22.048  0.00  0.00    +0.000 C 
ATOM      9  C   UNL     1      10.473   0.196  23.202  0.00  0.00    +0.000 C 
ATOM     10  C   UNL     1      10.210   0.745  24.608  0.00  0.00    +0.005 C 
ATOM     11  C   UNL     1       8.917   0.288  25.304  0.00  0.00    +0.042 C 
ATOM     12  C   UNL     1       7.993  -0.554  24.454  0.00  0.00    +0.033 A 
ATOM     13  C   UNL     1       7.853  -1.965  24.725  0.00  0.00    +0.134 A 
ENDROOT
BRANCH  13  14
ATOM     14  O   UNL     1       8.722  -2.416  25.688  0.00  0.00    -0.506 OA
ATOM     15  H   UNL     1       8.729  -1.802  26.433  0.00  0.00    +0.292 HD
ENDBRANCH  13  14
BRANCH   1  16
ATOM     16  C   UNL     1       6.726  -4.243  24.281  0.00  0.00    +0.059 C 
BRANCH  16  17
ATOM     17  C   UNL     1       6.313  -4.554  25.725  0.00  0.00    -0.040 A 
ATOM     18  C   UNL     1       5.200  -3.970  26.354  0.00  0.00    +0.004 A 
ATOM     19  C   UNL     1       4.908  -4.232  27.695  0.00  0.00    +0.000 A 
ATOM     20  C   UNL     1       5.731  -5.073  28.437  0.00  0.00    +0.000 A 
ATOM     21  C   UNL     1       6.828  -5.678  27.830  0.00  0.00    +0.000 A 
ATOM     22  C   UNL     1       7.109  -5.432  26.483  0.00  0.00    +0.004 A 
ENDBRANCH  16  17
BRANCH  16  23
ATOM     23  C   UNL     1       7.857  -5.142  23.717  0.00  0.00    +0.010 C 
ATOM     24  C   UNL     1       7.487  -5.822  22.401  0.00  0.00    +0.005 C 
ENDBRANCH  16  23
ENDBRANCH   1  16
TORSDOF 4
ENDMDL
MODEL 3
REMARK VINA RESULT:      -6.6      1.680      2.295
REMARK  Name = 
REMARK  5 active torsions:
REMARK  status: ('A' for Active; 'I' for Inactive)
REMARK    1  A    between atoms: C_2  and  C_3
REMARK    2  A    between atoms: C_2  and  C_5
REMARK    3  A    between atoms: C_2  and  C_11
REMARK    4  A    between atoms: C_3  and  C_4
REMARK    5  A    between atoms: C_12  and  O_13
REMARK                            x       y       z     vdW  Elec       q    Type
REMARK                         _______ _______ _______ _____ _____    ______ ____
ROOT
ATOM      1  C   UNL     1       7.699  -2.055  24.449  0.00  0.00    +0.086 A 
ATOM      2  C   UNL     1       8.507  -1.576  25.612  0.00  0.00    +0.344 A 
ATOM      3  O   UNL     1       8.290  -1.974  26.754  0.00  0.00    -0.245 OA
ATOM      4  O   UNL     1       9.470  -0.630  25.381  0.00  0.00    -0.427 OA
ATOM      5  C   UNL     1       9.767  -0.185  24.078  0.00  0.00    +0.116 A 
ATOM      6  C   UNL     1      10.865   0.833  23.982  0.00  0.00    +0.075 C 
ATOM      7  C   UNL     1      10.418   2.282  24.168  0.00  0.00    +0.008 C 
ATOM      8  C   UNL     1       9.247   2.889  23.371  0.00  0.00    +0.000 C 
ATOM      9  C   UNL     1       8.349   2.067  22.445  0.00  0.00    +0.000 C 
ATOM     10  C   UNL     1       9.072   1.299  21.334  0.00  0.00    +0.005 C 
ATOM     11  C   UNL     1       9.410  -0.175  21.611  0.00  0.00    +0.042 C 
ATOM     12  C   UNL     1       9.098  -0.653  23.011  0.00  0.00    +0.033 A 
ATOM     13  C   UNL     1       7.991  -1.553  23.234  0.00  0.00    +0.134 A 
ENDROOT
BRANCH  13  14
ATOM     14  O   UNL     1       7.240  -1.770  22.105  0.00  0.00    -0.506 OA
ATOM     15  H   UNL     1       7.355  -2.681  21.808  0.00  0.00    +0.292 HD
ENDBRANCH  13  14
BRANCH   1  16
ATOM     16  C   UNL     1       6.595  -3.065  24.790  0.00  0.00    +0.059 C 
BRANCH  16  17
ATOM     17  C   UNL     1       6.554  -4.263  23.833  0.00  0.00    -0.040 A 
ATOM     18  C   UNL     1       7.692  -5.003  23.470  0.00  0.00    +0.004 A 
ATOM     19  C   UNL     1       7.612  -6.041  22.538  0.00  0.00    +0.000 A 
ATOM     20  C   UNL     1       6.395  -6.352  21.942  0.00  0.00    +0.000 A 
ATOM     21  C   UNL     1       5.250  -5.646  22.301  0.00  0.00    +0.000 A 
ATOM     22  C   UNL     1       5.325  -4.621  23.247  0.00  0.00    +0.004 A 
ENDBRANCH  16  17
BRANCH  16  23
ATOM     23  C   UNL     1       5.230  -2.370  25.026  0.00  0.00    +0.010 C 
ATOM     24  C   UNL     1       4.699  -2.549  26.446  0.00  0.00    +0.005 C 
ENDBRANCH  16  23
ENDBRANCH   1  16
TORSDOF 4
ENDMDL
MODEL 4
REMARK VINA RESULT:      -6.6      1.270      2.625
REMARK  Name = 
REMARK  5 active torsions:
REMARK  status: ('A' for Active; 'I' for Inactive)
REMARK    1  A    between atoms: C_2  and  C_3
REMARK    2  A    between atoms: C_2  and  C_5
REMARK    3  A    between atoms: C_2  and  C_11
REMARK    4  A    between atoms: C_3  and  C_4
REMARK    5  A    between atoms: C_12  and  O_13
REMARK                            x       y       z     vdW  Elec       q    Type
REMARK                         _______ _______ _______ _____ _____    ______ ____
ROOT
ATOM      1  C   UNL     1       8.415  -2.256  24.322  0.00  0.00    +0.086 A 
ATOM      2  C   UNL     1       7.264  -1.598  25.012  0.00  0.00    +0.344 A 
ATOM      3  O   UNL     1       6.357  -2.255  25.517  0.00  0.00    -0.245 OA
ATOM      4  O   UNL     1       7.215  -0.230  25.020  0.00  0.00    -0.427 OA
ATOM      5  C   UNL     1       8.260   0.547  24.483  0.00  0.00    +0.116 A 
ATOM      6  C   UNL     1       8.075   2.032  24.589  0.00  0.00    +0.075 C 
ATOM      7  C   UNL     1       7.277   2.666  23.451  0.00  0.00    +0.008 C 
ATOM      8  C   UNL     1       7.620   2.417  21.970  0.00  0.00    +0.000 C 
ATOM      9  C   UNL     1       8.682   1.414  21.513  0.00  0.00    +0.000 C 
ATOM     10  C   UNL     1      10.084   1.627  22.091  0.00  0.00    +0.005 C 
ATOM     11  C   UNL     1      10.457   0.804  23.336  0.00  0.00    +0.042 C 
ATOM     12  C   UNL     1       9.335  -0.025  23.917  0.00  0.00    +0.033 A 
ATOM     13  C   UNL     1       9.357  -1.461  23.778  0.00  0.00    +0.134 A 
ENDROOT
BRANCH  13  14
ATOM     14  O   UNL     1      10.380  -1.908  22.978  0.00  0.00    -0.506 OA
ATOM     15  H   UNL     1      10.948  -1.168  22.732  0.00  0.00    +0.292 HD
ENDBRANCH  13  14
BRANCH   1  16
ATOM     16  C   UNL     1       8.372  -3.790  24.294  0.00  0.00    +0.059 C 
BRANCH  16  17
ATOM     17  C   UNL     1       7.590  -4.353  23.100  0.00  0.00    -0.040 A 
ATOM     18  C   UNL     1       6.868  -3.550  22.200  0.00  0.00    +0.004 A 
ATOM     19  C   UNL     1       6.114  -4.118  21.171  0.00  0.00    +0.000 A 
ATOM     20  C   UNL     1       6.058  -5.501  21.027  0.00  0.00    +0.000 A 
ATOM     21  C   UNL     1       6.781  -6.315  21.894  0.00  0.00    +0.000 A 
ATOM     22  C   UNL     1       7.552  -5.747  22.912  0.00  0.00    +0.004 A 
ENDBRANCH  16  17
BRANCH  16  23
ATOM     23  C   UNL     1       7.976  -4.381  25.671  0.00  0.00    +0.010 C 
ATOM     24  C   UNL     1       9.159  -4.535  26.625  0.00  0.00    +0.005 C 
ENDBRANCH  16  23
ENDBRANCH   1  16
TORSDOF 4
ENDMDL
MODEL 5
REMARK VINA RESULT:      -6.6      1.118      1.611
REMARK  Name = 
REMARK  5 active torsions:
REMARK  status: ('A' for Active; 'I' for Inactive)
REMARK    1  A    between atoms: C_2  and  C_3
REMARK    2  A    between atoms: C_2  and  C_5
REMARK    3  A    between atoms: C_2  and  C_11
REMARK    4  A    between atoms: C_3  and  C_4
REMARK    5  A    between atoms: C_12  and  O_13
REMARK                            x       y       z     vdW  Elec       q    Type
REMARK                         _______ _______ _______ _____ _____    ______ ____
ROOT
ATOM      1  C   UNL     1       7.935  -3.016  24.337  0.00  0.00    +0.086 A 
ATOM      2  C   UNL     1       9.404  -3.037  24.060  0.00  0.00    +0.344 A 
ATOM      3  O   UNL     1      10.105  -3.993  24.381  0.00  0.00    -0.245 OA
ATOM      4  O   UNL     1       9.966  -1.929  23.484  0.00  0.00    -0.427 OA
ATOM      5  C   UNL     1       9.181  -0.836  23.069  0.00  0.00    +0.116 A 
ATOM      6  C   UNL     1       9.937   0.292  22.430  0.00  0.00    +0.075 C 
ATOM      7  C   UNL     1      10.509   1.319  23.406  0.00  0.00    +0.008 C 
ATOM      8  C   UNL     1       9.647   1.989  24.492  0.00  0.00    +0.000 C 
ATOM      9  C   UNL     1       8.199   1.584  24.781  0.00  0.00    +0.000 C 
ATOM     10  C   UNL     1       7.244   1.653  23.586  0.00  0.00    +0.005 C 
ATOM     11  C   UNL     1       7.003   0.347  22.810  0.00  0.00    +0.042 C 
ATOM     12  C   UNL     1       7.850  -0.825  23.248  0.00  0.00    +0.033 A 
ATOM     13  C   UNL     1       7.244  -1.920  23.969  0.00  0.00    +0.134 A 
ENDROOT
BRANCH  13  14
ATOM     14  O   UNL     1       5.931  -1.685  24.298  0.00  0.00    -0.506 OA
ATOM     15  H   UNL     1       5.887  -1.141  25.094  0.00  0.00    +0.292 HD
ENDBRANCH  13  14
BRANCH   1  16
ATOM     16  C   UNL     1       7.384  -4.262  25.043  0.00  0.00    +0.059 C 
BRANCH  16  17
ATOM     17  C   UNL     1       6.178  -4.881  24.324  0.00  0.00    -0.040 A 
ATOM     18  C   UNL     1       6.237  -5.398  23.018  0.00  0.00    +0.004 A 
ATOM     19  C   UNL     1       5.093  -5.886  22.382  0.00  0.00    +0.000 A 
ATOM     20  C   UNL     1       3.865  -5.856  23.034  0.00  0.00    +0.000 A 
ATOM     21  C   UNL     1       3.786  -5.368  24.336  0.00  0.00    +0.000 A 
ATOM     22  C   UNL     1       4.933  -4.898  24.980  0.00  0.00    +0.004 A 
ENDBRANCH  16  17
BRANCH  16  23
ATOM     23  C   UNL     1       7.187  -4.025  26.562  0.00  0.00    +0.010 C 
ATOM     24  C   UNL     1       7.335  -5.296  27.396  0.00  0.00    +0.005 C 
ENDBRANCH  16  23
ENDBRANCH   1  16
TORSDOF 4
ENDMDL
MODEL 6
REMARK VINA RESULT:      -6.5      1.296      2.845
REMARK  Name = 
REMARK  5 active torsions:
REMARK  status: ('A' for Active; 'I' for Inactive)
REMARK    1  A    between atoms: C_2  and  C_3
REMARK    2  A    between atoms: C_2  and  C_5
REMARK    3  A    between atoms: C_2  and  C_11
REMARK    4  A    between atoms: C_3  and  C_4
REMARK    5  A    between atoms: C_12  and  O_13
REMARK                            x       y       z     vdW  Elec       q    Type
REMARK                         _______ _______ _______ _____ _____    ______ ____
ROOT
ATOM      1  C   UNL     1       7.863  -2.821  23.512  0.00  0.00    +0.086 A 
ATOM      2  C   UNL     1       9.309  -2.807  23.889  0.00  0.00    +0.344 A 
ATOM      3  O   UNL     1       9.851  -3.787  24.394  0.00  0.00    -0.245 OA
ATOM      4  O   UNL     1      10.010  -1.645  23.708  0.00  0.00    -0.427 OA
ATOM      5  C   UNL     1       9.425  -0.520  23.096  0.00  0.00    +0.116 A 
ATOM      6  C   UNL     1      10.327   0.669  22.943  0.00  0.00    +0.075 C 
ATOM      7  C   UNL     1      10.381   1.597  24.155  0.00  0.00    +0.008 C 
ATOM      8  C   UNL     1       9.109   2.152  24.823  0.00  0.00    +0.000 C 
ATOM      9  C   UNL     1       7.697   1.713  24.428  0.00  0.00    +0.000 C 
ATOM     10  C   UNL     1       7.337   1.896  22.951  0.00  0.00    +0.005 C 
ATOM     11  C   UNL     1       7.511   0.673  22.035  0.00  0.00    +0.042 C 
ATOM     12  C   UNL     1       8.145  -0.534  22.688  0.00  0.00    +0.033 A 
ATOM     13  C   UNL     1       7.342  -1.697  22.981  0.00  0.00    +0.134 A 
ENDROOT
BRANCH  13  14
ATOM     14  O   UNL     1       6.005  -1.503  22.737  0.00  0.00    -0.506 OA
ATOM     15  H   UNL     1       5.883  -1.165  21.841  0.00  0.00    +0.292 HD
ENDBRANCH  13  14
BRANCH   1  16
ATOM     16  C   UNL     1       7.122  -4.134  23.802  0.00  0.00    +0.059 C 
BRANCH  16  17
ATOM     17  C   UNL     1       6.800  -4.331  25.289  0.00  0.00    -0.040 A 
ATOM     18  C   UNL     1       7.346  -5.364  26.069  0.00  0.00    +0.004 A 
ATOM     19  C   UNL     1       6.965  -5.542  27.401  0.00  0.00    +0.000 A 
ATOM     20  C   UNL     1       6.020  -4.698  27.976  0.00  0.00    +0.000 A 
ATOM     21  C   UNL     1       5.480  -3.656  27.229  0.00  0.00    +0.000 A 
ATOM     22  C   UNL     1       5.876  -3.465  25.902  0.00  0.00    +0.004 A 
ENDBRANCH  16  17
BRANCH  16  23
ATOM     23  C   UNL     1       7.804  -5.345  23.115  0.00  0.00    +0.010 C 
ATOM     24  C   UNL     1       7.102  -5.785  21.832  0.00  0.00    +0.005 C 
ENDBRANCH  16  23
ENDBRANCH   1  16
TORSDOF 4
ENDMDL
MODEL 7
REMARK VINA RESULT:      -6.5      2.457      6.627
REMARK  Name = 
REMARK  5 active torsions:
REMARK  status: ('A' for Active; 'I' for Inactive)
REMARK    1  A    between atoms: C_2  and  C_3
REMARK    2  A    between atoms: C_2  and  C_5
REMARK    3  A    between atoms: C_2  and  C_11
REMARK    4  A    between atoms: C_3  and  C_4
REMARK    5  A    between atoms: C_12  and  O_13
REMARK                            x       y       z     vdW  Elec       q    Type
REMARK                         _______ _______ _______ _____ _____    ______ ____
ROOT
ATOM      1  C   UNL     1       7.706  -4.013  24.598  0.00  0.00    +0.086 A 
ATOM      2  C   UNL     1       8.386  -5.176  25.245  0.00  0.00    +0.344 A 
ATOM      3  O   UNL     1       9.352  -5.728  24.725  0.00  0.00    -0.245 OA
ATOM      4  O   UNL     1       7.866  -5.652  26.419  0.00  0.00    -0.427 OA
ATOM      5  C   UNL     1       6.784  -5.015  27.058  0.00  0.00    +0.116 A 
ATOM      6  C   UNL     1       6.345  -5.639  28.350  0.00  0.00    +0.075 C 
ATOM      7  C   UNL     1       5.338  -6.779  28.206  0.00  0.00    +0.008 C 
ATOM      8  C   UNL     1       4.046  -6.635  27.378  0.00  0.00    +0.000 C 
ATOM      9  C   UNL     1       3.733  -5.406  26.522  0.00  0.00    +0.000 C 
ATOM     10  C   UNL     1       3.740  -4.066  27.262  0.00  0.00    +0.005 C 
ATOM     11  C   UNL     1       5.038  -3.244  27.205  0.00  0.00    +0.042 C 
ATOM     12  C   UNL     1       6.202  -3.928  26.526  0.00  0.00    +0.033 A 
ATOM     13  C   UNL     1       6.642  -3.478  25.227  0.00  0.00    +0.134 A 
ENDROOT
BRANCH  13  14
ATOM     14  O   UNL     1       5.821  -2.520  24.684  0.00  0.00    -0.506 OA
ATOM     15  H   UNL     1       4.937  -2.883  24.555  0.00  0.00    +0.292 HD
ENDBRANCH  13  14
BRANCH   1  16
ATOM     16  C   UNL     1       8.301  -3.572  23.253  0.00  0.00    +0.059 C 
BRANCH  16  17
ATOM     17  C   UNL     1       9.038  -2.229  23.328  0.00  0.00    -0.040 A 
ATOM     18  C   UNL     1       9.459  -1.643  24.534  0.00  0.00    +0.004 A 
ATOM     19  C   UNL     1      10.063  -0.384  24.554  0.00  0.00    +0.000 A 
ATOM     20  C   UNL     1      10.247   0.321  23.369  0.00  0.00    +0.000 A 
ATOM     21  C   UNL     1       9.856  -0.248  22.159  0.00  0.00    +0.000 A 
ATOM     22  C   UNL     1       9.270  -1.516  22.137  0.00  0.00    +0.004 A 
ENDBRANCH  16  17
BRANCH  16  23
ATOM     23  C   UNL     1       7.271  -3.689  22.100  0.00  0.00    +0.010 C 
ATOM     24  C   UNL     1       6.850  -5.128  21.811  0.00  0.00    +0.005 C 
ENDBRANCH  16  23
ENDBRANCH   1  16
TORSDOF 4
ENDMDL
MODEL 8
REMARK VINA RESULT:      -6.4      1.780      6.580
REMARK  Name = 
REMARK  5 active torsions:
REMARK  status: ('A' for Active; 'I' for Inactive)
REMARK    1  A    between atoms: C_2  and  C_3
REMARK    2  A    between atoms: C_2  and  C_5
REMARK    3  A    between atoms: C_2  and  C_11
REMARK    4  A    between atoms: C_3  and  C_4
REMARK    5  A    between atoms: C_12  and  O_13
REMARK                            x       y       z     vdW  Elec       q    Type
REMARK                         _______ _______ _______ _____ _____    ______ ____
ROOT
ATOM      1  C   UNL     1       8.537   0.098  23.973  0.00  0.00    +0.086 A 
ATOM      2  C   UNL     1       9.432  -0.391  25.066  0.00  0.00    +0.344 A 
ATOM      3  O   UNL     1      10.569   0.050  25.212  0.00  0.00    -0.245 OA
ATOM      4  O   UNL     1       8.969  -1.392  25.878  0.00  0.00    -0.427 OA
ATOM      5  C   UNL     1       7.656  -1.888  25.759  0.00  0.00    +0.116 A 
ATOM      6  C   UNL     1       7.286  -2.965  26.735  0.00  0.00    +0.075 C 
ATOM      7  C   UNL     1       7.655  -4.383  26.302  0.00  0.00    +0.008 C 
ATOM      8  C   UNL     1       7.262  -4.949  24.924  0.00  0.00    +0.000 C 
ATOM      9  C   UNL     1       6.605  -4.106  23.829  0.00  0.00    +0.000 C 
ATOM     10  C   UNL     1       5.301  -3.409  24.225  0.00  0.00    +0.005 C 
ATOM     11  C   UNL     1       5.405  -1.947  24.691  0.00  0.00    +0.042 C 
ATOM     12  C   UNL     1       6.813  -1.415  24.826  0.00  0.00    +0.033 A 
ATOM     13  C   UNL     1       7.312  -0.452  23.873  0.00  0.00    +0.134 A 
ENDROOT
BRANCH  13  14
ATOM     14  O   UNL     1       6.444  -0.227  22.833  0.00  0.00    -0.506 OA
ATOM     15  H   UNL     1       6.097  -1.067  22.510  0.00  0.00    +0.292 HD
ENDBRANCH  13  14
BRANCH   1  16
ATOM     16  C   UNL     1       9.144   1.174  23.062  0.00  0.00    +0.059 C 
BRANCH  16  17
ATOM     17  C   UNL     1       8.483   2.549  23.227  0.00  0.00    -0.040 A 
ATOM     18  C   UNL     1       7.690   3.151  22.236  0.00  0.00    +0.004 A 
ATOM     19  C   UNL     1       7.170   4.436  22.408  0.00  0.00    +0.000 A 
ATOM     20  C   UNL     1       7.443   5.150  23.570  0.00  0.00    +0.000 A 
ATOM     21  C   UNL     1       8.209   4.567  24.575  0.00  0.00    +0.000 A 
ATOM     22  C   UNL     1       8.713   3.273  24.412  0.00  0.00    +0.004 A 
ENDBRANCH  16  17
BRANCH  16  23
ATOM     23  C   UNL     1       9.275   0.684  21.598  0.00  0.00    +0.010 C 
ATOM     24  C   UNL     1       9.818  -0.739  21.484  0.00  0.00    +0.005 C 
ENDBRANCH  16  23
ENDBRANCH   1  16
TORSDOF 4
ENDMDL
MODEL 9
REMARK VINA RESULT:      -6.1      1.551      6.244
REMARK  Name = 
REMARK  5 active torsions:
REMARK  status: ('A' for Active; 'I' for Inactive)
REMARK    1  A    between atoms: C_2  and  C_3
REMARK    2  A    between atoms: C_2  and  C_5
REMARK    3  A    between atoms: C_2  and  C_11
REMARK    4  A    between atoms: C_3  and  C_4
REMARK    5  A    between atoms: C_12  and  O_13
REMARK                            x       y       z     vdW  Elec       q    Type
REMARK                         _______ _______ _______ _____ _____    ______ ____
ROOT
ATOM      1  C   UNL     1       8.461  -1.709  23.800  0.00  0.00    +0.086 A 
ATOM      2  C   UNL     1       8.537  -2.193  22.388  0.00  0.00    +0.344 A 
ATOM      3  O   UNL     1       8.969  -1.480  21.486  0.00  0.00    -0.245 OA
ATOM      4  O   UNL     1       8.056  -3.445  22.111  0.00  0.00    -0.427 OA
ATOM      5  C   UNL     1       7.592  -4.298  23.131  0.00  0.00    +0.116 A 
ATOM      6  C   UNL     1       7.122  -5.648  22.675  0.00  0.00    +0.075 C 
ATOM      7  C   UNL     1       5.662  -5.705  22.227  0.00  0.00    +0.008 C 
ATOM      8  C   UNL     1       4.514  -5.163  23.100  0.00  0.00    +0.000 C 
ATOM      9  C   UNL     1       4.744  -4.399  24.406  0.00  0.00    +0.000 C 
ATOM     10  C   UNL     1       5.573  -5.133  25.463  0.00  0.00    +0.005 C 
ATOM     11  C   UNL     1       7.077  -4.816  25.514  0.00  0.00    +0.042 C 
ATOM     12  C   UNL     1       7.578  -3.906  24.416  0.00  0.00    +0.033 A 
ATOM     13  C   UNL     1       7.956  -2.548  24.725  0.00  0.00    +0.134 A 
ENDROOT
BRANCH  13  14
ATOM     14  O   UNL     1       7.675  -2.194  26.021  0.00  0.00    -0.506 OA
ATOM     15  H   UNL     1       7.928  -1.275  26.170  0.00  0.00    +0.292 HD
ENDBRANCH  13  14
BRANCH   1  16
ATOM     16  C   UNL     1       8.956  -0.274  24.028  0.00  0.00    +0.059 C 
BRANCH  16  17
ATOM     17  C   UNL     1       8.031   0.789  23.422  0.00  0.00    -0.040 A 
ATOM     18  C   UNL     1       8.426   1.670  22.401  0.00  0.00    +0.004 A 
ATOM     19  C   UNL     1       7.567   2.667  21.933  0.00  0.00    +0.000 A 
ATOM     20  C   UNL     1       6.299   2.812  22.487  0.00  0.00    +0.000 A 
ATOM     21  C   UNL     1       5.877   1.938  23.485  0.00  0.00    +0.000 A 
ATOM     22  C   UNL     1       6.729   0.928  23.939  0.00  0.00    +0.004 A 
ENDBRANCH  16  17
BRANCH  16  23
ATOM     23  C   UNL     1      10.456  -0.117  23.667  0.00  0.00    +0.010 C 
ATOM     24  C   UNL     1      11.218   0.786  24.634  0.00  0.00    +0.005 C 
ENDBRANCH  16  23
ENDBRANCH   1  16
TORSDOF 4
ENDMDL
