MODEL 1
REMARK VINA RESULT:      -6.6      0.000      0.000
REMARK  Name = 
REMARK  12 active torsions:
REMARK  status: ('A' for Active; 'I' for Inactive)
REMARK    1  A    between atoms: C_1  and  C_2
REMARK    2  A    between atoms: C_2  and  N_3
REMARK    3  A    between atoms: N_3  and  C_4
REMARK    4  A    between atoms: C_4  and  C_5
REMARK    5  A    between atoms: C_6  and  C_8
REMARK    6  A    between atoms: C_15  and  O_16
REMARK    7  A    between atoms: O_16  and  C_17
REMARK    8  A    between atoms: C_18  and  O_19
REMARK    9  A    between atoms: O_19  and  C_20
REMARK   10  A    between atoms: C_25  and  O_26
REMARK   11  A    between atoms: O_26  and  C_27
REMARK   12  A    between atoms: C_27  and  C_28
REMARK                            x       y       z     vdW  Elec       q    Type
REMARK                         _______ _______ _______ _____ _____    ______ ____
ROOT
ATOM      1  C   UNL     1       7.811  -0.712  23.533  0.00  0.00    +0.130 C 
ATOM      2  C   UNL     1       9.358  -0.708  23.593  0.00  0.00    +0.191 C 
ATOM      3  C   UNL     1       9.964   0.591  22.977  0.00  0.00    +0.069 C 
ATOM      4  C   UNL     1       9.311   1.801  23.675  0.00  0.00    +0.091 C 
ATOM      5  N   UNL     1       7.831   1.705  23.594  0.00  0.00    -0.294 NA
ATOM      6  C   UNL     1       7.116   2.952  23.400  0.00  0.00    +0.089 C 
ATOM      7  C   UNL     1       7.646   3.986  24.392  0.00  0.00    +0.051 C 
ATOM      8  C   UNL     1       9.097   4.254  24.102  0.00  0.00    -0.038 A 
ATOM      9  C   UNL     1       9.642   5.501  24.436  0.00  0.00    +0.053 A 
ATOM     10  C   UNL     1      10.988   5.786  24.209  0.00  0.00    +0.162 A 
ATOM     11  C   UNL     1      11.778   4.815  23.562  0.00  0.00    +0.162 A 
ATOM     12  C   UNL     1      11.225   3.539  23.260  0.00  0.00    +0.054 A 
ATOM     13  C   UNL     1       9.895   3.221  23.577  0.00  0.00    -0.023 A 
ATOM     14  C   UNL     1       7.289   0.562  22.859  0.00  0.00    +0.101 C 
ENDROOT
BRANCH   1  16
ATOM     15  N   UNL     1       6.091  -2.564  23.428  0.00  0.00    -0.302 N 
ATOM     16  C   UNL     1       7.241  -1.974  22.872  0.00  0.00    +0.223 C 
ATOM     17  O   UNL     1       7.803  -2.456  21.887  0.00  0.00    -0.275 OA
BRANCH  15  19
ATOM     18  C   UNL     1       6.234  -5.067  23.281  0.00  0.00    +0.024 C 
ATOM     19  C   UNL     1       5.574  -3.785  22.789  0.00  0.00    +0.104 C 
ENDBRANCH  15  19
BRANCH  15  20
ATOM     20  C   UNL     1       5.396  -1.993  24.591  0.00  0.00    +0.104 C 
ATOM     21  C   UNL     1       5.284  -2.817  25.866  0.00  0.00    +0.024 C 
ENDBRANCH  15  20
ENDBRANCH   1  16
BRANCH  11  22
ATOM     22  O   UNL     1      13.102   4.926  23.199  0.00  0.00    -0.491 OA
ATOM     23  C   UNL     1      13.429   5.650  22.014  0.00  0.00    +0.277 C 
ENDBRANCH  11  22
BRANCH  10  24
ATOM     24  O   UNL     1      11.553   6.970  24.604  0.00  0.00    -0.491 OA
ATOM     25  C   UNL     1      12.289   6.992  25.823  0.00  0.00    +0.277 C 
ENDBRANCH  10  24
BRANCH   2  26
ATOM     26  O   UNL     1       9.640  -0.751  25.025  0.00  0.00    -0.461 OA
BRANCH  26  27
ATOM     27  C   UNL     1       8.906  -1.548  25.840  0.00  0.00    +0.304 C 
ATOM     28  O   UNL     1       8.772  -2.750  25.719  0.00  0.00    -0.251 OA
ATOM     29  C   UNL     1       8.313  -0.719  26.945  0.00  0.00    +0.136 C 
ENDBRANCH  26  27
ENDBRANCH   2  26
TORSDOF 7
ENDMDL
MODEL 2
REMARK VINA RESULT:      -6.6      2.249      8.343
REMARK  Name = 
REMARK  12 active torsions:
REMARK  status: ('A' for Active; 'I' for Inactive)
REMARK    1  A    between atoms: C_1  and  C_2
REMARK    2  A    between atoms: C_2  and  N_3
REMARK    3  A    between atoms: N_3  and  C_4
REMARK    4  A    between atoms: C_4  and  C_5
REMARK    5  A    between atoms: C_6  and  C_8
REMARK    6  A    between atoms: C_15  and  O_16
REMARK    7  A    between atoms: O_16  and  C_17
REMARK    8  A    between atoms: C_18  and  O_19
REMARK    9  A    between atoms: O_19  and  C_20
REMARK   10  A    between atoms: C_25  and  O_26
REMARK   11  A    between atoms: O_26  and  C_27
REMARK   12  A    between atoms: C_27  and  C_28
REMARK                            x       y       z     vdW  Elec       q    Type
REMARK                         _______ _______ _______ _____ _____    ______ ____
ROOT
ATOM      1  C   UNL     1       9.293   2.459  23.907  0.00  0.00    +0.130 C 
ATOM      2  C   UNL     1       8.494   1.974  22.673  0.00  0.00    +0.191 C 
ATOM      3  C   UNL     1       8.592   0.429  22.484  0.00  0.00    +0.069 C 
ATOM      4  C   UNL     1       8.164  -0.243  23.804  0.00  0.00    +0.091 C 
ATOM      5  N   UNL     1       8.959   0.297  24.937  0.00  0.00    -0.294 NA
ATOM      6  C   UNL     1       9.333  -0.651  25.970  0.00  0.00    +0.089 C 
ATOM      7  C   UNL     1       8.100  -1.458  26.370  0.00  0.00    +0.051 C 
ATOM      8  C   UNL     1       7.621  -2.254  25.186  0.00  0.00    -0.038 A 
ATOM      9  C   UNL     1       6.928  -3.452  25.403  0.00  0.00    +0.053 A 
ATOM     10  C   UNL     1       6.444  -4.209  24.337  0.00  0.00    +0.162 A 
ATOM     11  C   UNL     1       6.734  -3.782  23.026  0.00  0.00    +0.162 A 
ATOM     12  C   UNL     1       7.407  -2.545  22.816  0.00  0.00    +0.054 A 
ATOM     13  C   UNL     1       7.808  -1.737  23.892  0.00  0.00    -0.023 A 
ATOM     14  C   UNL     1       9.987   1.283  24.603  0.00  0.00    +0.101 C 
ENDROOT
BRANCH   1  16
ATOM     15  N   UNL     1       9.997   4.887  24.020  0.00  0.00    -0.302 N 
ATOM     16  C   UNL     1      10.283   3.583  23.575  0.00  0.00    +0.223 C 
ATOM     17  O   UNL     1      11.294   3.333  22.916  0.00  0.00    -0.275 OA
BRANCH  15  19
ATOM     18  C   UNL     1      11.900   6.325  24.806  0.00  0.00    +0.024 C 
ATOM     19  C   UNL     1      10.951   5.951  23.673  0.00  0.00    +0.104 C 
ENDBRANCH  15  19
BRANCH  15  20
ATOM     20  C   UNL     1       8.806   5.201  24.825  0.00  0.00    +0.104 C 
ATOM     21  C   UNL     1       8.023   6.471  24.524  0.00  0.00    +0.024 C 
ENDBRANCH  15  20
ENDBRANCH   1  16
BRANCH  11  22
ATOM     22  O   UNL     1       6.399  -4.417  21.850  0.00  0.00    -0.491 OA
ATOM     23  C   UNL     1       7.034  -5.655  21.534  0.00  0.00    +0.277 C 
ENDBRANCH  11  22
BRANCH  10  24
ATOM     24  O   UNL     1       5.697  -5.340  24.535  0.00  0.00    -0.491 OA
ATOM     25  C   UNL     1       5.488  -5.784  25.873  0.00  0.00    +0.277 C 
ENDBRANCH  10  24
BRANCH   2  26
ATOM     26  O   UNL     1       7.119   2.344  22.995  0.00  0.00    -0.461 OA
BRANCH  26  27
ATOM     27  C   UNL     1       6.561   3.446  22.435  0.00  0.00    +0.304 C 
ATOM     28  O   UNL     1       7.168   4.337  21.873  0.00  0.00    -0.251 OA
ATOM     29  C   UNL     1       5.067   3.376  22.582  0.00  0.00    +0.136 C 
ENDBRANCH  26  27
ENDBRANCH   2  26
TORSDOF 7
ENDMDL
MODEL 3
REMARK VINA RESULT:      -6.4      1.190      1.358
REMARK  Name = 
REMARK  12 active torsions:
REMARK  status: ('A' for Active; 'I' for Inactive)
REMARK    1  A    between atoms: C_1  and  C_2
REMARK    2  A    between atoms: C_2  and  N_3
REMARK    3  A    between atoms: N_3  and  C_4
REMARK    4  A    between atoms: C_4  and  C_5
REMARK    5  A    between atoms: C_6  and  C_8
REMARK    6  A    between atoms: C_15  and  O_16
REMARK    7  A    between atoms: O_16  and  C_17
REMARK    8  A    between atoms: C_18  and  O_19
REMARK    9  A    between atoms: O_19  and  C_20
REMARK   10  A    between atoms: C_25  and  O_26
REMARK   11  A    between atoms: O_26  and  C_27
REMARK   12  A    between atoms: C_27  and  C_28
REMARK                            x       y       z     vdW  Elec       q    Type
REMARK                         _______ _______ _______ _____ _____    ______ ____
ROOT
ATOM      1  C   UNL     1       7.951  -1.708  23.686  0.00  0.00    +0.130 C 
ATOM      2  C   UNL     1       9.365  -1.379  24.225  0.00  0.00    +0.191 C 
ATOM      3  C   UNL     1       9.977  -0.122  23.533  0.00  0.00    +0.069 C 
ATOM      4  C   UNL     1       8.971   1.039  23.675  0.00  0.00    +0.091 C 
ATOM      5  N   UNL     1       7.639   0.631  23.159  0.00  0.00    -0.294 NA
ATOM      6  C   UNL     1       6.884   1.649  22.453  0.00  0.00    +0.089 C 
ATOM      7  C   UNL     1       6.894   2.935  23.278  0.00  0.00    +0.051 C 
ATOM      8  C   UNL     1       8.308   3.434  23.402  0.00  0.00    -0.038 A 
ATOM      9  C   UNL     1       8.537   4.805  23.576  0.00  0.00    +0.053 A 
ATOM     10  C   UNL     1       9.828   5.310  23.721  0.00  0.00    +0.162 A 
ATOM     11  C   UNL     1      10.913   4.416  23.612  0.00  0.00    +0.162 A 
ATOM     12  C   UNL     1      10.669   3.021  23.472  0.00  0.00    +0.054 A 
ATOM     13  C   UNL     1       9.364   2.505  23.422  0.00  0.00    -0.023 A 
ATOM     14  C   UNL     1       7.541  -0.714  22.593  0.00  0.00    +0.101 C 
ENDROOT
BRANCH   1  16
ATOM     15  N   UNL     1       6.585  -3.816  23.386  0.00  0.00    -0.302 N 
ATOM     16  C   UNL     1       7.817  -3.160  23.208  0.00  0.00    +0.223 C 
ATOM     17  O   UNL     1       8.783  -3.728  22.696  0.00  0.00    -0.275 OA
BRANCH  15  19
ATOM     18  C   UNL     1       6.124  -5.366  21.464  0.00  0.00    +0.024 C 
ATOM     19  C   UNL     1       6.485  -5.214  22.937  0.00  0.00    +0.104 C 
ENDBRANCH  15  19
BRANCH  15  20
ATOM     20  C   UNL     1       5.414  -3.148  23.975  0.00  0.00    +0.104 C 
ATOM     21  C   UNL     1       4.197  -3.980  24.350  0.00  0.00    +0.024 C 
ENDBRANCH  15  20
ENDBRANCH   1  16
BRANCH  11  22
ATOM     22  O   UNL     1      12.254   4.724  23.667  0.00  0.00    -0.491 OA
ATOM     23  C   UNL     1      12.865   5.331  22.529  0.00  0.00    +0.277 C 
ENDBRANCH  11  22
BRANCH  10  24
ATOM     24  O   UNL     1      10.062   6.636  23.972  0.00  0.00    -0.491 OA
ATOM     25  C   UNL     1      10.174   7.055  25.329  0.00  0.00    +0.277 C 
ENDBRANCH  10  24
BRANCH   2  26
ATOM     26  O   UNL     1       9.128  -1.097  25.638  0.00  0.00    -0.461 OA
BRANCH  26  27
ATOM     27  C   UNL     1       8.332  -1.913  26.371  0.00  0.00    +0.304 C 
ATOM     28  O   UNL     1       8.571  -3.073  26.648  0.00  0.00    -0.251 OA
ATOM     29  C   UNL     1       7.120  -1.148  26.827  0.00  0.00    +0.136 C 
ENDBRANCH  26  27
ENDBRANCH   2  26
TORSDOF 7
ENDMDL
MODEL 4
REMARK VINA RESULT:      -6.2      2.630      8.774
REMARK  Name = 
REMARK  12 active torsions:
REMARK  status: ('A' for Active; 'I' for Inactive)
REMARK    1  A    between atoms: C_1  and  C_2
REMARK    2  A    between atoms: C_2  and  N_3
REMARK    3  A    between atoms: N_3  and  C_4
REMARK    4  A    between atoms: C_4  and  C_5
REMARK    5  A    between atoms: C_6  and  C_8
REMARK    6  A    between atoms: C_15  and  O_16
REMARK    7  A    between atoms: O_16  and  C_17
REMARK    8  A    between atoms: C_18  and  O_19
REMARK    9  A    between atoms: O_19  and  C_20
REMARK   10  A    between atoms: C_25  and  O_26
REMARK   11  A    between atoms: O_26  and  C_27
REMARK   12  A    between atoms: C_27  and  C_28
REMARK                            x       y       z     vdW  Elec       q    Type
REMARK                         _______ _______ _______ _____ _____    ______ ____
ROOT
ATOM      1  C   UNL     1       8.818   0.579  23.698  0.00  0.00    +0.130 C 
ATOM      2  C   UNL     1       7.323   0.550  23.296  0.00  0.00    +0.191 C 
ATOM      3  C   UNL     1       6.891  -0.848  22.754  0.00  0.00    +0.069 C 
ATOM      4  C   UNL     1       7.273  -1.908  23.806  0.00  0.00    +0.091 C 
ATOM      5  N   UNL     1       8.713  -1.793  24.153  0.00  0.00    -0.294 NA
ATOM      6  C   UNL     1       9.419  -3.039  24.390  0.00  0.00    +0.089 C 
ATOM      7  C   UNL     1       8.590  -3.904  25.339  0.00  0.00    +0.051 C 
ATOM      8  C   UNL     1       7.283  -4.250  24.680  0.00  0.00    -0.038 A 
ATOM      9  C   UNL     1       6.629  -5.436  25.041  0.00  0.00    +0.053 A 
ATOM     10  C   UNL     1       5.403  -5.785  24.476  0.00  0.00    +0.162 A 
ATOM     11  C   UNL     1       4.868  -4.955  23.471  0.00  0.00    +0.162 A 
ATOM     12  C   UNL     1       5.521  -3.735  23.138  0.00  0.00    +0.054 A 
ATOM     13  C   UNL     1       6.706  -3.338  23.778  0.00  0.00    -0.023 A 
ATOM     14  C   UNL     1       9.480  -0.778  23.432  0.00  0.00    +0.101 C 
ENDROOT
BRANCH   1  16
ATOM     15  N   UNL     1       9.602   2.984  23.664  0.00  0.00    -0.302 N 
ATOM     16  C   UNL     1       9.593   1.726  23.035  0.00  0.00    +0.223 C 
ATOM     17  O   UNL     1      10.175   1.533  21.966  0.00  0.00    -0.275 OA
BRANCH  15  19
ATOM     18  C   UNL     1      11.778   4.222  23.467  0.00  0.00    +0.024 C 
ATOM     19  C   UNL     1      10.336   4.073  23.000  0.00  0.00    +0.104 C 
ENDBRANCH  15  19
BRANCH  15  20
ATOM     20  C   UNL     1       8.930   3.228  24.950  0.00  0.00    +0.104 C 
ATOM     21  C   UNL     1       8.313   4.593  25.216  0.00  0.00    +0.024 C 
ENDBRANCH  15  20
ENDBRANCH   1  16
BRANCH  11  22
ATOM     22  O   UNL     1       3.708  -5.156  22.755  0.00  0.00    -0.491 OA
ATOM     23  C   UNL     1       2.461  -5.128  23.448  0.00  0.00    +0.277 C 
ENDBRANCH  11  22
BRANCH  10  24
ATOM     24  O   UNL     1       4.714  -6.899  24.877  0.00  0.00    -0.491 OA
ATOM     25  C   UNL     1       4.265  -6.964  26.228  0.00  0.00    +0.277 C 
ENDBRANCH  10  24
BRANCH   2  26
ATOM     26  O   UNL     1       6.631   0.825  24.553  0.00  0.00    -0.461 OA
BRANCH  26  27
ATOM     27  C   UNL     1       5.435   1.462  24.545  0.00  0.00    +0.304 C 
ATOM     28  O   UNL     1       4.487   1.195  25.258  0.00  0.00    -0.251 OA
ATOM     29  C   UNL     1       5.475   2.583  23.545  0.00  0.00    +0.136 C 
ENDBRANCH  26  27
ENDBRANCH   2  26
TORSDOF 7
ENDMDL
MODEL 5
REMARK VINA RESULT:      -6.1      2.056      3.756
REMARK  Name = 
REMARK  12 active torsions:
REMARK  status: ('A' for Active; 'I' for Inactive)
REMARK    1  A    between atoms: C_1  and  C_2
REMARK    2  A    between atoms: C_2  and  N_3
REMARK    3  A    between atoms: N_3  and  C_4
REMARK    4  A    between atoms: C_4  and  C_5
REMARK    5  A    between atoms: C_6  and  C_8
REMARK    6  A    between atoms: C_15  and  O_16
REMARK    7  A    between atoms: O_16  and  C_17
REMARK    8  A    between atoms: C_18  and  O_19
REMARK    9  A    between atoms: O_19  and  C_20
REMARK   10  A    between atoms: C_25  and  O_26
REMARK   11  A    between atoms: O_26  and  C_27
REMARK   12  A    between atoms: C_27  and  C_28
REMARK                            x       y       z     vdW  Elec       q    Type
REMARK                         _______ _______ _______ _____ _____    ______ ____
ROOT
ATOM      1  C   UNL     1       7.170  -2.199  24.856  0.00  0.00    +0.130 C 
ATOM      2  C   UNL     1       6.240  -1.120  24.247  0.00  0.00    +0.191 C 
ATOM      3  C   UNL     1       6.652   0.320  24.683  0.00  0.00    +0.069 C 
ATOM      4  C   UNL     1       8.143   0.516  24.340  0.00  0.00    +0.091 C 
ATOM      5  N   UNL     1       8.957  -0.573  24.939  0.00  0.00    -0.294 NA
ATOM      6  C   UNL     1      10.260  -0.193  25.452  0.00  0.00    +0.089 C 
ATOM      7  C   UNL     1      10.979   0.651  24.400  0.00  0.00    +0.051 C 
ATOM      8  C   UNL     1      10.204   1.919  24.167  0.00  0.00    -0.038 A 
ATOM      9  C   UNL     1      10.884   3.066  23.736  0.00  0.00    +0.053 A 
ATOM     10  C   UNL     1      10.204   4.256  23.483  0.00  0.00    +0.162 A 
ATOM     11  C   UNL     1       8.821   4.306  23.744  0.00  0.00    +0.162 A 
ATOM     12  C   UNL     1       8.133   3.127  24.146  0.00  0.00    +0.054 A 
ATOM     13  C   UNL     1       8.805   1.904  24.308  0.00  0.00    -0.023 A 
ATOM     14  C   UNL     1       8.238  -1.556  25.748  0.00  0.00    +0.101 C 
ENDROOT
BRANCH   1  16
ATOM     15  N   UNL     1       6.829  -4.632  25.458  0.00  0.00    -0.302 N 
ATOM     16  C   UNL     1       6.401  -3.299  25.599  0.00  0.00    +0.223 C 
ATOM     17  O   UNL     1       5.422  -3.004  26.288  0.00  0.00    -0.275 OA
BRANCH  15  19
ATOM     18  C   UNL     1       5.018  -6.366  25.301  0.00  0.00    +0.024 C 
ATOM     19  C   UNL     1       6.064  -5.673  26.165  0.00  0.00    +0.104 C 
ENDBRANCH  15  19
BRANCH  15  20
ATOM     20  C   UNL     1       8.006  -5.002  24.658  0.00  0.00    +0.104 C 
ATOM     21  C   UNL     1       9.332  -5.249  25.362  0.00  0.00    +0.024 C 
ENDBRANCH  15  20
ENDBRANCH   1  16
BRANCH  11  22
ATOM     22  O   UNL     1       7.988   5.396  23.615  0.00  0.00    -0.491 OA
ATOM     23  C   UNL     1       7.143   5.481  22.469  0.00  0.00    +0.277 C 
ENDBRANCH  11  22
BRANCH  10  24
ATOM     24  O   UNL     1      10.843   5.361  22.985  0.00  0.00    -0.491 OA
ATOM     25  C   UNL     1      12.185   5.607  23.399  0.00  0.00    +0.277 C 
ENDBRANCH  10  24
BRANCH   2  26
ATOM     26  O   UNL     1       6.443  -1.276  22.809  0.00  0.00    -0.461 OA
BRANCH  26  27
ATOM     27  C   UNL     1       6.972  -2.422  22.316  0.00  0.00    +0.304 C 
ATOM     28  O   UNL     1       8.159  -2.656  22.190  0.00  0.00    -0.251 OA
ATOM     29  C   UNL     1       5.862  -3.381  21.986  0.00  0.00    +0.136 C 
ENDBRANCH  26  27
ENDBRANCH   2  26
TORSDOF 7
ENDMDL
MODEL 6
REMARK VINA RESULT:      -6.1      2.559      3.277
REMARK  Name = 
REMARK  12 active torsions:
REMARK  status: ('A' for Active; 'I' for Inactive)
REMARK    1  A    between atoms: C_1  and  C_2
REMARK    2  A    between atoms: C_2  and  N_3
REMARK    3  A    between atoms: N_3  and  C_4
REMARK    4  A    between atoms: C_4  and  C_5
REMARK    5  A    between atoms: C_6  and  C_8
REMARK    6  A    between atoms: C_15  and  O_16
REMARK    7  A    between atoms: O_16  and  C_17
REMARK    8  A    between atoms: C_18  and  O_19
REMARK    9  A    between atoms: O_19  and  C_20
REMARK   10  A    between atoms: C_25  and  O_26
REMARK   11  A    between atoms: O_26  and  C_27
REMARK   12  A    between atoms: C_27  and  C_28
REMARK                            x       y       z     vdW  Elec       q    Type
REMARK                         _______ _______ _______ _____ _____    ______ ____
ROOT
ATOM      1  C   UNL     1       6.755  -2.086  24.028  0.00  0.00    +0.130 C 
ATOM      2  C   UNL     1       7.738  -1.326  23.105  0.00  0.00    +0.191 C 
ATOM      3  C   UNL     1       7.395   0.193  23.010  0.00  0.00    +0.069 C 
ATOM      4  C   UNL     1       7.324   0.758  24.443  0.00  0.00    +0.091 C 
ATOM      5  N   UNL     1       6.381  -0.043  25.266  0.00  0.00    -0.294 NA
ATOM      6  C   UNL     1       5.574   0.694  26.220  0.00  0.00    +0.089 C 
ATOM      7  C   UNL     1       6.479   1.641  27.007  0.00  0.00    +0.051 C 
ATOM      8  C   UNL     1       7.086   2.645  26.065  0.00  0.00    -0.038 A 
ATOM      9  C   UNL     1       7.452   3.906  26.554  0.00  0.00    +0.053 A 
ATOM     10  C   UNL     1       8.042   4.859  25.725  0.00  0.00    +0.162 A 
ATOM     11  C   UNL     1       8.193   4.555  24.357  0.00  0.00    +0.162 A 
ATOM     12  C   UNL     1       7.852   3.259  23.878  0.00  0.00    +0.054 A 
ATOM     13  C   UNL     1       7.348   2.268  24.736  0.00  0.00    -0.023 A 
ATOM     14  C   UNL     1       5.688  -1.137  24.587  0.00  0.00    +0.101 C 
ENDROOT
BRANCH   1  16
ATOM     15  N   UNL     1       6.568  -4.591  23.724  0.00  0.00    -0.302 N 
ATOM     16  C   UNL     1       6.123  -3.310  23.350  0.00  0.00    +0.223 C 
ATOM     17  O   UNL     1       5.258  -3.152  22.487  0.00  0.00    -0.275 OA
BRANCH  15  19
ATOM     18  C   UNL     1       6.779  -6.277  21.875  0.00  0.00    +0.024 C 
ATOM     19  C   UNL     1       5.962  -5.748  23.048  0.00  0.00    +0.104 C 
ENDBRANCH  15  19
BRANCH  15  20
ATOM     20  C   UNL     1       7.585  -4.799  24.767  0.00  0.00    +0.104 C 
ATOM     21  C   UNL     1       7.149  -5.292  26.139  0.00  0.00    +0.024 C 
ENDBRANCH  15  20
ENDBRANCH   1  16
BRANCH  11  22
ATOM     22  O   UNL     1       8.694   5.377  23.372  0.00  0.00    -0.491 OA
ATOM     23  C   UNL     1       7.787   6.192  22.633  0.00  0.00    +0.277 C 
ENDBRANCH  11  22
BRANCH  10  24
ATOM     24  O   UNL     1       8.477   6.065  26.206  0.00  0.00    -0.491 OA
ATOM     25  C   UNL     1       7.520   7.108  26.376  0.00  0.00    +0.277 C 
ENDBRANCH  10  24
BRANCH   2  26
ATOM     26  O   UNL     1       9.026  -1.499  23.771  0.00  0.00    -0.461 OA
BRANCH  26  27
ATOM     27  C   UNL     1      10.175  -1.180  23.125  0.00  0.00    +0.304 C 
ATOM     28  O   UNL     1      10.619  -1.752  22.148  0.00  0.00    -0.251 OA
ATOM     29  C   UNL     1      10.797   0.021  23.780  0.00  0.00    +0.136 C 
ENDBRANCH  26  27
ENDBRANCH   2  26
TORSDOF 7
ENDMDL
MODEL 7
REMARK VINA RESULT:      -6.0      2.405      8.339
REMARK  Name = 
REMARK  12 active torsions:
REMARK  status: ('A' for Active; 'I' for Inactive)
REMARK    1  A    between atoms: C_1  and  C_2
REMARK    2  A    between atoms: C_2  and  N_3
REMARK    3  A    between atoms: N_3  and  C_4
REMARK    4  A    between atoms: C_4  and  C_5
REMARK    5  A    between atoms: C_6  and  C_8
REMARK    6  A    between atoms: C_15  and  O_16
REMARK    7  A    between atoms: O_16  and  C_17
REMARK    8  A    between atoms: C_18  and  O_19
REMARK    9  A    between atoms: O_19  and  C_20
REMARK   10  A    between atoms: C_25  and  O_26
REMARK   11  A    between atoms: O_26  and  C_27
REMARK   12  A    between atoms: C_27  and  C_28
REMARK                            x       y       z     vdW  Elec       q    Type
REMARK                         _______ _______ _______ _____ _____    ______ ____
ROOT
ATOM      1  C   UNL     1       8.441   2.693  23.903  0.00  0.00    +0.130 C 
ATOM      2  C   UNL     1       7.201   2.197  24.688  0.00  0.00    +0.191 C 
ATOM      3  C   UNL     1       6.438   1.071  23.924  0.00  0.00    +0.069 C 
ATOM      4  C   UNL     1       7.447  -0.045  23.586  0.00  0.00    +0.091 C 
ATOM      5  N   UNL     1       8.614   0.519  22.860  0.00  0.00    -0.294 NA
ATOM      6  C   UNL     1       9.174  -0.305  21.804  0.00  0.00    +0.089 C 
ATOM      7  C   UNL     1       9.364  -1.725  22.333  0.00  0.00    +0.051 C 
ATOM      8  C   UNL     1       8.022  -2.307  22.688  0.00  0.00    -0.038 A 
ATOM      9  C   UNL     1       7.843  -3.695  22.633  0.00  0.00    +0.053 A 
ATOM     10  C   UNL     1       6.625  -4.280  22.978  0.00  0.00    +0.162 A 
ATOM     11  C   UNL     1       5.547  -3.436  23.312  0.00  0.00    +0.162 A 
ATOM     12  C   UNL     1       5.750  -2.030  23.400  0.00  0.00    +0.054 A 
ATOM     13  C   UNL     1       7.004  -1.451  23.146  0.00  0.00    -0.023 A 
ATOM     14  C   UNL     1       8.573   1.951  22.568  0.00  0.00    +0.101 C 
ENDROOT
BRANCH   1  16
ATOM     15  N   UNL     1       9.698   4.873  23.645  0.00  0.00    -0.302 N 
ATOM     16  C   UNL     1       8.456   4.215  23.708  0.00  0.00    +0.223 C 
ATOM     17  O   UNL     1       7.392   4.832  23.628  0.00  0.00    -0.275 OA
BRANCH  15  19
ATOM     18  C   UNL     1       9.632   7.108  24.788  0.00  0.00    +0.024 C 
ATOM     19  C   UNL     1       9.687   6.335  23.476  0.00  0.00    +0.104 C 
ENDBRANCH  15  19
BRANCH  15  20
ATOM     20  C   UNL     1      10.977   4.151  23.718  0.00  0.00    +0.104 C 
ATOM     21  C   UNL     1      12.257   4.870  23.319  0.00  0.00    +0.024 C 
ENDBRANCH  15  20
ENDBRANCH   1  16
BRANCH  11  22
ATOM     22  O   UNL     1       4.260  -3.813  23.622  0.00  0.00    -0.491 OA
ATOM     23  C   UNL     1       3.865  -3.840  24.993  0.00  0.00    +0.277 C 
ENDBRANCH  11  22
BRANCH  10  24
ATOM     24  O   UNL     1       6.459  -5.639  23.006  0.00  0.00    -0.491 OA
ATOM     25  C   UNL     1       6.892  -6.394  21.877  0.00  0.00    +0.277 C 
ENDBRANCH  10  24
BRANCH   2  26
ATOM     26  O   UNL     1       7.774   1.657  25.917  0.00  0.00    -0.461 OA
BRANCH  26  27
ATOM     27  C   UNL     1       6.997   1.493  27.016  0.00  0.00    +0.304 C 
ATOM     28  O   UNL     1       6.110   2.244  27.374  0.00  0.00    -0.251 OA
ATOM     29  C   UNL     1       7.374   0.210  27.704  0.00  0.00    +0.136 C 
ENDBRANCH  26  27
ENDBRANCH   2  26
TORSDOF 7
ENDMDL
MODEL 8
REMARK VINA RESULT:      -6.0      2.703      5.072
REMARK  Name = 
REMARK  12 active torsions:
REMARK  status: ('A' for Active; 'I' for Inactive)
REMARK    1  A    between atoms: C_1  and  C_2
REMARK    2  A    between atoms: C_2  and  N_3
REMARK    3  A    between atoms: N_3  and  C_4
REMARK    4  A    between atoms: C_4  and  C_5
REMARK    5  A    between atoms: C_6  and  C_8
REMARK    6  A    between atoms: C_15  and  O_16
REMARK    7  A    between atoms: O_16  and  C_17
REMARK    8  A    between atoms: C_18  and  O_19
REMARK    9  A    between atoms: O_19  and  C_20
REMARK   10  A    between atoms: C_25  and  O_26
REMARK   11  A    between atoms: O_26  and  C_27
REMARK   12  A    between atoms: C_27  and  C_28
REMARK                            x       y       z     vdW  Elec       q    Type
REMARK                         _______ _______ _______ _____ _____    ______ ____
ROOT
ATOM      1  C   UNL     1       5.509  -3.915  25.173  0.00  0.00    +0.130 C 
ATOM      2  C   UNL     1       5.461  -3.392  23.716  0.00  0.00    +0.191 C 
ATOM      3  C   UNL     1       5.708  -1.854  23.639  0.00  0.00    +0.069 C 
ATOM      4  C   UNL     1       7.032  -1.545  24.368  0.00  0.00    +0.091 C 
ATOM      5  N   UNL     1       7.004  -2.103  25.745  0.00  0.00    -0.294 NA
ATOM      6  C   UNL     1       7.641  -1.304  26.775  0.00  0.00    +0.089 C 
ATOM      7  C   UNL     1       9.019  -0.866  26.280  0.00  0.00    +0.051 C 
ATOM      8  C   UNL     1       8.856   0.013  25.071  0.00  0.00    -0.038 A 
ATOM      9  C   UNL     1       9.835   0.975  24.788  0.00  0.00    +0.053 A 
ATOM     10  C   UNL     1       9.739   1.795  23.665  0.00  0.00    +0.162 A 
ATOM     11  C   UNL     1       8.590   1.689  22.855  0.00  0.00    +0.162 A 
ATOM     12  C   UNL     1       7.620   0.685  23.129  0.00  0.00    +0.054 A 
ATOM     13  C   UNL     1       7.768  -0.203  24.206  0.00  0.00    -0.023 A 
ATOM     14  C   UNL     1       5.767  -2.767  26.156  0.00  0.00    +0.101 C 
ENDROOT
BRANCH   1  16
ATOM     15  N   UNL     1       4.422  -5.867  26.360  0.00  0.00    -0.302 N 
ATOM     16  C   UNL     1       4.262  -4.720  25.561  0.00  0.00    +0.223 C 
ATOM     17  O   UNL     1       3.153  -4.364  25.158  0.00  0.00    -0.275 OA
BRANCH  15  19
ATOM     18  C   UNL     1       2.622  -6.281  28.061  0.00  0.00    +0.024 C 
ATOM     19  C   UNL     1       3.214  -6.635  26.702  0.00  0.00    +0.104 C 
ENDBRANCH  15  19
BRANCH  15  20
ATOM     20  C   UNL     1       5.734  -6.297  26.867  0.00  0.00    +0.104 C 
ATOM     21  C   UNL     1       6.193  -5.816  28.235  0.00  0.00    +0.024 C 
ENDBRANCH  15  20
ENDBRANCH   1  16
BRANCH  11  22
ATOM     22  O   UNL     1       8.283   2.444  21.744  0.00  0.00    -0.491 OA
ATOM     23  C   UNL     1       7.250   3.423  21.845  0.00  0.00    +0.277 C 
ENDBRANCH  11  22
BRANCH  10  24
ATOM     24  O   UNL     1      10.727   2.684  23.332  0.00  0.00    -0.491 OA
ATOM     25  C   UNL     1      10.574   4.042  23.734  0.00  0.00    +0.277 C 
ENDBRANCH  10  24
BRANCH   2  26
ATOM     26  O   UNL     1       6.561  -4.100  23.068  0.00  0.00    -0.461 OA
BRANCH  26  27
ATOM     27  C   UNL     1       6.373  -4.694  21.864  0.00  0.00    +0.304 C 
ATOM     28  O   UNL     1       5.777  -4.209  20.922  0.00  0.00    -0.251 OA
ATOM     29  C   UNL     1       7.054  -6.034  21.859  0.00  0.00    +0.136 C 
ENDBRANCH  26  27
ENDBRANCH   2  26
TORSDOF 7
ENDMDL
MODEL 9
REMARK VINA RESULT:      -6.0      3.212      9.495
REMARK  Name = 
REMARK  12 active torsions:
REMARK  status: ('A' for Active; 'I' for Inactive)
REMARK    1  A    between atoms: C_1  and  C_2
REMARK    2  A    between atoms: C_2  and  N_3
REMARK    3  A    between atoms: N_3  and  C_4
REMARK    4  A    between atoms: C_4  and  C_5
REMARK    5  A    between atoms: C_6  and  C_8
REMARK    6  A    between atoms: C_15  and  O_16
REMARK    7  A    between atoms: O_16  and  C_17
REMARK    8  A    between atoms: C_18  and  O_19
REMARK    9  A    between atoms: O_19  and  C_20
REMARK   10  A    between atoms: C_25  and  O_26
REMARK   11  A    between atoms: O_26  and  C_27
REMARK   12  A    between atoms: C_27  and  C_28
REMARK                            x       y       z     vdW  Elec       q    Type
REMARK                         _______ _______ _______ _____ _____    ______ ____
ROOT
ATOM      1  C   UNL     1       8.470  -1.486  24.131  0.00  0.00    +0.130 C 
ATOM      2  C   UNL     1       7.129  -1.345  23.370  0.00  0.00    +0.191 C 
ATOM      3  C   UNL     1       6.556  -2.730  22.935  0.00  0.00    +0.069 C 
ATOM      4  C   UNL     1       6.472  -3.628  24.186  0.00  0.00    +0.091 C 
ATOM      5  N   UNL     1       7.790  -3.686  24.868  0.00  0.00    -0.294 NA
ATOM      6  C   UNL     1       8.158  -4.964  25.447  0.00  0.00    +0.089 C 
ATOM      7  C   UNL     1       6.981  -5.495  26.264  0.00  0.00    +0.051 C 
ATOM      8  C   UNL     1       5.812  -5.740  25.349  0.00  0.00    -0.038 A 
ATOM      9  C   UNL     1       4.869  -6.717  25.692  0.00  0.00    +0.053 A 
ATOM     10  C   UNL     1       3.756  -6.960  24.888  0.00  0.00    +0.162 A 
ATOM     11  C   UNL     1       3.638  -6.253  23.676  0.00  0.00    +0.162 A 
ATOM     12  C   UNL     1       4.581  -5.237  23.354  0.00  0.00    +0.054 A 
ATOM     13  C   UNL     1       5.648  -4.927  24.213  0.00  0.00    -0.023 A 
ATOM     14  C   UNL     1       8.887  -2.958  24.232  0.00  0.00    +0.101 C 
ENDROOT
BRANCH   1  16
ATOM     15  N   UNL     1       9.830   0.647  24.094  0.00  0.00    -0.302 N 
ATOM     16  C   UNL     1       9.589  -0.621  23.535  0.00  0.00    +0.223 C 
ATOM     17  O   UNL     1      10.240  -1.039  22.576  0.00  0.00    -0.275 OA
BRANCH  15  19
ATOM     18  C   UNL     1      10.462   2.225  22.245  0.00  0.00    +0.024 C 
ATOM     19  C   UNL     1      10.895   1.466  23.494  0.00  0.00    +0.104 C 
ENDBRANCH  15  19
BRANCH  15  20
ATOM     20  C   UNL     1       9.077   1.155  25.251  0.00  0.00    +0.104 C 
ATOM     21  C   UNL     1       8.504   2.563  25.202  0.00  0.00    +0.024 C 
ENDBRANCH  15  20
ENDBRANCH   1  16
BRANCH  11  22
ATOM     22  O   UNL     1       2.652  -6.391  22.724  0.00  0.00    -0.491 OA
ATOM     23  C   UNL     1       1.414  -5.709  22.915  0.00  0.00    +0.277 C 
ENDBRANCH  11  22
BRANCH  10  24
ATOM     24  O   UNL     1       2.785  -7.856  25.251  0.00  0.00    -0.491 OA
ATOM     25  C   UNL     1       1.883  -7.487  26.292  0.00  0.00    +0.277 C 
ENDBRANCH  10  24
BRANCH   2  26
ATOM     26  O   UNL     1       6.243  -0.736  24.359  0.00  0.00    -0.461 OA
BRANCH  26  27
ATOM     27  C   UNL     1       5.753   0.511  24.157  0.00  0.00    +0.304 C 
ATOM     28  O   UNL     1       4.982   1.096  24.893  0.00  0.00    -0.251 OA
ATOM     29  C   UNL     1       6.343   1.079  22.896  0.00  0.00    +0.136 C 
ENDBRANCH  26  27
ENDBRANCH   2  26
TORSDOF 7
ENDMDL
