MODEL 1
REMARK VINA RESULT:      -7.5      0.000      0.000
REMARK  Name = 
REMARK  12 active torsions:
REMARK  status: ('A' for Active; 'I' for Inactive)
REMARK    1  A    between atoms: C_5  and  C_6
REMARK    2  A    between atoms: C_6  and  S_7
REMARK    3  A    between atoms: S_7  and  C_8
REMARK    4  A    between atoms: N_12  and  C_13
REMARK    5  A    between atoms: C_13  and  S_14
REMARK    6  A    between atoms: S_14  and  O_15
REMARK    7  A    between atoms: CA_18  and  C_36
REMARK    8  A    between atoms: CA_22  and  N_24
REMARK    9  A    between atoms: C_25  and  C_27
REMARK   10  A    between atoms: C_27  and  O_29
REMARK   11  A    between atoms: C_27  and  C_30
REMARK   12  A    between atoms: C_36  and  O_37
REMARK                            x       y       z     vdW  Elec       q    Type
REMARK                         _______ _______ _______ _____ _____    ______ ____
ROOT
ATOM      1  C   UNL     1       8.653  -1.307  26.026  0.00  0.00    +0.169 C 
ATOM      2  CA  UNL     1       9.700  -1.143  24.866  0.00  0.00    +0.191 C 
ATOM      3  C   UNL     1       9.398  -2.662  24.622  0.00  0.00    +0.244 C 
ATOM      4  O   UNL     1       9.750  -3.550  23.881  0.00  0.00    -0.273 OA
ATOM      5  N   UNL     1       8.372  -2.626  25.499  0.00  0.00    -0.249 N 
ATOM      6  CA  UNL     1       7.338  -3.430  25.910  0.00  0.00    +0.123 C 
ATOM      7  C   UNL     1       6.288  -2.883  26.590  0.00  0.00    -0.021 C 
ATOM      8  C   UNL     1       6.141  -1.392  26.885  0.00  0.00    +0.104 C 
ATOM      9  S   UNL     1       7.165  -0.296  25.875  0.00  0.00    -0.131 S 
ENDROOT
BRANCH   2  10
ATOM     10  N   UNL     1       9.311  -0.237  23.757  0.00  0.00    -0.299 N 
ATOM     11  H   UNL     1       8.540  -0.481  23.133  0.00  0.00    +0.150 HD
ATOM     12  C   UNL     1       9.926   0.967  23.479  0.00  0.00    +0.247 C 
ATOM     13  O   UNL     1      10.825   1.438  24.167  0.00  0.00    -0.273 OA
BRANCH  12  14
ATOM     14  C   UNL     1       9.373   1.644  22.203  0.00  0.00    +0.230 C 
BRANCH  14  15
ATOM     15  C   UNL     1       8.219   2.576  22.504  0.00  0.00    -0.010 A 
ATOM     16  C   UNL     1       8.419   3.805  23.157  0.00  0.00    +0.006 A 
ATOM     17  C   UNL     1       7.346   4.659  23.415  0.00  0.00    +0.000 A 
ATOM     18  C   UNL     1       6.057   4.295  23.034  0.00  0.00    +0.000 A 
ATOM     19  C   UNL     1       5.839   3.072  22.404  0.00  0.00    +0.000 A 
ATOM     20  C   UNL     1       6.912   2.214  22.144  0.00  0.00    +0.006 A 
ENDBRANCH  14  15
BRANCH  14  21
ATOM     21  O   UNL     1      10.419   2.379  21.551  0.00  0.00    -0.378 OA
ATOM     22  H   UNL     1      11.135   1.737  21.391  0.00  0.00    +0.211 HD
ENDBRANCH  14  21
ENDBRANCH  12  14
ENDBRANCH   2  10
BRANCH   6  23
ATOM     23  C   UNL     1       7.326  -4.909  25.575  0.00  0.00    +0.351 C 
ATOM     24  OXT UNL     1       7.625  -5.782  26.382  0.00  0.00    -0.244 OA
BRANCH  23  25
ATOM     25  O   UNL     1       6.963  -5.264  24.333  0.00  0.00    -0.476 OA
ATOM     26  H   UNL     1       6.856  -6.219  24.123  0.00  0.00    +0.295 HD
ENDBRANCH  23  25
ENDBRANCH   6  23
BRANCH   7  27
ATOM     27  C   UNL     1       5.015  -3.640  26.998  0.00  0.00    +0.111 C 
BRANCH  27  28
ATOM     28  S   UNL     1       3.530  -3.124  26.065  0.00  0.00    -0.080 S 
BRANCH  28  29
ATOM     29  C   UNL     1       3.984  -3.672  24.484  0.00  0.00    +0.211 A 
ATOM     30  N   UNL     1       3.573  -4.822  23.872  0.00  0.00    -0.196 N 
ATOM     31  N   UNL     1       4.186  -4.925  22.671  0.00  0.00    -0.042 NA
ATOM     32  N   UNL     1       4.927  -3.834  22.559  0.00  0.00    -0.022 NA
ATOM     33  N   UNL     1       4.813  -3.048  23.677  0.00  0.00    -0.101 NA
BRANCH  30  34
ATOM     34  C   UNL     1       2.777  -5.928  24.326  0.00  0.00    +0.345 C 
BRANCH  34  35
ATOM     35  S   UNL     1       3.693  -7.325  24.926  0.00  0.00    +0.100 S 
ATOM     36  O   UNL     1       2.881  -8.518  24.879  0.00  0.00    -0.146 OA
ATOM     37  O   UNL     1       4.406  -6.934  26.129  0.00  0.00    -0.146 OA
BRANCH  35  38
ATOM     38  O   UNL     1       4.819  -7.422  23.773  0.00  0.00    -0.252 OA
ATOM     39  H   UNL     1       5.709  -7.301  24.168  0.00  0.00    +0.245 HD
ENDBRANCH  35  38
ENDBRANCH  34  35
ENDBRANCH  30  34
ENDBRANCH  28  29
ENDBRANCH  27  28
ENDBRANCH   7  27
TORSDOF 12
ENDMDL
MODEL 2
REMARK VINA RESULT:      -7.2      2.320      3.317
REMARK  Name = 
REMARK  12 active torsions:
REMARK  status: ('A' for Active; 'I' for Inactive)
REMARK    1  A    between atoms: C_5  and  C_6
REMARK    2  A    between atoms: C_6  and  S_7
REMARK    3  A    between atoms: S_7  and  C_8
REMARK    4  A    between atoms: N_12  and  C_13
REMARK    5  A    between atoms: C_13  and  S_14
REMARK    6  A    between atoms: S_14  and  O_15
REMARK    7  A    between atoms: CA_18  and  C_36
REMARK    8  A    between atoms: CA_22  and  N_24
REMARK    9  A    between atoms: C_25  and  C_27
REMARK   10  A    between atoms: C_27  and  O_29
REMARK   11  A    between atoms: C_27  and  C_30
REMARK   12  A    between atoms: C_36  and  O_37
REMARK                            x       y       z     vdW  Elec       q    Type
REMARK                         _______ _______ _______ _____ _____    ______ ____
ROOT
ATOM      1  C   UNL     1       8.097  -1.400  25.372  0.00  0.00    +0.169 C 
ATOM      2  CA  UNL     1       9.437  -0.765  24.854  0.00  0.00    +0.191 C 
ATOM      3  C   UNL     1       9.500  -2.062  23.974  0.00  0.00    +0.244 C 
ATOM      4  O   UNL     1      10.232  -2.569  23.157  0.00  0.00    -0.273 OA
ATOM      5  N   UNL     1       8.243  -2.399  24.335  0.00  0.00    -0.249 N 
ATOM      6  CA  UNL     1       7.284  -3.317  23.989  0.00  0.00    +0.123 C 
ATOM      7  C   UNL     1       5.986  -3.108  24.360  0.00  0.00    -0.021 C 
ATOM      8  C   UNL     1       5.496  -1.865  25.100  0.00  0.00    +0.104 C 
ATOM      9  S   UNL     1       6.605  -0.438  25.041  0.00  0.00    -0.131 S 
ENDROOT
BRANCH   2  10
ATOM     10  N   UNL     1       9.309   0.505  24.097  0.00  0.00    -0.299 N 
ATOM     11  H   UNL     1       8.411   0.784  23.699  0.00  0.00    +0.150 HD
ATOM     12  C   UNL     1      10.346   1.387  23.871  0.00  0.00    +0.247 C 
ATOM     13  O   UNL     1      11.472   1.235  24.332  0.00  0.00    -0.273 OA
BRANCH  12  14
ATOM     14  C   UNL     1       9.939   2.573  22.965  0.00  0.00    +0.230 C 
BRANCH  14  15
ATOM     15  C   UNL     1      10.493   3.891  23.464  0.00  0.00    -0.010 A 
ATOM     16  C   UNL     1      11.836   4.249  23.256  0.00  0.00    +0.006 A 
ATOM     17  C   UNL     1      12.327   5.473  23.712  0.00  0.00    +0.000 A 
ATOM     18  C   UNL     1      11.487   6.354  24.388  0.00  0.00    +0.000 A 
ATOM     19  C   UNL     1      10.158   6.006  24.619  0.00  0.00    +0.000 A 
ATOM     20  C   UNL     1       9.664   4.780  24.165  0.00  0.00    +0.006 A 
ENDBRANCH  14  15
BRANCH  14  21
ATOM     21  O   UNL     1      10.400   2.341  21.626  0.00  0.00    -0.378 OA
ATOM     22  H   UNL     1       9.627   2.484  21.050  0.00  0.00    +0.211 HD
ENDBRANCH  14  21
ENDBRANCH  12  14
ENDBRANCH   2  10
BRANCH   6  23
ATOM     23  C   UNL     1       7.639  -4.536  23.159  0.00  0.00    +0.351 C 
ATOM     24  OXT UNL     1       7.307  -4.670  21.987  0.00  0.00    -0.244 OA
BRANCH  23  25
ATOM     25  O   UNL     1       8.357  -5.503  23.751  0.00  0.00    -0.476 OA
ATOM     26  H   UNL     1       8.947  -5.266  24.501  0.00  0.00    +0.295 HD
ENDBRANCH  23  25
ENDBRANCH   6  23
BRANCH   7  27
ATOM     27  C   UNL     1       4.798  -3.986  23.937  0.00  0.00    +0.111 C 
BRANCH  27  28
ATOM     28  S   UNL     1       3.287  -3.690  24.924  0.00  0.00    -0.080 S 
BRANCH  28  29
ATOM     29  C   UNL     1       3.281  -5.141  25.873  0.00  0.00    +0.211 A 
ATOM     30  N   UNL     1       4.038  -5.391  26.982  0.00  0.00    -0.196 N 
ATOM     31  N   UNL     1       3.791  -6.650  27.409  0.00  0.00    -0.042 NA
ATOM     32  N   UNL     1       2.876  -7.129  26.581  0.00  0.00    -0.022 NA
ATOM     33  N   UNL     1       2.551  -6.206  25.622  0.00  0.00    -0.101 NA
BRANCH  30  34
ATOM     34  C   UNL     1       5.083  -4.647  27.628  0.00  0.00    +0.345 C 
BRANCH  34  35
ATOM     35  S   UNL     1       6.701  -5.368  27.523  0.00  0.00    +0.100 S 
ATOM     36  O   UNL     1       6.899  -6.321  28.591  0.00  0.00    -0.146 OA
ATOM     37  O   UNL     1       7.664  -4.316  27.250  0.00  0.00    -0.146 OA
BRANCH  35  38
ATOM     38  O   UNL     1       6.545  -6.177  26.135  0.00  0.00    -0.252 OA
ATOM     39  H   UNL     1       6.268  -7.101  26.320  0.00  0.00    +0.245 HD
ENDBRANCH  35  38
ENDBRANCH  34  35
ENDBRANCH  30  34
ENDBRANCH  28  29
ENDBRANCH  27  28
ENDBRANCH   7  27
TORSDOF 12
ENDMDL
MODEL 3
REMARK VINA RESULT:      -7.2      2.326      3.009
REMARK  Name = 
REMARK  12 active torsions:
REMARK  status: ('A' for Active; 'I' for Inactive)
REMARK    1  A    between atoms: C_5  and  C_6
REMARK    2  A    between atoms: C_6  and  S_7
REMARK    3  A    between atoms: S_7  and  C_8
REMARK    4  A    between atoms: N_12  and  C_13
REMARK    5  A    between atoms: C_13  and  S_14
REMARK    6  A    between atoms: S_14  and  O_15
REMARK    7  A    between atoms: CA_18  and  C_36
REMARK    8  A    between atoms: CA_22  and  N_24
REMARK    9  A    between atoms: C_25  and  C_27
REMARK   10  A    between atoms: C_27  and  O_29
REMARK   11  A    between atoms: C_27  and  C_30
REMARK   12  A    between atoms: C_36  and  O_37
REMARK                            x       y       z     vdW  Elec       q    Type
REMARK                         _______ _______ _______ _____ _____    ______ ____
ROOT
ATOM      1  C   UNL     1       8.212  -0.817  26.554  0.00  0.00    +0.169 C 
ATOM      2  CA  UNL     1       9.438  -0.476  25.633  0.00  0.00    +0.191 C 
ATOM      3  C   UNL     1       9.110  -1.868  24.989  0.00  0.00    +0.244 C 
ATOM      4  O   UNL     1       9.536  -2.586  24.115  0.00  0.00    -0.273 OA
ATOM      5  N   UNL     1       7.959  -1.950  25.690  0.00  0.00    -0.249 N 
ATOM      6  CA  UNL     1       6.838  -2.740  25.740  0.00  0.00    +0.123 C 
ATOM      7  C   UNL     1       5.718  -2.279  26.372  0.00  0.00    -0.021 C 
ATOM      8  C   UNL     1       5.594  -0.890  26.994  0.00  0.00    +0.104 C 
ATOM      9  S   UNL     1       6.816   0.321  26.437  0.00  0.00    -0.131 S 
ENDROOT
BRANCH   2  10
ATOM     10  N   UNL     1       9.274   0.691  24.731  0.00  0.00    -0.299 N 
ATOM     11  H   UNL     1       8.351   1.098  24.571  0.00  0.00    +0.150 HD
ATOM     12  C   UNL     1      10.307   1.307  24.054  0.00  0.00    +0.247 C 
ATOM     13  O   UNL     1      11.483   0.984  24.183  0.00  0.00    -0.273 OA
BRANCH  12  14
ATOM     14  C   UNL     1       9.822   2.431  23.110  0.00  0.00    +0.230 C 
BRANCH  14  15
ATOM     15  C   UNL     1      10.314   3.796  23.543  0.00  0.00    -0.010 A 
ATOM     16  C   UNL     1      11.637   4.209  23.305  0.00  0.00    +0.006 A 
ATOM     17  C   UNL     1      12.071   5.474  23.700  0.00  0.00    +0.000 A 
ATOM     18  C   UNL     1      11.194   6.343  24.344  0.00  0.00    +0.000 A 
ATOM     19  C   UNL     1       9.886   5.942  24.604  0.00  0.00    +0.000 A 
ATOM     20  C   UNL     1       9.448   4.675  24.211  0.00  0.00    +0.006 A 
ENDBRANCH  14  15
BRANCH  14  21
ATOM     21  O   UNL     1      10.269   2.168  21.771  0.00  0.00    -0.378 OA
ATOM     22  H   UNL     1      10.600   3.018  21.430  0.00  0.00    +0.211 HD
ENDBRANCH  14  21
ENDBRANCH  12  14
ENDBRANCH   2  10
BRANCH   6  23
ATOM     23  C   UNL     1       6.812  -4.095  25.061  0.00  0.00    +0.351 C 
ATOM     24  OXT UNL     1       6.395  -4.268  23.921  0.00  0.00    -0.244 OA
BRANCH  23  25
ATOM     25  O   UNL     1       7.277  -5.147  25.754  0.00  0.00    -0.476 OA
ATOM     26  H   UNL     1       6.724  -5.524  26.474  0.00  0.00    +0.295 HD
ENDBRANCH  23  25
ENDBRANCH   6  23
BRANCH   7  27
ATOM     27  C   UNL     1       4.362  -3.003  26.396  0.00  0.00    +0.111 C 
BRANCH  27  28
ATOM     28  S   UNL     1       3.913  -3.651  28.045  0.00  0.00    -0.080 S 
BRANCH  28  29
ATOM     29  C   UNL     1       4.964  -5.029  28.104  0.00  0.00    +0.211 A 
ATOM     30  N   UNL     1       4.685  -6.285  27.648  0.00  0.00    -0.196 N 
ATOM     31  N   UNL     1       5.732  -7.096  27.921  0.00  0.00    -0.042 NA
ATOM     32  N   UNL     1       6.633  -6.322  28.505  0.00  0.00    -0.022 NA
ATOM     33  N   UNL     1       6.170  -5.038  28.627  0.00  0.00    -0.101 NA
BRANCH  30  34
ATOM     34  C   UNL     1       3.494  -6.874  27.104  0.00  0.00    +0.345 C 
BRANCH  34  35
ATOM     35  S   UNL     1       3.426  -6.946  25.331  0.00  0.00    +0.100 S 
ATOM     36  O   UNL     1       2.747  -5.784  24.805  0.00  0.00    -0.146 OA
ATOM     37  O   UNL     1       3.058  -8.292  24.932  0.00  0.00    -0.146 OA
BRANCH  35  38
ATOM     38  O   UNL     1       5.001  -6.816  24.998  0.00  0.00    -0.252 OA
ATOM     39  H   UNL     1       5.185  -5.933  24.611  0.00  0.00    +0.245 HD
ENDBRANCH  35  38
ENDBRANCH  34  35
ENDBRANCH  30  34
ENDBRANCH  28  29
ENDBRANCH  27  28
ENDBRANCH   7  27
TORSDOF 12
ENDMDL
MODEL 4
REMARK VINA RESULT:      -7.2      1.970      2.708
REMARK  Name = 
REMARK  12 active torsions:
REMARK  status: ('A' for Active; 'I' for Inactive)
REMARK    1  A    between atoms: C_5  and  C_6
REMARK    2  A    between atoms: C_6  and  S_7
REMARK    3  A    between atoms: S_7  and  C_8
REMARK    4  A    between atoms: N_12  and  C_13
REMARK    5  A    between atoms: C_13  and  S_14
REMARK    6  A    between atoms: S_14  and  O_15
REMARK    7  A    between atoms: CA_18  and  C_36
REMARK    8  A    between atoms: CA_22  and  N_24
REMARK    9  A    between atoms: C_25  and  C_27
REMARK   10  A    between atoms: C_27  and  O_29
REMARK   11  A    between atoms: C_27  and  C_30
REMARK   12  A    between atoms: C_36  and  O_37
REMARK                            x       y       z     vdW  Elec       q    Type
REMARK                         _______ _______ _______ _____ _____    ______ ____
ROOT
ATOM      1  C   UNL     1       8.675  -1.607  26.089  0.00  0.00    +0.169 C 
ATOM      2  CA  UNL     1       9.521  -0.794  25.045  0.00  0.00    +0.191 C 
ATOM      3  C   UNL     1       9.871  -2.218  24.489  0.00  0.00    +0.244 C 
ATOM      4  O   UNL     1      10.537  -2.710  23.609  0.00  0.00    -0.273 OA
ATOM      5  N   UNL     1       8.952  -2.788  25.298  0.00  0.00    -0.249 N 
ATOM      6  CA  UNL     1       8.360  -4.012  25.484  0.00  0.00    +0.123 C 
ATOM      7  C   UNL     1       7.200  -4.099  26.198  0.00  0.00    -0.021 C 
ATOM      8  C   UNL     1       6.455  -2.896  26.774  0.00  0.00    +0.104 C 
ATOM      9  S   UNL     1       6.897  -1.295  26.058  0.00  0.00    -0.131 S 
ENDROOT
BRANCH   2  10
ATOM     10  N   UNL     1       8.755   0.074  24.116  0.00  0.00    -0.299 N 
ATOM     11  H   UNL     1       7.750   0.209  24.242  0.00  0.00    +0.150 HD
ATOM     12  C   UNL     1       9.304   0.749  23.045  0.00  0.00    +0.247 C 
ATOM     13  O   UNL     1      10.503   0.745  22.791  0.00  0.00    -0.273 OA
BRANCH  12  14
ATOM     14  C   UNL     1       8.246   1.492  22.197  0.00  0.00    +0.230 C 
BRANCH  14  15
ATOM     15  C   UNL     1       8.162   2.963  22.545  0.00  0.00    -0.010 A 
ATOM     16  C   UNL     1       9.027   3.545  23.488  0.00  0.00    +0.006 A 
ATOM     17  C   UNL     1       8.945   4.905  23.788  0.00  0.00    +0.000 A 
ATOM     18  C   UNL     1       7.993   5.702  23.158  0.00  0.00    +0.000 A 
ATOM     19  C   UNL     1       7.115   5.137  22.236  0.00  0.00    +0.000 A 
ATOM     20  C   UNL     1       7.194   3.775  21.934  0.00  0.00    +0.006 A 
ENDBRANCH  14  15
BRANCH  14  21
ATOM     21  O   UNL     1       8.556   1.352  20.802  0.00  0.00    -0.378 OA
ATOM     22  H   UNL     1       7.728   1.546  20.325  0.00  0.00    +0.211 HD
ENDBRANCH  14  21
ENDBRANCH  12  14
ENDBRANCH   2  10
BRANCH   6  23
ATOM     23  C   UNL     1       8.954  -5.263  24.864  0.00  0.00    +0.351 C 
ATOM     24  OXT UNL     1       8.691  -5.639  23.728  0.00  0.00    -0.244 OA
BRANCH  23  25
ATOM     25  O   UNL     1       9.814  -5.978  25.608  0.00  0.00    -0.476 OA
ATOM     26  H   UNL     1      10.771  -5.952  25.383  0.00  0.00    +0.295 HD
ENDBRANCH  23  25
ENDBRANCH   6  23
BRANCH   7  27
ATOM     27  C   UNL     1       6.371  -5.380  26.378  0.00  0.00    +0.111 C 
BRANCH  27  28
ATOM     28  S   UNL     1       4.571  -5.076  26.472  0.00  0.00    -0.080 S 
BRANCH  28  29
ATOM     29  C   UNL     1       4.129  -5.485  24.846  0.00  0.00    +0.211 A 
ATOM     30  N   UNL     1       4.334  -4.723  23.731  0.00  0.00    -0.196 N 
ATOM     31  N   UNL     1       3.803  -5.356  22.661  0.00  0.00    -0.042 NA
ATOM     32  N   UNL     1       3.315  -6.493  23.132  0.00  0.00    -0.022 NA
ATOM     33  N   UNL     1       3.508  -6.586  24.486  0.00  0.00    -0.101 NA
BRANCH  30  34
ATOM     34  C   UNL     1       4.848  -3.395  23.549  0.00  0.00    +0.345 C 
BRANCH  34  35
ATOM     35  S   UNL     1       6.031  -3.214  22.238  0.00  0.00    +0.100 S 
ATOM     36  O   UNL     1       7.074  -2.292  22.623  0.00  0.00    -0.146 OA
ATOM     37  O   UNL     1       5.318  -3.079  20.980  0.00  0.00    -0.146 OA
BRANCH  35  38
ATOM     38  O   UNL     1       6.646  -4.708  22.224  0.00  0.00    -0.252 OA
ATOM     39  H   UNL     1       6.244  -5.224  21.492  0.00  0.00    +0.245 HD
ENDBRANCH  35  38
ENDBRANCH  34  35
ENDBRANCH  30  34
ENDBRANCH  28  29
ENDBRANCH  27  28
ENDBRANCH   7  27
TORSDOF 12
ENDMDL
MODEL 5
REMARK VINA RESULT:      -7.1      2.051      3.026
REMARK  Name = 
REMARK  12 active torsions:
REMARK  status: ('A' for Active; 'I' for Inactive)
REMARK    1  A    between atoms: C_5  and  C_6
REMARK    2  A    between atoms: C_6  and  S_7
REMARK    3  A    between atoms: S_7  and  C_8
REMARK    4  A    between atoms: N_12  and  C_13
REMARK    5  A    between atoms: C_13  and  S_14
REMARK    6  A    between atoms: S_14  and  O_15
REMARK    7  A    between atoms: CA_18  and  C_36
REMARK    8  A    between atoms: CA_22  and  N_24
REMARK    9  A    between atoms: C_25  and  C_27
REMARK   10  A    between atoms: C_27  and  O_29
REMARK   11  A    between atoms: C_27  and  C_30
REMARK   12  A    between atoms: C_36  and  O_37
REMARK                            x       y       z     vdW  Elec       q    Type
REMARK                         _______ _______ _______ _____ _____    ______ ____
ROOT
ATOM      1  C   UNL     1       7.440  -1.923  26.925  0.00  0.00    +0.169 C 
ATOM      2  CA  UNL     1       8.696  -2.005  25.986  0.00  0.00    +0.191 C 
ATOM      3  C   UNL     1       8.542  -3.549  26.215  0.00  0.00    +0.244 C 
ATOM      4  O   UNL     1       9.093  -4.574  25.890  0.00  0.00    -0.273 OA
ATOM      5  N   UNL     1       7.353  -3.365  26.830  0.00  0.00    -0.249 N 
ATOM      6  CA  UNL     1       6.305  -4.121  27.293  0.00  0.00    +0.123 C 
ATOM      7  C   UNL     1       5.105  -3.522  27.550  0.00  0.00    -0.021 C 
ATOM      8  C   UNL     1       4.812  -2.044  27.298  0.00  0.00    +0.104 C 
ATOM      9  S   UNL     1       5.961  -1.205  26.180  0.00  0.00    -0.131 S 
ENDROOT
BRANCH   2  10
ATOM     10  N   UNL     1       8.497  -1.552  24.587  0.00  0.00    -0.299 N 
ATOM     11  H   UNL     1       7.712  -0.946  24.345  0.00  0.00    +0.150 HD
ATOM     12  C   UNL     1       9.318  -1.892  23.531  0.00  0.00    +0.247 C 
ATOM     13  O   UNL     1      10.339  -2.559  23.661  0.00  0.00    -0.273 OA
BRANCH  12  14
ATOM     14  C   UNL     1       8.805  -1.357  22.174  0.00  0.00    +0.230 C 
BRANCH  14  15
ATOM     15  C   UNL     1       8.536   0.133  22.211  0.00  0.00    -0.010 A 
ATOM     16  C   UNL     1       7.229   0.642  22.305  0.00  0.00    +0.006 A 
ATOM     17  C   UNL     1       7.000   2.017  22.350  0.00  0.00    +0.000 A 
ATOM     18  C   UNL     1       8.071   2.905  22.293  0.00  0.00    +0.000 A 
ATOM     19  C   UNL     1       9.371   2.418  22.180  0.00  0.00    +0.000 A 
ATOM     20  C   UNL     1       9.604   1.041  22.133  0.00  0.00    +0.006 A 
ENDBRANCH  14  15
BRANCH  14  21
ATOM     21  O   UNL     1       9.766  -1.640  21.146  0.00  0.00    -0.378 OA
ATOM     22  H   UNL     1      10.046  -2.562  21.291  0.00  0.00    +0.211 HD
ENDBRANCH  14  21
ENDBRANCH  12  14
ENDBRANCH   2  10
BRANCH   6  23
ATOM     23  C   UNL     1       6.451  -5.619  27.477  0.00  0.00    +0.351 C 
ATOM     24  OXT UNL     1       6.634  -6.146  28.568  0.00  0.00    -0.244 OA
BRANCH  23  25
ATOM     25  O   UNL     1       6.365  -6.391  26.382  0.00  0.00    -0.476 OA
ATOM     26  H   UNL     1       5.956  -7.282  26.461  0.00  0.00    +0.295 HD
ENDBRANCH  23  25
ENDBRANCH   6  23
BRANCH   7  27
ATOM     27  C   UNL     1       3.821  -4.263  27.953  0.00  0.00    +0.111 C 
BRANCH  27  28
ATOM     28  S   UNL     1       2.581  -4.352  26.612  0.00  0.00    -0.080 S 
BRANCH  28  29
ATOM     29  C   UNL     1       3.297  -5.601  25.646  0.00  0.00    +0.211 A 
ATOM     30  N   UNL     1       3.847  -5.455  24.405  0.00  0.00    -0.196 N 
ATOM     31  N   UNL     1       4.249  -6.666  23.956  0.00  0.00    -0.042 NA
ATOM     32  N   UNL     1       3.968  -7.514  24.933  0.00  0.00    -0.022 NA
ATOM     33  N   UNL     1       3.376  -6.869  25.987  0.00  0.00    -0.101 NA
BRANCH  30  34
ATOM     34  C   UNL     1       3.923  -4.338  23.506  0.00  0.00    +0.345 C 
BRANCH  34  35
ATOM     35  S   UNL     1       5.534  -4.018  22.832  0.00  0.00    +0.100 S 
ATOM     36  O   UNL     1       5.868  -2.619  22.963  0.00  0.00    -0.146 OA
ATOM     37  O   UNL     1       5.657  -4.716  21.565  0.00  0.00    -0.146 OA
BRANCH  35  38
ATOM     38  O   UNL     1       6.433  -4.861  23.875  0.00  0.00    -0.252 OA
ATOM     39  H   UNL     1       6.487  -5.797  23.584  0.00  0.00    +0.245 HD
ENDBRANCH  35  38
ENDBRANCH  34  35
ENDBRANCH  30  34
ENDBRANCH  28  29
ENDBRANCH  27  28
ENDBRANCH   7  27
TORSDOF 12
ENDMDL
MODEL 6
REMARK VINA RESULT:      -7.1      2.493      3.736
REMARK  Name = 
REMARK  12 active torsions:
REMARK  status: ('A' for Active; 'I' for Inactive)
REMARK    1  A    between atoms: C_5  and  C_6
REMARK    2  A    between atoms: C_6  and  S_7
REMARK    3  A    between atoms: S_7  and  C_8
REMARK    4  A    between atoms: N_12  and  C_13
REMARK    5  A    between atoms: C_13  and  S_14
REMARK    6  A    between atoms: S_14  and  O_15
REMARK    7  A    between atoms: CA_18  and  C_36
REMARK    8  A    between atoms: CA_22  and  N_24
REMARK    9  A    between atoms: C_25  and  C_27
REMARK   10  A    between atoms: C_27  and  O_29
REMARK   11  A    between atoms: C_27  and  C_30
REMARK   12  A    between atoms: C_36  and  O_37
REMARK                            x       y       z     vdW  Elec       q    Type
REMARK                         _______ _______ _______ _____ _____    ______ ____
ROOT
ATOM      1  C   UNL     1       8.847  -4.249  24.636  0.00  0.00    +0.169 C 
ATOM      2  CA  UNL     1       9.206  -3.010  23.740  0.00  0.00    +0.191 C 
ATOM      3  C   UNL     1       7.817  -3.313  23.079  0.00  0.00    +0.244 C 
ATOM      4  O   UNL     1       7.120  -2.880  22.190  0.00  0.00    -0.273 OA
ATOM      5  N   UNL     1       7.529  -4.219  24.038  0.00  0.00    -0.249 N 
ATOM      6  CA  UNL     1       6.458  -4.966  24.461  0.00  0.00    +0.123 C 
ATOM      7  C   UNL     1       6.474  -5.519  25.710  0.00  0.00    -0.021 C 
ATOM      8  C   UNL     1       7.598  -5.315  26.724  0.00  0.00    +0.104 C 
ATOM      9  S   UNL     1       8.688  -3.908  26.401  0.00  0.00    -0.131 S 
ENDROOT
BRANCH   2  10
ATOM     10  N   UNL     1       9.300  -1.703  24.438  0.00  0.00    -0.299 N 
ATOM     11  H   UNL     1       8.863  -1.570  25.351  0.00  0.00    +0.150 HD
ATOM     12  C   UNL     1       9.957  -0.597  23.940  0.00  0.00    +0.247 C 
ATOM     13  O   UNL     1      10.587  -0.605  22.888  0.00  0.00    -0.273 OA
BRANCH  12  14
ATOM     14  C   UNL     1       9.800   0.651  24.840  0.00  0.00    +0.230 C 
BRANCH  14  15
ATOM     15  C   UNL     1       8.927   1.711  24.202  0.00  0.00    -0.010 A 
ATOM     16  C   UNL     1       9.326   3.058  24.149  0.00  0.00    +0.006 A 
ATOM     17  C   UNL     1       8.515   4.019  23.546  0.00  0.00    +0.000 A 
ATOM     18  C   UNL     1       7.289   3.653  22.995  0.00  0.00    +0.000 A 
ATOM     19  C   UNL     1       6.871   2.326  23.056  0.00  0.00    +0.000 A 
ATOM     20  C   UNL     1       7.680   1.360  23.660  0.00  0.00    +0.006 A 
ENDBRANCH  14  15
BRANCH  14  21
ATOM     21  O   UNL     1       9.237   0.271  26.104  0.00  0.00    -0.378 OA
ATOM     22  H   UNL     1       8.750  -0.557  25.940  0.00  0.00    +0.211 HD
ENDBRANCH  14  21
ENDBRANCH  12  14
ENDBRANCH   2  10
BRANCH   6  23
ATOM     23  C   UNL     1       5.239  -5.146  23.577  0.00  0.00    +0.351 C 
ATOM     24  OXT UNL     1       4.977  -6.194  23.000  0.00  0.00    -0.244 OA
BRANCH  23  25
ATOM     25  O   UNL     1       4.414  -4.096  23.435  0.00  0.00    -0.476 OA
ATOM     26  H   UNL     1       4.593  -3.444  22.721  0.00  0.00    +0.295 HD
ENDBRANCH  23  25
ENDBRANCH   6  23
BRANCH   7  27
ATOM     27  C   UNL     1       5.299  -6.271  26.353  0.00  0.00    +0.111 C 
BRANCH  27  28
ATOM     28  S   UNL     1       4.428  -5.301  27.634  0.00  0.00    -0.080 S 
BRANCH  28  29
ATOM     29  C   UNL     1       3.477  -4.272  26.613  0.00  0.00    +0.211 A 
ATOM     30  N   UNL     1       3.646  -2.929  26.428  0.00  0.00    -0.196 N 
ATOM     31  N   UNL     1       2.677  -2.473  25.602  0.00  0.00    -0.042 NA
ATOM     32  N   UNL     1       1.961  -3.539  25.278  0.00  0.00    -0.022 NA
ATOM     33  N   UNL     1       2.445  -4.661  25.898  0.00  0.00    -0.101 NA
BRANCH  30  34
ATOM     34  C   UNL     1       4.524  -1.971  27.039  0.00  0.00    +0.345 C 
BRANCH  34  35
ATOM     35  S   UNL     1       5.407  -0.925  25.909  0.00  0.00    +0.100 S 
ATOM     36  O   UNL     1       6.821  -0.941  26.207  0.00  0.00    -0.146 OA
ATOM     37  O   UNL     1       4.674   0.318  25.752  0.00  0.00    -0.146 OA
BRANCH  35  38
ATOM     38  O   UNL     1       5.162  -1.744  24.539  0.00  0.00    -0.252 OA
ATOM     39  H   UNL     1       5.945  -1.652  23.954  0.00  0.00    +0.245 HD
ENDBRANCH  35  38
ENDBRANCH  34  35
ENDBRANCH  30  34
ENDBRANCH  28  29
ENDBRANCH  27  28
ENDBRANCH   7  27
TORSDOF 12
ENDMDL
MODEL 7
REMARK VINA RESULT:      -6.7      2.255      2.813
REMARK  Name = 
REMARK  12 active torsions:
REMARK  status: ('A' for Active; 'I' for Inactive)
REMARK    1  A    between atoms: C_5  and  C_6
REMARK    2  A    between atoms: C_6  and  S_7
REMARK    3  A    between atoms: S_7  and  C_8
REMARK    4  A    between atoms: N_12  and  C_13
REMARK    5  A    between atoms: C_13  and  S_14
REMARK    6  A    between atoms: S_14  and  O_15
REMARK    7  A    between atoms: CA_18  and  C_36
REMARK    8  A    between atoms: CA_22  and  N_24
REMARK    9  A    between atoms: C_25  and  C_27
REMARK   10  A    between atoms: C_27  and  O_29
REMARK   11  A    between atoms: C_27  and  C_30
REMARK   12  A    between atoms: C_36  and  O_37
REMARK                            x       y       z     vdW  Elec       q    Type
REMARK                         _______ _______ _______ _____ _____    ______ ____
ROOT
ATOM      1  C   UNL     1       9.053  -3.914  24.634  0.00  0.00    +0.169 C 
ATOM      2  CA  UNL     1       9.335  -2.642  23.756  0.00  0.00    +0.191 C 
ATOM      3  C   UNL     1       8.036  -3.097  23.003  0.00  0.00    +0.244 C 
ATOM      4  O   UNL     1       7.359  -2.742  22.066  0.00  0.00    -0.273 OA
ATOM      5  N   UNL     1       7.784  -4.029  23.946  0.00  0.00    -0.249 N 
ATOM      6  CA  UNL     1       6.776  -4.891  24.300  0.00  0.00    +0.123 C 
ATOM      7  C   UNL     1       6.766  -5.439  25.551  0.00  0.00    -0.021 C 
ATOM      8  C   UNL     1       7.788  -5.113  26.638  0.00  0.00    +0.104 C 
ATOM      9  S   UNL     1       8.736  -3.594  26.382  0.00  0.00    -0.131 S 
ENDROOT
BRANCH   2  10
ATOM     10  N   UNL     1       9.236  -1.334  24.449  0.00  0.00    -0.299 N 
ATOM     11  H   UNL     1       8.687  -1.241  25.306  0.00  0.00    +0.150 HD
ATOM     12  C   UNL     1       9.849  -0.174  24.021  0.00  0.00    +0.247 C 
ATOM     13  O   UNL     1      10.594  -0.127  23.048  0.00  0.00    -0.273 OA
BRANCH  12  14
ATOM     14  C   UNL     1       9.484   1.054  24.887  0.00  0.00    +0.230 C 
BRANCH  14  15
ATOM     15  C   UNL     1       8.784   2.131  24.086  0.00  0.00    -0.010 A 
ATOM     16  C   UNL     1       7.684   1.836  23.261  0.00  0.00    +0.006 A 
ATOM     17  C   UNL     1       7.043   2.843  22.539  0.00  0.00    +0.000 A 
ATOM     18  C   UNL     1       7.495   4.158  22.624  0.00  0.00    +0.000 A 
ATOM     19  C   UNL     1       8.594   4.464  23.422  0.00  0.00    +0.000 A 
ATOM     20  C   UNL     1       9.240   3.457  24.145  0.00  0.00    +0.006 A 
ENDBRANCH  14  15
BRANCH  14  21
ATOM     21  O   UNL     1       8.640   0.648  25.975  0.00  0.00    -0.378 OA
ATOM     22  H   UNL     1       8.870   1.230  26.721  0.00  0.00    +0.211 HD
ENDBRANCH  14  21
ENDBRANCH  12  14
ENDBRANCH   2  10
BRANCH   6  23
ATOM     23  C   UNL     1       5.648  -5.202  23.336  0.00  0.00    +0.351 C 
ATOM     24  OXT UNL     1       5.572  -6.252  22.708  0.00  0.00    -0.244 OA
BRANCH  23  25
ATOM     25  O   UNL     1       4.689  -4.275  23.179  0.00  0.00    -0.476 OA
ATOM     26  H   UNL     1       4.456  -3.982  22.269  0.00  0.00    +0.295 HD
ENDBRANCH  23  25
ENDBRANCH   6  23
BRANCH   7  27
ATOM     27  C   UNL     1       5.639  -6.317  26.117  0.00  0.00    +0.111 C 
BRANCH  27  28
ATOM     28  S   UNL     1       4.631  -5.475  27.389  0.00  0.00    -0.080 S 
BRANCH  28  29
ATOM     29  C   UNL     1       3.592  -4.546  26.358  0.00  0.00    +0.211 A 
ATOM     30  N   UNL     1       2.492  -5.002  25.688  0.00  0.00    -0.196 N 
ATOM     31  N   UNL     1       1.979  -3.994  24.947  0.00  0.00    -0.042 NA
ATOM     32  N   UNL     1       2.747  -2.946  25.199  0.00  0.00    -0.022 NA
ATOM     33  N   UNL     1       3.753  -3.274  26.071  0.00  0.00    -0.101 NA
BRANCH  30  34
ATOM     34  C   UNL     1       1.927  -6.313  25.536  0.00  0.00    +0.345 C 
BRANCH  34  35
ATOM     35  S   UNL     1       2.061  -7.012  23.910  0.00  0.00    +0.100 S 
ATOM     36  O   UNL     1       2.267  -5.972  22.929  0.00  0.00    -0.146 OA
ATOM     37  O   UNL     1       1.030  -8.021  23.748  0.00  0.00    -0.146 OA
BRANCH  35  38
ATOM     38  O   UNL     1       3.441  -7.833  24.085  0.00  0.00    -0.252 OA
ATOM     39  H   UNL     1       3.873  -7.578  24.929  0.00  0.00    +0.245 HD
ENDBRANCH  35  38
ENDBRANCH  34  35
ENDBRANCH  30  34
ENDBRANCH  28  29
ENDBRANCH  27  28
ENDBRANCH   7  27
TORSDOF 12
ENDMDL
MODEL 8
REMARK VINA RESULT:      -6.7      3.221      4.484
REMARK  Name = 
REMARK  12 active torsions:
REMARK  status: ('A' for Active; 'I' for Inactive)
REMARK    1  A    between atoms: C_5  and  C_6
REMARK    2  A    between atoms: C_6  and  S_7
REMARK    3  A    between atoms: S_7  and  C_8
REMARK    4  A    between atoms: N_12  and  C_13
REMARK    5  A    between atoms: C_13  and  S_14
REMARK    6  A    between atoms: S_14  and  O_15
REMARK    7  A    between atoms: CA_18  and  C_36
REMARK    8  A    between atoms: CA_22  and  N_24
REMARK    9  A    between atoms: C_25  and  C_27
REMARK   10  A    between atoms: C_27  and  O_29
REMARK   11  A    between atoms: C_27  and  C_30
REMARK   12  A    between atoms: C_36  and  O_37
REMARK                            x       y       z     vdW  Elec       q    Type
REMARK                         _______ _______ _______ _____ _____    ______ ____
ROOT
ATOM      1  C   UNL     1       7.459   0.259  23.515  0.00  0.00    +0.169 C 
ATOM      2  CA  UNL     1       6.638   1.598  23.533  0.00  0.00    +0.191 C 
ATOM      3  C   UNL     1       5.737   0.821  24.554  0.00  0.00    +0.244 C 
ATOM      4  O   UNL     1       4.735   1.007  25.205  0.00  0.00    -0.273 OA
ATOM      5  N   UNL     1       6.632  -0.189  24.615  0.00  0.00    -0.249 N 
ATOM      6  CA  UNL     1       6.856  -1.323  25.355  0.00  0.00    +0.123 C 
ATOM      7  C   UNL     1       8.089  -1.909  25.331  0.00  0.00    -0.021 C 
ATOM      8  C   UNL     1       9.290  -1.352  24.569  0.00  0.00    +0.104 C 
ATOM      9  S   UNL     1       9.165   0.388  24.091  0.00  0.00    -0.131 S 
ENDROOT
BRANCH   2  10
ATOM     10  N   UNL     1       7.336   2.785  24.085  0.00  0.00    -0.299 N 
ATOM     11  H   UNL     1       7.625   2.809  25.064  0.00  0.00    +0.150 HD
ATOM     12  C   UNL     1       7.648   3.917  23.358  0.00  0.00    +0.247 C 
ATOM     13  O   UNL     1       7.429   4.026  22.157  0.00  0.00    -0.273 OA
BRANCH  12  14
ATOM     14  C   UNL     1       8.283   5.031  24.223  0.00  0.00    +0.230 C 
BRANCH  14  15
ATOM     15  C   UNL     1       9.782   5.118  24.033  0.00  0.00    -0.010 A 
ATOM     16  C   UNL     1      10.514   4.060  23.467  0.00  0.00    +0.006 A 
ATOM     17  C   UNL     1      11.894   4.162  23.288  0.00  0.00    +0.000 A 
ATOM     18  C   UNL     1      12.565   5.317  23.680  0.00  0.00    +0.000 A 
ATOM     19  C   UNL     1      11.857   6.368  24.260  0.00  0.00    +0.000 A 
ATOM     20  C   UNL     1      10.475   6.268  24.442  0.00  0.00    +0.006 A 
ENDBRANCH  14  15
BRANCH  14  21
ATOM     21  O   UNL     1       7.689   6.297  23.897  0.00  0.00    -0.378 OA
ATOM     22  H   UNL     1       7.060   6.117  23.175  0.00  0.00    +0.211 HD
ENDBRANCH  14  21
ENDBRANCH  12  14
ENDBRANCH   2  10
BRANCH   6  23
ATOM     23  C   UNL     1       5.766  -1.904  26.235  0.00  0.00    +0.351 C 
ATOM     24  OXT UNL     1       5.576  -1.547  27.392  0.00  0.00    -0.244 OA
BRANCH  23  25
ATOM     25  O   UNL     1       4.975  -2.850  25.703  0.00  0.00    -0.476 OA
ATOM     26  H   UNL     1       4.080  -2.990  26.086  0.00  0.00    +0.295 HD
ENDBRANCH  23  25
ENDBRANCH   6  23
BRANCH   7  27
ATOM     27  C   UNL     1       8.511  -3.104  26.200  0.00  0.00    +0.111 C 
BRANCH  27  28
ATOM     28  S   UNL     1       8.794  -4.636  25.245  0.00  0.00    -0.080 S 
BRANCH  28  29
ATOM     29  C   UNL     1       7.165  -5.226  25.167  0.00  0.00    +0.211 A 
ATOM     30  N   UNL     1       6.464  -5.532  24.036  0.00  0.00    -0.196 N 
ATOM     31  N   UNL     1       5.211  -5.907  24.382  0.00  0.00    -0.042 NA
ATOM     32  N   UNL     1       5.181  -5.853  25.704  0.00  0.00    -0.022 NA
ATOM     33  N   UNL     1       6.385  -5.431  26.205  0.00  0.00    -0.101 NA
BRANCH  30  34
ATOM     34  C   UNL     1       6.768  -5.386  22.640  0.00  0.00    +0.345 C 
BRANCH  34  35
ATOM     35  S   UNL     1       6.324  -3.822  21.928  0.00  0.00    +0.100 S 
ATOM     36  O   UNL     1       5.698  -4.014  20.640  0.00  0.00    -0.146 OA
ATOM     37  O   UNL     1       7.426  -2.896  22.111  0.00  0.00    -0.146 OA
BRANCH  35  38
ATOM     38  O   UNL     1       5.194  -3.358  22.984  0.00  0.00    -0.252 OA
ATOM     39  H   UNL     1       4.601  -2.698  22.565  0.00  0.00    +0.245 HD
ENDBRANCH  35  38
ENDBRANCH  34  35
ENDBRANCH  30  34
ENDBRANCH  28  29
ENDBRANCH  27  28
ENDBRANCH   7  27
TORSDOF 12
ENDMDL
MODEL 9
REMARK VINA RESULT:      -6.6      3.229      5.265
REMARK  Name = 
REMARK  12 active torsions:
REMARK  status: ('A' for Active; 'I' for Inactive)
REMARK    1  A    between atoms: C_5  and  C_6
REMARK    2  A    between atoms: C_6  and  S_7
REMARK    3  A    between atoms: S_7  and  C_8
REMARK    4  A    between atoms: N_12  and  C_13
REMARK    5  A    between atoms: C_13  and  S_14
REMARK    6  A    between atoms: S_14  and  O_15
REMARK    7  A    between atoms: CA_18  and  C_36
REMARK    8  A    between atoms: CA_22  and  N_24
REMARK    9  A    between atoms: C_25  and  C_27
REMARK   10  A    between atoms: C_27  and  O_29
REMARK   11  A    between atoms: C_27  and  C_30
REMARK   12  A    between atoms: C_36  and  O_37
REMARK                            x       y       z     vdW  Elec       q    Type
REMARK                         _______ _______ _______ _____ _____    ______ ____
ROOT
ATOM      1  C   UNL     1       6.818   1.476  22.293  0.00  0.00    +0.169 C 
ATOM      2  CA  UNL     1       5.897   2.729  22.512  0.00  0.00    +0.191 C 
ATOM      3  C   UNL     1       5.832   2.198  23.986  0.00  0.00    +0.244 C 
ATOM      4  O   UNL     1       5.309   2.494  25.035  0.00  0.00    -0.273 OA
ATOM      5  N   UNL     1       6.795   1.287  23.728  0.00  0.00    -0.249 N 
ATOM      6  CA  UNL     1       7.582   0.398  24.415  0.00  0.00    +0.123 C 
ATOM      7  C   UNL     1       8.702  -0.110  23.820  0.00  0.00    -0.021 C 
ATOM      8  C   UNL     1       9.193   0.293  22.431  0.00  0.00    +0.104 C 
ATOM      9  S   UNL     1       8.512   1.840  21.786  0.00  0.00    -0.131 S 
ENDROOT
BRANCH   2  10
ATOM     10  N   UNL     1       6.544   4.054  22.347  0.00  0.00    -0.299 N 
ATOM     11  H   UNL     1       7.483   4.127  21.953  0.00  0.00    +0.150 HD
ATOM     12  C   UNL     1       5.964   5.256  22.696  0.00  0.00    +0.247 C 
ATOM     13  O   UNL     1       4.818   5.351  23.124  0.00  0.00    -0.273 OA
BRANCH  12  14
ATOM     14  C   UNL     1       6.914   6.461  22.505  0.00  0.00    +0.230 C 
BRANCH  14  15
ATOM     15  C   UNL     1       7.957   6.547  23.600  0.00  0.00    -0.010 A 
ATOM     16  C   UNL     1       9.310   6.261  23.351  0.00  0.00    +0.006 A 
ATOM     17  C   UNL     1      10.259   6.357  24.368  0.00  0.00    +0.000 A 
ATOM     18  C   UNL     1       9.871   6.733  25.652  0.00  0.00    +0.000 A 
ATOM     19  C   UNL     1       8.531   7.001  25.920  0.00  0.00    +0.000 A 
ATOM     20  C   UNL     1       7.577   6.905  24.903  0.00  0.00    +0.006 A 
ENDBRANCH  14  15
BRANCH  14  21
ATOM     21  O   UNL     1       7.571   6.365  21.232  0.00  0.00    -0.378 OA
ATOM     22  H   UNL     1       8.503   6.160  21.429  0.00  0.00    +0.211 HD
ENDBRANCH  14  21
ENDBRANCH  12  14
ENDBRANCH   2  10
BRANCH   6  23
ATOM     23  C   UNL     1       7.250   0.009  25.843  0.00  0.00    +0.351 C 
ATOM     24  OXT UNL     1       7.569   0.685  26.814  0.00  0.00    -0.244 OA
BRANCH  23  25
ATOM     25  O   UNL     1       6.567  -1.131  26.035  0.00  0.00    -0.476 OA
ATOM     26  H   UNL     1       6.731  -1.890  25.431  0.00  0.00    +0.295 HD
ENDBRANCH  23  25
ENDBRANCH   6  23
BRANCH   7  27
ATOM     27  C   UNL     1       9.733  -1.014  24.514  0.00  0.00    +0.111 C 
BRANCH  27  28
ATOM     28  S   UNL     1       9.712  -2.739  23.910  0.00  0.00    -0.080 S 
BRANCH  28  29
ATOM     29  C   UNL     1       8.621  -3.431  25.067  0.00  0.00    +0.211 A 
ATOM     30  N   UNL     1       7.535  -4.212  24.794  0.00  0.00    -0.196 N 
ATOM     31  N   UNL     1       6.906  -4.511  25.954  0.00  0.00    -0.042 NA
ATOM     32  N   UNL     1       7.628  -3.939  26.904  0.00  0.00    -0.022 NA
ATOM     33  N   UNL     1       8.695  -3.264  26.369  0.00  0.00    -0.101 NA
BRANCH  30  34
ATOM     34  C   UNL     1       6.915  -4.611  23.562  0.00  0.00    +0.345 C 
BRANCH  34  35
ATOM     35  S   UNL     1       5.750  -3.452  22.891  0.00  0.00    +0.100 S 
ATOM     36  O   UNL     1       4.665  -4.147  22.238  0.00  0.00    -0.146 OA
ATOM     37  O   UNL     1       6.480  -2.384  22.232  0.00  0.00    -0.146 OA
BRANCH  35  38
ATOM     38  O   UNL     1       5.194  -2.806  24.263  0.00  0.00    -0.252 OA
ATOM     39  H   UNL     1       5.438  -3.380  25.021  0.00  0.00    +0.245 HD
ENDBRANCH  35  38
ENDBRANCH  34  35
ENDBRANCH  30  34
ENDBRANCH  28  29
ENDBRANCH  27  28
ENDBRANCH   7  27
TORSDOF 12
ENDMDL
