MODEL 1
REMARK VINA RESULT:      -7.7      0.000      0.000
REMARK  Name = 
REMARK  5 active torsions:
REMARK  status: ('A' for Active; 'I' for Inactive)
REMARK    1  A    between atoms: C_1  and  C_2
REMARK    2  A    between atoms: C_3  and  O_4
REMARK    3  A    between atoms: C_8  and  C_9
REMARK    4  A    between atoms: N_11  and  C_12
REMARK    5  A    between atoms: C_15  and  C_22
REMARK                            x       y       z     vdW  Elec       q    Type
REMARK                         _______ _______ _______ _____ _____    ______ ____
ROOT
ATOM      1  C   UNL     1       6.923  -3.622  23.108  0.00  0.00    +0.041 A 
ATOM      2  C   UNL     1       6.948  -4.043  21.768  0.00  0.00    +0.024 A 
ATOM      3  C   UNL     1       6.337  -5.228  21.377  0.00  0.00    +0.002 A 
ATOM      4  C   UNL     1       5.740  -6.042  22.332  0.00  0.00    +0.008 A 
ATOM      5  C   UNL     1       5.726  -5.676  23.685  0.00  0.00    -0.016 A 
ATOM      6  C   UNL     1       5.154  -6.553  24.623  0.00  0.00    +0.009 A 
ATOM      7  C   UNL     1       5.112  -6.232  25.979  0.00  0.00    +0.016 A 
ATOM      8  C   UNL     1       5.659  -5.029  26.412  0.00  0.00    +0.065 A 
ATOM      9  C   UNL     1       6.269  -4.169  25.489  0.00  0.00    +0.026 A 
ATOM     10  C   UNL     1       6.303  -4.443  24.100  0.00  0.00    +0.004 A 
ENDROOT
BRANCH   8  11
ATOM     11  C   UNL     1       5.573  -4.621  27.845  0.00  0.00    +0.308 C 
ATOM     12  N   UNL     1       6.200  -5.239  28.793  0.00  0.00    -0.099 NA
ATOM     13  H   UNL     1       6.793  -5.985  28.424  0.00  0.00    +0.363 HD
ATOM     14  N   UNL     1       4.784  -3.569  28.209  0.00  0.00    -0.247 N 
ATOM     15  H   UNL     1       4.606  -3.556  29.208  0.00  0.00    +0.288 HD
ATOM     16  H   UNL     1       3.956  -3.404  27.644  0.00  0.00    +0.288 HD
ENDBRANCH   8  11
BRANCH   1  18
ATOM     17  C   UNL     1       9.011  -2.305  23.568  0.00  0.00    +0.249 C 
ATOM     18  N   UNL     1       7.644  -2.429  23.373  0.00  0.00    -0.281 N 
ATOM     19  H   UNL     1       7.089  -1.645  23.695  0.00  0.00    +0.155 HD
ATOM     20  O   UNL     1       9.778  -3.241  23.751  0.00  0.00    -0.270 OA
BRANCH  17  23
ATOM     21  C   UNL     1       9.059  -0.532  21.114  0.00  0.00    +0.048 C 
ATOM     22  C   UNL     1       9.559  -0.049  22.449  0.00  0.00    +0.003 A 
ATOM     23  C   UNL     1       9.501  -0.878  23.599  0.00  0.00    +0.043 A 
ATOM     24  C   UNL     1       9.886  -0.364  24.855  0.00  0.00    +0.013 A 
ATOM     25  C   UNL     1      10.392   0.926  24.978  0.00  0.00    +0.004 A 
ATOM     26  C   UNL     1      10.526   1.716  23.847  0.00  0.00    +0.046 A 
ATOM     27  C   UNL     1      10.114   1.237  22.601  0.00  0.00    +0.120 A 
BRANCH  27  28
ATOM     28  O   UNL     1      10.303   2.121  21.575  0.00  0.00    -0.506 OA
ATOM     29  H   UNL     1       9.470   2.549  21.331  0.00  0.00    +0.292 HD
ENDBRANCH  27  28
ENDBRANCH  17  23
ENDBRANCH   1  18
TORSDOF 4
ENDMDL
MODEL 2
REMARK VINA RESULT:      -7.4      3.171      7.422
REMARK  Name = 
REMARK  5 active torsions:
REMARK  status: ('A' for Active; 'I' for Inactive)
REMARK    1  A    between atoms: C_1  and  C_2
REMARK    2  A    between atoms: C_3  and  O_4
REMARK    3  A    between atoms: C_8  and  C_9
REMARK    4  A    between atoms: N_11  and  C_12
REMARK    5  A    between atoms: C_15  and  C_22
REMARK                            x       y       z     vdW  Elec       q    Type
REMARK                         _______ _______ _______ _____ _____    ______ ____
ROOT
ATOM      1  C   UNL     1       7.959  -1.510  23.135  0.00  0.00    +0.041 A 
ATOM      2  C   UNL     1       9.171  -2.176  22.886  0.00  0.00    +0.024 A 
ATOM      3  C   UNL     1      10.270  -1.497  22.374  0.00  0.00    +0.002 A 
ATOM      4  C   UNL     1      10.157  -0.151  22.048  0.00  0.00    +0.008 A 
ATOM      5  C   UNL     1       8.955   0.541  22.246  0.00  0.00    -0.016 A 
ATOM      6  C   UNL     1       8.871   1.889  21.857  0.00  0.00    +0.009 A 
ATOM      7  C   UNL     1       7.699   2.621  22.038  0.00  0.00    +0.016 A 
ATOM      8  C   UNL     1       6.587   2.001  22.599  0.00  0.00    +0.065 A 
ATOM      9  C   UNL     1       6.650   0.645  22.952  0.00  0.00    +0.026 A 
ATOM     10  C   UNL     1       7.831  -0.122  22.814  0.00  0.00    +0.004 A 
ENDROOT
BRANCH   8  11
ATOM     11  C   UNL     1       5.337   2.770  22.871  0.00  0.00    +0.308 C 
ATOM     12  N   UNL     1       4.406   2.344  23.662  0.00  0.00    -0.099 NA
ATOM     13  H   UNL     1       4.668   1.462  24.107  0.00  0.00    +0.363 HD
ATOM     14  N   UNL     1       5.123   3.966  22.252  0.00  0.00    -0.247 N 
ATOM     15  H   UNL     1       4.153   4.255  22.310  0.00  0.00    +0.288 HD
ATOM     16  H   UNL     1       5.529   4.080  21.328  0.00  0.00    +0.288 HD
ENDBRANCH   8  11
BRANCH   1  18
ATOM     17  C   UNL     1       5.980  -3.022  22.815  0.00  0.00    +0.249 C 
ATOM     18  N   UNL     1       6.904  -2.340  23.592  0.00  0.00    -0.281 N 
ATOM     19  H   UNL     1       6.649  -2.227  24.567  0.00  0.00    +0.155 HD
ATOM     20  O   UNL     1       5.805  -2.839  21.618  0.00  0.00    -0.270 OA
BRANCH  17  23
ATOM     21  C   UNL     1       6.263  -6.022  22.527  0.00  0.00    +0.048 C 
ATOM     22  C   UNL     1       5.232  -5.408  23.435  0.00  0.00    +0.003 A 
ATOM     23  C   UNL     1       5.130  -4.001  23.587  0.00  0.00    +0.043 A 
ATOM     24  C   UNL     1       4.220  -3.459  24.518  0.00  0.00    +0.013 A 
ATOM     25  C   UNL     1       3.363  -4.280  25.245  0.00  0.00    +0.004 A 
ATOM     26  C   UNL     1       3.401  -5.651  25.046  0.00  0.00    +0.046 A 
ATOM     27  C   UNL     1       4.323  -6.208  24.155  0.00  0.00    +0.120 A 
BRANCH  27  28
ATOM     28  O   UNL     1       4.249  -7.570  24.059  0.00  0.00    -0.506 OA
ATOM     29  H   UNL     1       3.335  -7.856  23.917  0.00  0.00    +0.292 HD
ENDBRANCH  27  28
ENDBRANCH  17  23
ENDBRANCH   1  18
TORSDOF 4
ENDMDL
MODEL 3
REMARK VINA RESULT:      -7.3      4.652      9.086
REMARK  Name = 
REMARK  5 active torsions:
REMARK  status: ('A' for Active; 'I' for Inactive)
REMARK    1  A    between atoms: C_1  and  C_2
REMARK    2  A    between atoms: C_3  and  O_4
REMARK    3  A    between atoms: C_8  and  C_9
REMARK    4  A    between atoms: N_11  and  C_12
REMARK    5  A    between atoms: C_15  and  C_22
REMARK                            x       y       z     vdW  Elec       q    Type
REMARK                         _______ _______ _______ _____ _____    ______ ____
ROOT
ATOM      1  C   UNL     1       7.118   3.834  24.534  0.00  0.00    +0.041 A 
ATOM      2  C   UNL     1       5.842   4.122  25.045  0.00  0.00    +0.024 A 
ATOM      3  C   UNL     1       5.536   5.385  25.539  0.00  0.00    +0.002 A 
ATOM      4  C   UNL     1       6.522   6.364  25.583  0.00  0.00    +0.008 A 
ATOM      5  C   UNL     1       7.817   6.104  25.117  0.00  0.00    -0.016 A 
ATOM      6  C   UNL     1       8.796   7.108  25.226  0.00  0.00    +0.009 A 
ATOM      7  C   UNL     1      10.097   6.900  24.774  0.00  0.00    +0.016 A 
ATOM      8  C   UNL     1      10.437   5.671  24.218  0.00  0.00    +0.065 A 
ATOM      9  C   UNL     1       9.479   4.650  24.144  0.00  0.00    +0.026 A 
ATOM     10  C   UNL     1       8.139   4.834  24.563  0.00  0.00    +0.004 A 
ENDROOT
BRANCH   8  11
ATOM     11  C   UNL     1      11.801   5.434  23.661  0.00  0.00    +0.308 C 
ATOM     12  N   UNL     1      12.867   5.979  24.152  0.00  0.00    -0.099 NA
ATOM     13  H   UNL     1      12.655   6.529  24.987  0.00  0.00    +0.363 HD
ATOM     14  N   UNL     1      11.964   4.633  22.569  0.00  0.00    -0.247 N 
ATOM     15  H   UNL     1      12.873   4.759  22.138  0.00  0.00    +0.288 HD
ATOM     16  H   UNL     1      11.196   4.610  21.903  0.00  0.00    +0.288 HD
ENDBRANCH   8  11
BRANCH   1  18
ATOM     17  C   UNL     1       7.113   1.964  22.858  0.00  0.00    +0.249 C 
ATOM     18  N   UNL     1       7.307   2.488  24.127  0.00  0.00    -0.281 N 
ATOM     19  H   UNL     1       7.345   1.805  24.875  0.00  0.00    +0.155 HD
ATOM     20  O   UNL     1       6.541   2.543  21.943  0.00  0.00    -0.270 OA
BRANCH  17  23
ATOM     21  C   UNL     1       9.912   1.329  21.893  0.00  0.00    +0.048 C 
ATOM     22  C   UNL     1       8.918   0.244  22.208  0.00  0.00    +0.003 A 
ATOM     23  C   UNL     1       7.620   0.553  22.691  0.00  0.00    +0.043 A 
ATOM     24  C   UNL     1       6.746  -0.488  23.069  0.00  0.00    +0.013 A 
ATOM     25  C   UNL     1       7.107  -1.822  22.911  0.00  0.00    +0.004 A 
ATOM     26  C   UNL     1       8.344  -2.133  22.367  0.00  0.00    +0.046 A 
ATOM     27  C   UNL     1       9.237  -1.116  22.022  0.00  0.00    +0.120 A 
BRANCH  27  28
ATOM     28  O   UNL     1      10.417  -1.567  21.498  0.00  0.00    -0.506 OA
ATOM     29  H   UNL     1      11.142  -0.962  21.712  0.00  0.00    +0.292 HD
ENDBRANCH  27  28
ENDBRANCH  17  23
ENDBRANCH   1  18
TORSDOF 4
ENDMDL
MODEL 4
REMARK VINA RESULT:      -7.1      2.576      6.636
REMARK  Name = 
REMARK  5 active torsions:
REMARK  status: ('A' for Active; 'I' for Inactive)
REMARK    1  A    between atoms: C_1  and  C_2
REMARK    2  A    between atoms: C_3  and  O_4
REMARK    3  A    between atoms: C_8  and  C_9
REMARK    4  A    between atoms: N_11  and  C_12
REMARK    5  A    between atoms: C_15  and  C_22
REMARK                            x       y       z     vdW  Elec       q    Type
REMARK                         _______ _______ _______ _____ _____    ______ ____
ROOT
ATOM      1  C   UNL     1       8.327  -1.405  23.188  0.00  0.00    +0.041 A 
ATOM      2  C   UNL     1       9.001  -1.479  21.958  0.00  0.00    +0.024 A 
ATOM      3  C   UNL     1       9.701  -0.387  21.457  0.00  0.00    +0.002 A 
ATOM      4  C   UNL     1       9.688   0.817  22.153  0.00  0.00    +0.008 A 
ATOM      5  C   UNL     1       8.996   0.941  23.365  0.00  0.00    -0.016 A 
ATOM      6  C   UNL     1       8.970   2.190  24.010  0.00  0.00    +0.009 A 
ATOM      7  C   UNL     1       8.300   2.364  25.219  0.00  0.00    +0.016 A 
ATOM      8  C   UNL     1       7.632   1.285  25.791  0.00  0.00    +0.065 A 
ATOM      9  C   UNL     1       7.619   0.047  25.132  0.00  0.00    +0.026 A 
ATOM     10  C   UNL     1       8.314  -0.177  23.920  0.00  0.00    +0.004 A 
ENDROOT
BRANCH   8  11
ATOM     11  C   UNL     1       6.961   1.415  27.117  0.00  0.00    +0.308 C 
ATOM     12  N   UNL     1       5.737   1.811  27.251  0.00  0.00    -0.099 NA
ATOM     13  H   UNL     1       5.290   1.959  26.344  0.00  0.00    +0.363 HD
ATOM     14  N   UNL     1       7.650   1.138  28.261  0.00  0.00    -0.247 N 
ATOM     15  H   UNL     1       7.184   1.506  29.083  0.00  0.00    +0.288 HD
ATOM     16  H   UNL     1       8.651   1.314  28.244  0.00  0.00    +0.288 HD
ENDBRANCH   8  11
BRANCH   1  18
ATOM     17  C   UNL     1       8.106  -3.728  24.117  0.00  0.00    +0.249 C 
ATOM     18  N   UNL     1       7.601  -2.572  23.541  0.00  0.00    -0.281 N 
ATOM     19  H   UNL     1       6.689  -2.667  23.111  0.00  0.00    +0.155 HD
ATOM     20  O   UNL     1       9.297  -3.997  24.212  0.00  0.00    -0.270 OA
BRANCH  17  23
ATOM     21  C   UNL     1       6.759  -5.705  22.262  0.00  0.00    +0.048 C 
ATOM     22  C   UNL     1       6.387  -5.604  23.716  0.00  0.00    +0.003 A 
ATOM     23  C   UNL     1       7.048  -4.696  24.583  0.00  0.00    +0.043 A 
ATOM     24  C   UNL     1       6.744  -4.694  25.961  0.00  0.00    +0.013 A 
ATOM     25  C   UNL     1       5.752  -5.520  26.479  0.00  0.00    +0.004 A 
ATOM     26  C   UNL     1       5.046  -6.354  25.626  0.00  0.00    +0.046 A 
ATOM     27  C   UNL     1       5.360  -6.397  24.265  0.00  0.00    +0.120 A 
BRANCH  27  28
ATOM     28  O   UNL     1       4.585  -7.264  23.544  0.00  0.00    -0.506 OA
ATOM     29  H   UNL     1       4.128  -7.884  24.128  0.00  0.00    +0.292 HD
ENDBRANCH  27  28
ENDBRANCH  17  23
ENDBRANCH   1  18
TORSDOF 4
ENDMDL
MODEL 5
REMARK VINA RESULT:      -6.9      3.090      7.512
REMARK  Name = 
REMARK  5 active torsions:
REMARK  status: ('A' for Active; 'I' for Inactive)
REMARK    1  A    between atoms: C_1  and  C_2
REMARK    2  A    between atoms: C_3  and  O_4
REMARK    3  A    between atoms: C_8  and  C_9
REMARK    4  A    between atoms: N_11  and  C_12
REMARK    5  A    between atoms: C_15  and  C_22
REMARK                            x       y       z     vdW  Elec       q    Type
REMARK                         _______ _______ _______ _____ _____    ______ ____
ROOT
ATOM      1  C   UNL     1       8.696  -0.003  24.492  0.00  0.00    +0.041 A 
ATOM      2  C   UNL     1      10.081  -0.167  24.657  0.00  0.00    +0.024 A 
ATOM      3  C   UNL     1      10.965   0.869  24.374  0.00  0.00    +0.002 A 
ATOM      4  C   UNL     1      10.479   2.067  23.864  0.00  0.00    +0.008 A 
ATOM      5  C   UNL     1       9.107   2.256  23.650  0.00  0.00    -0.016 A 
ATOM      6  C   UNL     1       8.665   3.466  23.087  0.00  0.00    +0.009 A 
ATOM      7  C   UNL     1       7.312   3.704  22.859  0.00  0.00    +0.016 A 
ATOM      8  C   UNL     1       6.382   2.721  23.180  0.00  0.00    +0.065 A 
ATOM      9  C   UNL     1       6.818   1.495  23.703  0.00  0.00    +0.026 A 
ATOM     10  C   UNL     1       8.181   1.228  23.979  0.00  0.00    +0.004 A 
ENDROOT
BRANCH   8  11
ATOM     11  C   UNL     1       4.920   2.965  23.014  0.00  0.00    +0.308 C 
ATOM     12  N   UNL     1       4.027   2.457  23.801  0.00  0.00    -0.099 NA
ATOM     13  H   UNL     1       4.457   1.931  24.564  0.00  0.00    +0.363 HD
ATOM     14  N   UNL     1       4.468   3.731  21.980  0.00  0.00    -0.247 N 
ATOM     15  H   UNL     1       3.474   3.609  21.823  0.00  0.00    +0.288 HD
ATOM     16  H   UNL     1       5.022   3.718  21.128  0.00  0.00    +0.288 HD
ENDBRANCH   8  11
BRANCH   1  18
ATOM     17  C   UNL     1       7.884  -2.329  24.006  0.00  0.00    +0.249 C 
ATOM     18  N   UNL     1       7.923  -1.163  24.755  0.00  0.00    -0.281 N 
ATOM     19  H   UNL     1       7.149  -1.037  25.398  0.00  0.00    +0.155 HD
ATOM     20  O   UNL     1       8.353  -2.453  22.882  0.00  0.00    -0.270 OA
BRANCH  17  23
ATOM     21  C   UNL     1       9.001  -3.861  26.366  0.00  0.00    +0.048 C 
ATOM     22  C   UNL     1       7.670  -4.209  25.755  0.00  0.00    +0.003 A 
ATOM     23  C   UNL     1       7.142  -3.463  24.670  0.00  0.00    +0.043 A 
ATOM     24  C   UNL     1       5.849  -3.751  24.183  0.00  0.00    +0.013 A 
ATOM     25  C   UNL     1       5.106  -4.806  24.702  0.00  0.00    +0.004 A 
ATOM     26  C   UNL     1       5.646  -5.590  25.709  0.00  0.00    +0.046 A 
ATOM     27  C   UNL     1       6.909  -5.295  26.230  0.00  0.00    +0.120 A 
BRANCH  27  28
ATOM     28  O   UNL     1       7.316  -6.149  27.218  0.00  0.00    -0.506 OA
ATOM     29  H   UNL     1       8.251  -6.014  27.426  0.00  0.00    +0.292 HD
ENDBRANCH  27  28
ENDBRANCH  17  23
ENDBRANCH   1  18
TORSDOF 4
ENDMDL
MODEL 6
REMARK VINA RESULT:      -6.8      3.059      7.599
REMARK  Name = 
REMARK  5 active torsions:
REMARK  status: ('A' for Active; 'I' for Inactive)
REMARK    1  A    between atoms: C_1  and  C_2
REMARK    2  A    between atoms: C_3  and  O_4
REMARK    3  A    between atoms: C_8  and  C_9
REMARK    4  A    between atoms: N_11  and  C_12
REMARK    5  A    between atoms: C_15  and  C_22
REMARK                            x       y       z     vdW  Elec       q    Type
REMARK                         _______ _______ _______ _____ _____    ______ ____
ROOT
ATOM      1  C   UNL     1       6.325  -0.723  25.139  0.00  0.00    +0.041 A 
ATOM      2  C   UNL     1       5.654  -0.779  26.371  0.00  0.00    +0.024 A 
ATOM      3  C   UNL     1       5.673   0.299  27.248  0.00  0.00    +0.002 A 
ATOM      4  C   UNL     1       6.415   1.431  26.931  0.00  0.00    +0.008 A 
ATOM      5  C   UNL     1       7.129   1.511  25.728  0.00  0.00    -0.016 A 
ATOM      6  C   UNL     1       7.905   2.655  25.471  0.00  0.00    +0.009 A 
ATOM      7  C   UNL     1       8.630   2.784  24.288  0.00  0.00    +0.016 A 
ATOM      8  C   UNL     1       8.596   1.756  23.351  0.00  0.00    +0.065 A 
ATOM      9  C   UNL     1       7.859   0.594  23.619  0.00  0.00    +0.026 A 
ATOM     10  C   UNL     1       7.084   0.439  24.794  0.00  0.00    +0.004 A 
ENDROOT
BRANCH   8  11
ATOM     11  C   UNL     1       9.304   1.887  22.044  0.00  0.00    +0.308 C 
ATOM     12  N   UNL     1       8.860   1.363  20.947  0.00  0.00    -0.099 NA
ATOM     13  H   UNL     1       7.954   0.912  21.088  0.00  0.00    +0.363 HD
ATOM     14  N   UNL     1      10.488   2.561  21.973  0.00  0.00    -0.247 N 
ATOM     15  H   UNL     1      10.987   2.360  21.113  0.00  0.00    +0.288 HD
ATOM     16  H   UNL     1      11.075   2.538  22.802  0.00  0.00    +0.288 HD
ENDBRANCH   8  11
BRANCH   1  18
ATOM     17  C   UNL     1       7.111  -3.019  24.493  0.00  0.00    +0.249 C 
ATOM     18  N   UNL     1       6.276  -1.918  24.376  0.00  0.00    -0.281 N 
ATOM     19  H   UNL     1       5.751  -1.864  23.511  0.00  0.00    +0.155 HD
ATOM     20  O   UNL     1       8.155  -3.038  25.131  0.00  0.00    -0.270 OA
BRANCH  17  23
ATOM     21  C   UNL     1       5.098  -5.018  25.550  0.00  0.00    +0.048 C 
ATOM     22  C   UNL     1       5.741  -5.182  24.199  0.00  0.00    +0.003 A 
ATOM     23  C   UNL     1       6.659  -4.221  23.701  0.00  0.00    +0.043 A 
ATOM     24  C   UNL     1       7.171  -4.351  22.392  0.00  0.00    +0.013 A 
ATOM     25  C   UNL     1       6.847  -5.448  21.602  0.00  0.00    +0.004 A 
ATOM     26  C   UNL     1       6.013  -6.432  22.109  0.00  0.00    +0.046 A 
ATOM     27  C   UNL     1       5.466  -6.300  23.388  0.00  0.00    +0.120 A 
BRANCH  27  28
ATOM     28  O   UNL     1       4.662  -7.343  23.759  0.00  0.00    -0.506 OA
ATOM     29  H   UNL     1       5.176  -8.033  24.202  0.00  0.00    +0.292 HD
ENDBRANCH  27  28
ENDBRANCH  17  23
ENDBRANCH   1  18
TORSDOF 4
ENDMDL
MODEL 7
REMARK VINA RESULT:      -6.8      3.045      7.114
REMARK  Name = 
REMARK  5 active torsions:
REMARK  status: ('A' for Active; 'I' for Inactive)
REMARK    1  A    between atoms: C_1  and  C_2
REMARK    2  A    between atoms: C_3  and  O_4
REMARK    3  A    between atoms: C_8  and  C_9
REMARK    4  A    between atoms: N_11  and  C_12
REMARK    5  A    between atoms: C_15  and  C_22
REMARK                            x       y       z     vdW  Elec       q    Type
REMARK                         _______ _______ _______ _____ _____    ______ ____
ROOT
ATOM      1  C   UNL     1       8.457  -1.319  23.953  0.00  0.00    +0.041 A 
ATOM      2  C   UNL     1       9.592  -2.008  23.493  0.00  0.00    +0.024 A 
ATOM      3  C   UNL     1      10.357  -1.509  22.445  0.00  0.00    +0.002 A 
ATOM      4  C   UNL     1       9.964  -0.342  21.800  0.00  0.00    +0.008 A 
ATOM      5  C   UNL     1       8.818   0.354  22.205  0.00  0.00    -0.016 A 
ATOM      6  C   UNL     1       8.431   1.504  21.494  0.00  0.00    +0.009 A 
ATOM      7  C   UNL     1       7.301   2.233  21.860  0.00  0.00    +0.016 A 
ATOM      8  C   UNL     1       6.535   1.807  22.940  0.00  0.00    +0.065 A 
ATOM      9  C   UNL     1       6.890   0.638  23.628  0.00  0.00    +0.026 A 
ATOM     10  C   UNL     1       8.047  -0.111  23.307  0.00  0.00    +0.004 A 
ENDROOT
BRANCH   8  11
ATOM     11  C   UNL     1       5.358   2.599  23.403  0.00  0.00    +0.308 C 
ATOM     12  N   UNL     1       4.331   2.840  22.653  0.00  0.00    -0.099 NA
ATOM     13  H   UNL     1       4.412   2.373  21.747  0.00  0.00    +0.363 HD
ATOM     14  N   UNL     1       5.344   3.130  24.659  0.00  0.00    -0.247 N 
ATOM     15  H   UNL     1       4.632   3.846  24.760  0.00  0.00    +0.288 HD
ATOM     16  H   UNL     1       6.243   3.388  25.054  0.00  0.00    +0.288 HD
ENDBRANCH   8  11
BRANCH   1  18
ATOM     17  C   UNL     1       6.813  -3.001  24.832  0.00  0.00    +0.249 C 
ATOM     18  N   UNL     1       7.736  -1.977  24.982  0.00  0.00    -0.281 N 
ATOM     19  H   UNL     1       7.703  -1.494  25.872  0.00  0.00    +0.155 HD
ATOM     20  O   UNL     1       6.323  -3.348  23.766  0.00  0.00    -0.270 OA
BRANCH  17  23
ATOM     21  C   UNL     1       8.308  -5.324  26.072  0.00  0.00    +0.048 C 
ATOM     22  C   UNL     1       7.066  -4.755  26.703  0.00  0.00    +0.003 A 
ATOM     23  C   UNL     1       6.392  -3.645  26.130  0.00  0.00    +0.043 A 
ATOM     24  C   UNL     1       5.287  -3.073  26.796  0.00  0.00    +0.013 A 
ATOM     25  C   UNL     1       4.798  -3.624  27.976  0.00  0.00    +0.004 A 
ATOM     26  C   UNL     1       5.402  -4.755  28.503  0.00  0.00    +0.046 A 
ATOM     27  C   UNL     1       6.520  -5.312  27.876  0.00  0.00    +0.120 A 
BRANCH  27  28
ATOM     28  O   UNL     1       7.012  -6.423  28.504  0.00  0.00    -0.506 OA
ATOM     29  H   UNL     1       7.123  -7.151  27.877  0.00  0.00    +0.292 HD
ENDBRANCH  27  28
ENDBRANCH  17  23
ENDBRANCH   1  18
TORSDOF 4
ENDMDL
MODEL 8
REMARK VINA RESULT:      -6.8      2.129      2.401
REMARK  Name = 
REMARK  5 active torsions:
REMARK  status: ('A' for Active; 'I' for Inactive)
REMARK    1  A    between atoms: C_1  and  C_2
REMARK    2  A    between atoms: C_3  and  O_4
REMARK    3  A    between atoms: C_8  and  C_9
REMARK    4  A    between atoms: N_11  and  C_12
REMARK    5  A    between atoms: C_15  and  C_22
REMARK                            x       y       z     vdW  Elec       q    Type
REMARK                         _______ _______ _______ _____ _____    ______ ____
ROOT
ATOM      1  C   UNL     1       6.195  -3.559  22.571  0.00  0.00    +0.041 A 
ATOM      2  C   UNL     1       7.030  -4.324  21.741  0.00  0.00    +0.024 A 
ATOM      3  C   UNL     1       6.901  -5.707  21.673  0.00  0.00    +0.002 A 
ATOM      4  C   UNL     1       5.972  -6.352  22.480  0.00  0.00    +0.008 A 
ATOM      5  C   UNL     1       5.145  -5.627  23.349  0.00  0.00    -0.016 A 
ATOM      6  C   UNL     1       4.253  -6.325  24.182  0.00  0.00    +0.009 A 
ATOM      7  C   UNL     1       3.407  -5.649  25.059  0.00  0.00    +0.016 A 
ATOM      8  C   UNL     1       3.458  -4.261  25.123  0.00  0.00    +0.065 A 
ATOM      9  C   UNL     1       4.374  -3.560  24.326  0.00  0.00    +0.026 A 
ATOM     10  C   UNL     1       5.226  -4.208  23.399  0.00  0.00    +0.004 A 
ENDROOT
BRANCH   8  11
ATOM     11  C   UNL     1       2.521  -3.500  26.000  0.00  0.00    +0.308 C 
ATOM     12  N   UNL     1       2.283  -2.237  25.849  0.00  0.00    -0.099 NA
ATOM     13  H   UNL     1       2.766  -1.861  25.030  0.00  0.00    +0.363 HD
ATOM     14  N   UNL     1       1.891  -4.127  27.035  0.00  0.00    -0.247 N 
ATOM     15  H   UNL     1       1.500  -3.467  27.698  0.00  0.00    +0.288 HD
ATOM     16  H   UNL     1       2.391  -4.898  27.471  0.00  0.00    +0.288 HD
ENDBRANCH   8  11
BRANCH   1  18
ATOM     17  C   UNL     1       7.359  -1.511  23.440  0.00  0.00    +0.249 C 
ATOM     18  N   UNL     1       6.483  -2.170  22.591  0.00  0.00    -0.281 N 
ATOM     19  H   UNL     1       5.812  -1.576  22.118  0.00  0.00    +0.155 HD
ATOM     20  O   UNL     1       7.859  -2.000  24.445  0.00  0.00    -0.270 OA
BRANCH  17  23
ATOM     21  C   UNL     1       9.736  -0.659  21.770  0.00  0.00    +0.048 C 
ATOM     22  C   UNL     1       8.748   0.340  22.307  0.00  0.00    +0.003 A 
ATOM     23  C   UNL     1       7.619  -0.074  23.061  0.00  0.00    +0.043 A 
ATOM     24  C   UNL     1       6.659   0.877  23.467  0.00  0.00    +0.013 A 
ATOM     25  C   UNL     1       6.834   2.231  23.203  0.00  0.00    +0.004 A 
ATOM     26  C   UNL     1       7.972   2.654  22.534  0.00  0.00    +0.046 A 
ATOM     27  C   UNL     1       8.915   1.723  22.091  0.00  0.00    +0.120 A 
BRANCH  27  28
ATOM     28  O   UNL     1       9.986   2.279  21.448  0.00  0.00    -0.506 OA
ATOM     29  H   UNL     1       9.842   2.295  20.491  0.00  0.00    +0.292 HD
ENDBRANCH  27  28
ENDBRANCH  17  23
ENDBRANCH   1  18
TORSDOF 4
ENDMDL
MODEL 9
REMARK VINA RESULT:      -6.8      3.133      7.416
REMARK  Name = 
REMARK  5 active torsions:
REMARK  status: ('A' for Active; 'I' for Inactive)
REMARK    1  A    between atoms: C_1  and  C_2
REMARK    2  A    between atoms: C_3  and  O_4
REMARK    3  A    between atoms: C_8  and  C_9
REMARK    4  A    between atoms: N_11  and  C_12
REMARK    5  A    between atoms: C_15  and  C_22
REMARK                            x       y       z     vdW  Elec       q    Type
REMARK                         _______ _______ _______ _____ _____    ______ ____
ROOT
ATOM      1  C   UNL     1       8.555  -0.436  23.980  0.00  0.00    +0.041 A 
ATOM      2  C   UNL     1       9.909  -0.695  24.247  0.00  0.00    +0.024 A 
ATOM      3  C   UNL     1      10.823   0.343  24.394  0.00  0.00    +0.002 A 
ATOM      4  C   UNL     1      10.406   1.657  24.216  0.00  0.00    +0.008 A 
ATOM      5  C   UNL     1       9.071   1.954  23.912  0.00  0.00    -0.016 A 
ATOM      6  C   UNL     1       8.703   3.294  23.693  0.00  0.00    +0.009 A 
ATOM      7  C   UNL     1       7.388   3.641  23.392  0.00  0.00    +0.016 A 
ATOM      8  C   UNL     1       6.424   2.643  23.291  0.00  0.00    +0.065 A 
ATOM      9  C   UNL     1       6.791   1.301  23.466  0.00  0.00    +0.026 A 
ATOM     10  C   UNL     1       8.109   0.911  23.806  0.00  0.00    +0.004 A 
ENDROOT
BRANCH   8  11
ATOM     11  C   UNL     1       4.994   2.983  23.037  0.00  0.00    +0.308 C 
ATOM     12  N   UNL     1       4.021   2.516  23.752  0.00  0.00    -0.099 NA
ATOM     13  H   UNL     1       4.367   1.948  24.529  0.00  0.00    +0.363 HD
ATOM     14  N   UNL     1       4.659   3.797  21.996  0.00  0.00    -0.247 N 
ATOM     15  H   UNL     1       3.671   3.741  21.772  0.00  0.00    +0.288 HD
ATOM     16  H   UNL     1       5.265   3.766  21.181  0.00  0.00    +0.288 HD
ENDBRANCH   8  11
BRANCH   1  18
ATOM     17  C   UNL     1       7.252  -2.431  24.771  0.00  0.00    +0.249 C 
ATOM     18  N   UNL     1       7.753  -1.590  23.789  0.00  0.00    -0.281 N 
ATOM     19  H   UNL     1       7.755  -1.975  22.851  0.00  0.00    +0.155 HD
ATOM     20  O   UNL     1       7.606  -2.424  25.943  0.00  0.00    -0.270 OA
BRANCH  17  23
ATOM     21  C   UNL     1       8.045  -5.135  23.663  0.00  0.00    +0.048 C 
ATOM     22  C   UNL     1       6.608  -4.692  23.715  0.00  0.00    +0.003 A 
ATOM     23  C   UNL     1       6.246  -3.436  24.266  0.00  0.00    +0.043 A 
ATOM     24  C   UNL     1       4.883  -3.090  24.390  0.00  0.00    +0.013 A 
ATOM     25  C   UNL     1       3.884  -3.932  23.914  0.00  0.00    +0.004 A 
ATOM     26  C   UNL     1       4.232  -5.126  23.303  0.00  0.00    +0.046 A 
ATOM     27  C   UNL     1       5.574  -5.502  23.206  0.00  0.00    +0.120 A 
BRANCH  27  28
ATOM     28  O   UNL     1       5.771  -6.703  22.581  0.00  0.00    -0.506 OA
ATOM     29  H   UNL     1       6.097  -7.366  23.205  0.00  0.00    +0.292 HD
ENDBRANCH  27  28
ENDBRANCH  17  23
ENDBRANCH   1  18
TORSDOF 4
ENDMDL
