MODEL 1
REMARK VINA RESULT:      -3.6      0.000      0.000
REMARK  Name = 
REMARK  7 active torsions:
REMARK  status: ('A' for Active; 'I' for Inactive)
REMARK    1  A    between atoms: C_1  and  C_2
REMARK    2  A    between atoms: C_2  and  O_4
REMARK    3  A    between atoms: C_2  and  C_5
REMARK    4  A    between atoms: C_5  and  C_6
REMARK    5  A    between atoms: C_5  and  O_7
REMARK    6  A    between atoms: C_5  and  C_8
REMARK    7  A    between atoms: C_8  and  N_9
REMARK                            x       y       z     vdW  Elec       q    Type
REMARK                         _______ _______ _______ _____ _____    ______ ____
ROOT
ATOM      1  C   UNL     1       9.894   0.485  23.285  0.00  0.00    +0.101 C 
ATOM      2  C   UNL     1      10.593   0.465  24.654  0.00  0.00    +0.045 C 
ENDROOT
BRANCH   1   4
ATOM      3  C   UNL     1      10.573   2.979  23.314  0.00  0.00    +0.040 C 
ATOM      4  C   UNL     1      10.330   1.737  22.458  0.00  0.00    +0.144 C 
BRANCH   4   5
ATOM      5  O   UNL     1       9.385   2.104  21.451  0.00  0.00    -0.389 OA
ATOM      6  H   UNL     1       8.540   2.303  21.890  0.00  0.00    +0.210 HD
ENDBRANCH   4   5
ENDBRANCH   1   4
BRANCH   1   7
ATOM      7  O   UNL     1       8.479   0.573  23.539  0.00  0.00    -0.385 OA
ATOM      8  H   UNL     1       8.351   1.074  24.363  0.00  0.00    +0.210 HD
ENDBRANCH   1   7
BRANCH   1   9
ATOM      9  C   UNL     1      10.142  -0.860  22.545  0.00  0.00    +0.114 C 
BRANCH   9  10
ATOM     10  N   UNL     1       9.625  -0.920  21.176  0.00  0.00    -0.327 NA
ATOM     11  H   UNL     1       8.954  -0.165  21.040  0.00  0.00    +0.118 HD
ATOM     12  H   UNL     1      10.399  -0.729  20.531  0.00  0.00    +0.118 HD
ENDBRANCH   9  10
ENDBRANCH   1   9
TORSDOF 5
ENDMDL
MODEL 2
REMARK VINA RESULT:      -3.5      4.855      5.804
REMARK  Name = 
REMARK  7 active torsions:
REMARK  status: ('A' for Active; 'I' for Inactive)
REMARK    1  A    between atoms: C_1  and  C_2
REMARK    2  A    between atoms: C_2  and  O_4
REMARK    3  A    between atoms: C_2  and  C_5
REMARK    4  A    between atoms: C_5  and  C_6
REMARK    5  A    between atoms: C_5  and  O_7
REMARK    6  A    between atoms: C_5  and  C_8
REMARK    7  A    between atoms: C_8  and  N_9
REMARK                            x       y       z     vdW  Elec       q    Type
REMARK                         _______ _______ _______ _____ _____    ______ ____
ROOT
ATOM      1  C   UNL     1       8.238  -4.426  24.548  0.00  0.00    +0.101 C 
ATOM      2  C   UNL     1       6.747  -4.339  24.911  0.00  0.00    +0.045 C 
ENDROOT
BRANCH   1   4
ATOM      3  C   UNL     1       8.158  -2.703  22.622  0.00  0.00    +0.040 C 
ATOM      4  C   UNL     1       8.751  -3.062  23.983  0.00  0.00    +0.144 C 
BRANCH   4   5
ATOM      5  O   UNL     1      10.173  -3.009  23.845  0.00  0.00    -0.389 OA
ATOM      6  H   UNL     1      10.566  -3.232  24.706  0.00  0.00    +0.210 HD
ENDBRANCH   4   5
ENDBRANCH   1   4
BRANCH   1   7
ATOM      7  O   UNL     1       8.360  -5.425  23.517  0.00  0.00    -0.385 OA
ATOM      8  H   UNL     1       7.738  -6.144  23.719  0.00  0.00    +0.210 HD
ENDBRANCH   1   7
BRANCH   1   9
ATOM      9  C   UNL     1       9.053  -4.933  25.772  0.00  0.00    +0.114 C 
BRANCH   9  10
ATOM     10  N   UNL     1      10.354  -5.521  25.451  0.00  0.00    -0.327 NA
ATOM     11  H   UNL     1      10.298  -6.533  25.558  0.00  0.00    +0.118 HD
ATOM     12  H   UNL     1      10.547  -5.353  24.457  0.00  0.00    +0.118 HD
ENDBRANCH   9  10
ENDBRANCH   1   9
TORSDOF 5
ENDMDL
MODEL 3
REMARK VINA RESULT:      -3.5      2.038      3.010
REMARK  Name = 
REMARK  7 active torsions:
REMARK  status: ('A' for Active; 'I' for Inactive)
REMARK    1  A    between atoms: C_1  and  C_2
REMARK    2  A    between atoms: C_2  and  O_4
REMARK    3  A    between atoms: C_2  and  C_5
REMARK    4  A    between atoms: C_5  and  C_6
REMARK    5  A    between atoms: C_5  and  O_7
REMARK    6  A    between atoms: C_5  and  C_8
REMARK    7  A    between atoms: C_8  and  N_9
REMARK                            x       y       z     vdW  Elec       q    Type
REMARK                         _______ _______ _______ _____ _____    ______ ____
ROOT
ATOM      1  C   UNL     1       9.746   0.254  23.164  0.00  0.00    +0.101 C 
ATOM      2  C   UNL     1       8.596   0.698  24.083  0.00  0.00    +0.045 C 
ENDROOT
BRANCH   1   4
ATOM      3  C   UNL     1       9.947  -2.276  23.652  0.00  0.00    +0.040 C 
ATOM      4  C   UNL     1       9.515  -1.204  22.653  0.00  0.00    +0.144 C 
BRANCH   4   5
ATOM      5  O   UNL     1      10.189  -1.484  21.424  0.00  0.00    -0.389 OA
ATOM      6  H   UNL     1      11.147  -1.433  21.589  0.00  0.00    +0.210 HD
ENDBRANCH   4   5
ENDBRANCH   1   4
BRANCH   1   7
ATOM      7  O   UNL     1      10.948   0.278  23.956  0.00  0.00    -0.385 OA
ATOM      8  H   UNL     1      10.869  -0.402  24.646  0.00  0.00    +0.210 HD
ENDBRANCH   1   7
BRANCH   1   9
ATOM      9  C   UNL     1       9.935   1.287  22.017  0.00  0.00    +0.114 C 
BRANCH   9  10
ATOM     10  N   UNL     1       8.846   1.337  21.040  0.00  0.00    -0.327 NA
ATOM     11  H   UNL     1       8.926   0.540  20.411  0.00  0.00    +0.118 HD
ATOM     12  H   UNL     1       7.959   1.213  21.540  0.00  0.00    +0.118 HD
ENDBRANCH   9  10
ENDBRANCH   1   9
TORSDOF 5
ENDMDL
MODEL 4
REMARK VINA RESULT:      -3.4      1.713      2.517
REMARK  Name = 
REMARK  7 active torsions:
REMARK  status: ('A' for Active; 'I' for Inactive)
REMARK    1  A    between atoms: C_1  and  C_2
REMARK    2  A    between atoms: C_2  and  O_4
REMARK    3  A    between atoms: C_2  and  C_5
REMARK    4  A    between atoms: C_5  and  C_6
REMARK    5  A    between atoms: C_5  and  O_7
REMARK    6  A    between atoms: C_5  and  C_8
REMARK    7  A    between atoms: C_8  and  N_9
REMARK                            x       y       z     vdW  Elec       q    Type
REMARK                         _______ _______ _______ _____ _____    ______ ____
ROOT
ATOM      1  C   UNL     1       9.257   1.381  22.090  0.00  0.00    +0.101 C 
ATOM      2  C   UNL     1       7.941   2.145  21.867  0.00  0.00    +0.045 C 
ENDROOT
BRANCH   1   4
ATOM      3  C   UNL     1       9.017   2.263  24.508  0.00  0.00    +0.040 C 
ATOM      4  C   UNL     1       9.497   1.122  23.612  0.00  0.00    +0.144 C 
BRANCH   4   5
ATOM      5  O   UNL     1      10.870   0.890  23.934  0.00  0.00    -0.389 OA
ATOM      6  H   UNL     1      11.003   1.124  24.868  0.00  0.00    +0.210 HD
ENDBRANCH   4   5
ENDBRANCH   1   4
BRANCH   1   7
ATOM      7  O   UNL     1      10.317   2.220  21.594  0.00  0.00    -0.385 OA
ATOM      8  H   UNL     1       9.922   3.049  21.275  0.00  0.00    +0.210 HD
ENDBRANCH   1   7
BRANCH   1   9
ATOM      9  C   UNL     1       9.265   0.082  21.235  0.00  0.00    +0.114 C 
BRANCH   9  10
ATOM     10  N   UNL     1      10.091  -1.005  21.763  0.00  0.00    -0.327 NA
ATOM     11  H   UNL     1      10.811  -0.612  22.368  0.00  0.00    +0.118 HD
ATOM     12  H   UNL     1       9.504  -1.590  22.368  0.00  0.00    +0.118 HD
ENDBRANCH   9  10
ENDBRANCH   1   9
TORSDOF 5
ENDMDL
MODEL 5
REMARK VINA RESULT:      -3.4      2.169      2.514
REMARK  Name = 
REMARK  7 active torsions:
REMARK  status: ('A' for Active; 'I' for Inactive)
REMARK    1  A    between atoms: C_1  and  C_2
REMARK    2  A    between atoms: C_2  and  O_4
REMARK    3  A    between atoms: C_2  and  C_5
REMARK    4  A    between atoms: C_5  and  C_6
REMARK    5  A    between atoms: C_5  and  O_7
REMARK    6  A    between atoms: C_5  and  C_8
REMARK    7  A    between atoms: C_8  and  N_9
REMARK                            x       y       z     vdW  Elec       q    Type
REMARK                         _______ _______ _______ _____ _____    ______ ____
ROOT
ATOM      1  C   UNL     1       9.343   0.044  22.508  0.00  0.00    +0.101 C 
ATOM      2  C   UNL     1       7.986  -0.632  22.770  0.00  0.00    +0.045 C 
ENDROOT
BRANCH   1   4
ATOM      3  C   UNL     1       7.874   1.954  21.572  0.00  0.00    +0.040 C 
ATOM      4  C   UNL     1       9.165   1.582  22.299  0.00  0.00    +0.144 C 
BRANCH   4   5
ATOM      5  O   UNL     1      10.240   2.179  21.571  0.00  0.00    -0.389 OA
ATOM      6  H   UNL     1       9.895   2.969  21.120  0.00  0.00    +0.210 HD
ENDBRANCH   4   5
ENDBRANCH   1   4
BRANCH   1   7
ATOM      7  O   UNL     1       9.867  -0.527  21.294  0.00  0.00    -0.385 OA
ATOM      8  H   UNL     1       9.639  -1.472  21.282  0.00  0.00    +0.210 HD
ENDBRANCH   1   7
BRANCH   1   9
ATOM      9  C   UNL     1      10.340  -0.313  23.647  0.00  0.00    +0.114 C 
BRANCH   9  10
ATOM     10  N   UNL     1      10.979   0.834  24.295  0.00  0.00    -0.327 NA
ATOM     11  H   UNL     1      10.372   1.178  25.036  0.00  0.00    +0.118 HD
ATOM     12  H   UNL     1      11.833   0.506  24.760  0.00  0.00    +0.118 HD
ENDBRANCH   9  10
ENDBRANCH   1   9
TORSDOF 5
ENDMDL
MODEL 6
REMARK VINA RESULT:      -3.3      2.237      2.418
REMARK  Name = 
REMARK  7 active torsions:
REMARK  status: ('A' for Active; 'I' for Inactive)
REMARK    1  A    between atoms: C_1  and  C_2
REMARK    2  A    between atoms: C_2  and  O_4
REMARK    3  A    between atoms: C_2  and  C_5
REMARK    4  A    between atoms: C_5  and  C_6
REMARK    5  A    between atoms: C_5  and  O_7
REMARK    6  A    between atoms: C_5  and  C_8
REMARK    7  A    between atoms: C_8  and  N_9
REMARK                            x       y       z     vdW  Elec       q    Type
REMARK                         _______ _______ _______ _____ _____    ______ ____
ROOT
ATOM      1  C   UNL     1       9.626  -0.688  23.683  0.00  0.00    +0.101 C 
ATOM      2  C   UNL     1      10.437   0.135  24.698  0.00  0.00    +0.045 C 
ENDROOT
BRANCH   1   4
ATOM      3  C   UNL     1       9.167   0.629  21.506  0.00  0.00    +0.040 C 
ATOM      4  C   UNL     1      10.077  -0.367  22.222  0.00  0.00    +0.144 C 
BRANCH   4   5
ATOM      5  O   UNL     1      10.161  -1.527  21.391  0.00  0.00    -0.389 OA
ATOM      6  H   UNL     1      10.708  -2.187  21.852  0.00  0.00    +0.210 HD
ENDBRANCH   4   5
ENDBRANCH   1   4
BRANCH   1   7
ATOM      7  O   UNL     1       8.248  -0.296  23.834  0.00  0.00    -0.385 OA
ATOM      8  H   UNL     1       7.736  -0.711  23.118  0.00  0.00    +0.210 HD
ENDBRANCH   1   7
BRANCH   1   9
ATOM      9  C   UNL     1       9.711  -2.199  24.038  0.00  0.00    +0.114 C 
BRANCH   9  10
ATOM     10  N   UNL     1       8.631  -3.026  23.496  0.00  0.00    -0.327 NA
ATOM     11  H   UNL     1       7.804  -2.447  23.361  0.00  0.00    +0.118 HD
ATOM     12  H   UNL     1       8.908  -3.345  22.561  0.00  0.00    +0.118 HD
ENDBRANCH   9  10
ENDBRANCH   1   9
TORSDOF 5
ENDMDL
MODEL 7
REMARK VINA RESULT:      -3.3      2.745      3.601
REMARK  Name = 
REMARK  7 active torsions:
REMARK  status: ('A' for Active; 'I' for Inactive)
REMARK    1  A    between atoms: C_1  and  C_2
REMARK    2  A    between atoms: C_2  and  O_4
REMARK    3  A    between atoms: C_2  and  C_5
REMARK    4  A    between atoms: C_5  and  C_6
REMARK    5  A    between atoms: C_5  and  O_7
REMARK    6  A    between atoms: C_5  and  C_8
REMARK    7  A    between atoms: C_8  and  N_9
REMARK                            x       y       z     vdW  Elec       q    Type
REMARK                         _______ _______ _______ _____ _____    ______ ____
ROOT
ATOM      1  C   UNL     1       9.354   3.841  23.617  0.00  0.00    +0.101 C 
ATOM      2  C   UNL     1       8.549   3.565  24.897  0.00  0.00    +0.045 C 
ENDROOT
BRANCH   1   4
ATOM      3  C   UNL     1       9.539   6.420  23.608  0.00  0.00    +0.040 C 
ATOM      4  C   UNL     1      10.272   5.093  23.798  0.00  0.00    +0.144 C 
BRANCH   4   5
ATOM      5  O   UNL     1      11.391   5.104  22.909  0.00  0.00    -0.389 OA
ATOM      6  H   UNL     1      12.013   4.416  23.201  0.00  0.00    +0.210 HD
ENDBRANCH   4   5
ENDBRANCH   1   4
BRANCH   1   7
ATOM      7  O   UNL     1       8.400   4.119  22.574  0.00  0.00    -0.385 OA
ATOM      8  H   UNL     1       7.626   4.546  22.978  0.00  0.00    +0.210 HD
ENDBRANCH   1   7
BRANCH   1   9
ATOM      9  C   UNL     1      10.132   2.562  23.194  0.00  0.00    +0.114 C 
BRANCH   9  10
ATOM     10  N   UNL     1      10.240   2.349  21.750  0.00  0.00    -0.327 NA
ATOM     11  H   UNL     1       9.896   1.417  21.525  0.00  0.00    +0.118 HD
ATOM     12  H   UNL     1       9.606   3.005  21.280  0.00  0.00    +0.118 HD
ENDBRANCH   9  10
ENDBRANCH   1   9
TORSDOF 5
ENDMDL
MODEL 8
REMARK VINA RESULT:      -3.3      2.237      2.958
REMARK  Name = 
REMARK  7 active torsions:
REMARK  status: ('A' for Active; 'I' for Inactive)
REMARK    1  A    between atoms: C_1  and  C_2
REMARK    2  A    between atoms: C_2  and  O_4
REMARK    3  A    between atoms: C_2  and  C_5
REMARK    4  A    between atoms: C_5  and  C_6
REMARK    5  A    between atoms: C_5  and  O_7
REMARK    6  A    between atoms: C_5  and  C_8
REMARK    7  A    between atoms: C_8  and  N_9
REMARK                            x       y       z     vdW  Elec       q    Type
REMARK                         _______ _______ _______ _____ _____    ______ ____
ROOT
ATOM      1  C   UNL     1       9.774   1.373  22.690  0.00  0.00    +0.101 C 
ATOM      2  C   UNL     1       9.924  -0.049  22.126  0.00  0.00    +0.045 C 
ENDROOT
BRANCH   1   4
ATOM      3  C   UNL     1       7.522   2.276  21.797  0.00  0.00    +0.040 C 
ATOM      4  C   UNL     1       8.274   1.694  22.992  0.00  0.00    +0.144 C 
BRANCH   4   5
ATOM      5  O   UNL     1       8.102   2.607  24.078  0.00  0.00    -0.389 OA
ATOM      6  H   UNL     1       7.154   2.641  24.293  0.00  0.00    +0.210 HD
ENDBRANCH   4   5
ENDBRANCH   1   4
BRANCH   1   7
ATOM      7  O   UNL     1      10.240   2.278  21.671  0.00  0.00    -0.385 OA
ATOM      8  H   UNL     1       9.745   3.111  21.757  0.00  0.00    +0.210 HD
ENDBRANCH   1   7
BRANCH   1   9
ATOM      9  C   UNL     1      10.704   1.556  23.922  0.00  0.00    +0.114 C 
BRANCH   9  10
ATOM     10  N   UNL     1      10.337   0.769  25.100  0.00  0.00    -0.327 NA
ATOM     11  H   UNL     1      11.021   0.026  25.231  0.00  0.00    +0.118 HD
ATOM     12  H   UNL     1      10.414   1.372  25.927  0.00  0.00    +0.118 HD
ENDBRANCH   9  10
ENDBRANCH   1   9
TORSDOF 5
ENDMDL
MODEL 9
REMARK VINA RESULT:      -3.3      2.435      3.055
REMARK  Name = 
REMARK  7 active torsions:
REMARK  status: ('A' for Active; 'I' for Inactive)
REMARK    1  A    between atoms: C_1  and  C_2
REMARK    2  A    between atoms: C_2  and  O_4
REMARK    3  A    between atoms: C_2  and  C_5
REMARK    4  A    between atoms: C_5  and  C_6
REMARK    5  A    between atoms: C_5  and  O_7
REMARK    6  A    between atoms: C_5  and  C_8
REMARK    7  A    between atoms: C_8  and  N_9
REMARK                            x       y       z     vdW  Elec       q    Type
REMARK                         _______ _______ _______ _____ _____    ______ ____
ROOT
ATOM      1  C   UNL     1       7.895   1.519  22.794  0.00  0.00    +0.101 C 
ATOM      2  C   UNL     1       7.558   3.011  22.949  0.00  0.00    +0.045 C 
ENDROOT
BRANCH   1   4
ATOM      3  C   UNL     1       9.408  -0.132  21.502  0.00  0.00    +0.040 C 
ATOM      4  C   UNL     1       8.859   1.291  21.585  0.00  0.00    +0.144 C 
BRANCH   4   5
ATOM      5  O   UNL     1       9.985   2.172  21.589  0.00  0.00    -0.389 OA
ATOM      6  H   UNL     1      10.567   1.918  20.852  0.00  0.00    +0.210 HD
ENDBRANCH   4   5
ENDBRANCH   1   4
BRANCH   1   7
ATOM      7  O   UNL     1       6.655   0.836  22.527  0.00  0.00    -0.385 OA
ATOM      8  H   UNL     1       5.994   1.149  23.168  0.00  0.00    +0.210 HD
ENDBRANCH   1   7
BRANCH   1   9
ATOM      9  C   UNL     1       8.444   0.958  24.136  0.00  0.00    +0.114 C 
BRANCH   9  10
ATOM     10  N   UNL     1       9.526   1.738  24.739  0.00  0.00    -0.327 NA
ATOM     11  H   UNL     1      10.308   1.118  24.945  0.00  0.00    +0.118 HD
ATOM     12  H   UNL     1       9.872   2.404  24.039  0.00  0.00    +0.118 HD
ENDBRANCH   9  10
ENDBRANCH   1   9
TORSDOF 5
ENDMDL
