MODEL 1
REMARK VINA RESULT:      -4.7      0.000      0.000
REMARK  Name = 
REMARK  18 active torsions:
REMARK  status: ('A' for Active; 'I' for Inactive)
REMARK    1  A    between atoms: C_1  and  C_2
REMARK    2  A    between atoms: C_2  and  C_3
REMARK    3  A    between atoms: C_3  and  C_4
REMARK    4  A    between atoms: C_4  and  C_5
REMARK    5  A    between atoms: C_5  and  C_6
REMARK    6  A    between atoms: C_6  and  C_7
REMARK    7  A    between atoms: C_7  and  C_8
REMARK    8  A    between atoms: C_8  and  C_9
REMARK    9  A    between atoms: C_9  and  C_10
REMARK   10  A    between atoms: C_10  and  C_11
REMARK   11  A    between atoms: C_11  and  C_12
REMARK   12  A    between atoms: C_12  and  C_13
REMARK   13  A    between atoms: C_13  and  C_14
REMARK   14  A    between atoms: C_14  and  C_15
REMARK   15  A    between atoms: C_15  and  C_16
REMARK   16  A    between atoms: N_18  and  C_19
REMARK   17  A    between atoms: C_19  and  C_20
REMARK   18  A    between atoms: C_20  and  O_21
REMARK                            x       y       z     vdW  Elec       q    Type
REMARK                         _______ _______ _______ _____ _____    ______ ____
ROOT
ATOM      1  C   UNL     1       9.978  -1.442  22.251  0.00  0.00    +0.000 C 
ENDROOT
BRANCH   1   2
ATOM      2  C   UNL     1       9.454  -0.231  21.490  0.00  0.00    +0.000 C 
BRANCH   2   3
ATOM      3  C   UNL     1       9.975   1.058  22.114  0.00  0.00    +0.000 C 
BRANCH   3   4
ATOM      4  C   UNL     1      10.438   0.819  23.547  0.00  0.00    -0.000 C 
BRANCH   4   5
ATOM      5  C   UNL     1       9.590   1.617  24.530  0.00  0.00    -0.000 C 
BRANCH   5   6
ATOM      6  C   UNL     1       8.542   0.726  25.187  0.00  0.00    -0.000 C 
BRANCH   6   7
ATOM      7  C   UNL     1       9.189  -0.513  25.797  0.00  0.00    -0.000 C 
BRANCH   7   8
ATOM      8  C   UNL     1       8.139  -1.405  26.451  0.00  0.00    -0.000 C 
BRANCH   8   9
ATOM      9  C   UNL     1       8.524  -2.877  26.338  0.00  0.00    -0.000 C 
BRANCH   9  10
ATOM     10  C   UNL     1       7.300  -3.774  26.503  0.00  0.00    -0.000 C 
BRANCH  10  12
ATOM     11  C   UNL     1       8.810  -5.139  25.030  0.00  0.00    +0.004 C 
ATOM     12  C   UNL     1       7.464  -5.081  25.730  0.00  0.00    -0.003 C 
ENDBRANCH  10  12
ENDBRANCH   9  10
ENDBRANCH   8   9
ENDBRANCH   7   8
ENDBRANCH   6   7
ENDBRANCH   5   6
ENDBRANCH   4   5
ENDBRANCH   3   4
ENDBRANCH   2   3
ENDBRANCH   1   2
BRANCH   1  13
ATOM     13  C   UNL     1       8.835  -2.342  22.711  0.00  0.00    +0.000 C 
BRANCH  13  14
ATOM     14  C   UNL     1       7.494  -1.745  22.297  0.00  0.00    +0.009 C 
BRANCH  14  15
ATOM     15  C   UNL     1       6.383  -2.129  23.266  0.00  0.00    +0.096 C 
BRANCH  15  16
ATOM     16  C   UNL     1       5.525  -3.242  22.703  0.00  0.00    +0.213 C 
ATOM     17  N   UNL     1       4.763  -3.884  23.645  0.00  0.00    -0.305 N 
ATOM     18  H   UNL     1       4.839  -3.612  24.617  0.00  0.00    +0.149 HD
ATOM     19  O   UNL     1       5.429  -3.512  21.512  0.00  0.00    -0.276 OA
BRANCH  17  20
ATOM     20  C   UNL     1       3.986  -5.084  23.331  0.00  0.00    +0.224 C 
BRANCH  20  21
ATOM     21  C   UNL     1       4.775  -6.388  23.414  0.00  0.00    +0.322 C 
ATOM     22  O   UNL     1       4.639  -7.198  24.320  0.00  0.00    -0.249 OA
BRANCH  21  23
ATOM     23  O   UNL     1       5.705  -6.544  22.444  0.00  0.00    -0.480 OA
ATOM     24  H   UNL     1       5.529  -5.940  21.695  0.00  0.00    +0.295 HD
ENDBRANCH  21  23
ENDBRANCH  20  21
ENDBRANCH  17  20
ENDBRANCH  15  16
ENDBRANCH  14  15
ENDBRANCH  13  14
ENDBRANCH   1  13
TORSDOF 17
ENDMDL
MODEL 2
REMARK VINA RESULT:      -4.7      5.028      7.498
REMARK  Name = 
REMARK  18 active torsions:
REMARK  status: ('A' for Active; 'I' for Inactive)
REMARK    1  A    between atoms: C_1  and  C_2
REMARK    2  A    between atoms: C_2  and  C_3
REMARK    3  A    between atoms: C_3  and  C_4
REMARK    4  A    between atoms: C_4  and  C_5
REMARK    5  A    between atoms: C_5  and  C_6
REMARK    6  A    between atoms: C_6  and  C_7
REMARK    7  A    between atoms: C_7  and  C_8
REMARK    8  A    between atoms: C_8  and  C_9
REMARK    9  A    between atoms: C_9  and  C_10
REMARK   10  A    between atoms: C_10  and  C_11
REMARK   11  A    between atoms: C_11  and  C_12
REMARK   12  A    between atoms: C_12  and  C_13
REMARK   13  A    between atoms: C_13  and  C_14
REMARK   14  A    between atoms: C_14  and  C_15
REMARK   15  A    between atoms: C_15  and  C_16
REMARK   16  A    between atoms: N_18  and  C_19
REMARK   17  A    between atoms: C_19  and  C_20
REMARK   18  A    between atoms: C_20  and  O_21
REMARK                            x       y       z     vdW  Elec       q    Type
REMARK                         _______ _______ _______ _____ _____    ______ ____
ROOT
ATOM      1  C   UNL     1       9.477  -0.830  21.361  0.00  0.00    +0.000 C 
ENDROOT
BRANCH   1   2
ATOM      2  C   UNL     1       8.870  -1.661  22.484  0.00  0.00    +0.000 C 
BRANCH   2   3
ATOM      3  C   UNL     1       7.491  -1.131  22.857  0.00  0.00    +0.000 C 
BRANCH   3   4
ATOM      4  C   UNL     1       7.371  -0.943  24.365  0.00  0.00    -0.000 C 
BRANCH   4   5
ATOM      5  C   UNL     1       8.708  -1.203  25.050  0.00  0.00    -0.000 C 
BRANCH   5   6
ATOM      6  C   UNL     1       8.497  -1.635  26.497  0.00  0.00    -0.000 C 
BRANCH   6   7
ATOM      7  C   UNL     1       7.940  -3.053  26.563  0.00  0.00    -0.000 C 
BRANCH   7   8
ATOM      8  C   UNL     1       8.867  -4.033  25.852  0.00  0.00    -0.000 C 
BRANCH   8   9
ATOM      9  C   UNL     1       8.078  -5.181  25.231  0.00  0.00    -0.000 C 
BRANCH   9  10
ATOM     10  C   UNL     1       7.728  -4.878  23.777  0.00  0.00    -0.000 C 
BRANCH  10  12
ATOM     11  C   UNL     1       5.367  -5.709  24.001  0.00  0.00    +0.004 C 
ATOM     12  C   UNL     1       6.248  -4.531  23.625  0.00  0.00    -0.003 C 
ENDBRANCH  10  12
ENDBRANCH   9  10
ENDBRANCH   8   9
ENDBRANCH   7   8
ENDBRANCH   6   7
ENDBRANCH   5   6
ENDBRANCH   4   5
ENDBRANCH   3   4
ENDBRANCH   2   3
ENDBRANCH   1   2
BRANCH   1  13
ATOM     13  C   UNL     1       9.081   0.638  21.486  0.00  0.00    +0.000 C 
BRANCH  13  14
ATOM     14  C   UNL     1      10.159   1.414  22.236  0.00  0.00    +0.009 C 
BRANCH  14  15
ATOM     15  C   UNL     1       9.599   2.108  23.471  0.00  0.00    +0.096 C 
BRANCH  15  16
ATOM     16  C   UNL     1      10.015   3.562  23.519  0.00  0.00    +0.213 C 
ATOM     17  N   UNL     1      11.363   3.757  23.354  0.00  0.00    -0.305 N 
ATOM     18  H   UNL     1      11.973   2.957  23.249  0.00  0.00    +0.149 HD
ATOM     19  O   UNL     1       9.240   4.506  23.604  0.00  0.00    -0.276 OA
BRANCH  17  20
ATOM     20  C   UNL     1      11.985   5.071  23.523  0.00  0.00    +0.224 C 
BRANCH  20  21
ATOM     21  C   UNL     1      13.215   5.307  22.650  0.00  0.00    +0.322 C 
ATOM     22  O   UNL     1      13.149   5.650  21.478  0.00  0.00    -0.249 OA
BRANCH  21  23
ATOM     23  O   UNL     1      14.392   5.025  23.252  0.00  0.00    -0.480 OA
ATOM     24  H   UNL     1      15.063   5.703  23.036  0.00  0.00    +0.295 HD
ENDBRANCH  21  23
ENDBRANCH  20  21
ENDBRANCH  17  20
ENDBRANCH  15  16
ENDBRANCH  14  15
ENDBRANCH  13  14
ENDBRANCH   1  13
TORSDOF 17
ENDMDL
MODEL 3
REMARK VINA RESULT:      -4.7      5.080      7.568
REMARK  Name = 
REMARK  18 active torsions:
REMARK  status: ('A' for Active; 'I' for Inactive)
REMARK    1  A    between atoms: C_1  and  C_2
REMARK    2  A    between atoms: C_2  and  C_3
REMARK    3  A    between atoms: C_3  and  C_4
REMARK    4  A    between atoms: C_4  and  C_5
REMARK    5  A    between atoms: C_5  and  C_6
REMARK    6  A    between atoms: C_6  and  C_7
REMARK    7  A    between atoms: C_7  and  C_8
REMARK    8  A    between atoms: C_8  and  C_9
REMARK    9  A    between atoms: C_9  and  C_10
REMARK   10  A    between atoms: C_10  and  C_11
REMARK   11  A    between atoms: C_11  and  C_12
REMARK   12  A    between atoms: C_12  and  C_13
REMARK   13  A    between atoms: C_13  and  C_14
REMARK   14  A    between atoms: C_14  and  C_15
REMARK   15  A    between atoms: C_15  and  C_16
REMARK   16  A    between atoms: N_18  and  C_19
REMARK   17  A    between atoms: C_19  and  C_20
REMARK   18  A    between atoms: C_20  and  O_21
REMARK                            x       y       z     vdW  Elec       q    Type
REMARK                         _______ _______ _______ _____ _____    ______ ____
ROOT
ATOM      1  C   UNL     1       9.818  -0.068  21.560  0.00  0.00    +0.000 C 
ENDROOT
BRANCH   1   2
ATOM      2  C   UNL     1       9.460  -1.493  21.961  0.00  0.00    +0.000 C 
BRANCH   2   3
ATOM      3  C   UNL     1      10.368  -1.976  23.085  0.00  0.00    +0.000 C 
BRANCH   3   4
ATOM      4  C   UNL     1       9.548  -2.451  24.279  0.00  0.00    -0.000 C 
BRANCH   4   5
ATOM      5  C   UNL     1       8.795  -1.289  24.915  0.00  0.00    -0.000 C 
BRANCH   5   6
ATOM      6  C   UNL     1       7.574  -1.790  25.678  0.00  0.00    -0.000 C 
BRANCH   6   7
ATOM      7  C   UNL     1       6.297  -1.163  25.129  0.00  0.00    -0.000 C 
BRANCH   7   8
ATOM      8  C   UNL     1       6.159  -1.436  23.635  0.00  0.00    -0.000 C 
BRANCH   8   9
ATOM      9  C   UNL     1       5.963  -2.925  23.365  0.00  0.00    -0.000 C 
BRANCH   9  10
ATOM     10  C   UNL     1       6.334  -3.271  21.926  0.00  0.00    -0.000 C 
BRANCH  10  12
ATOM     11  C   UNL     1       7.463  -5.261  22.965  0.00  0.00    +0.004 C 
ATOM     12  C   UNL     1       6.658  -4.756  21.780  0.00  0.00    -0.003 C 
ENDBRANCH  10  12
ENDBRANCH   9  10
ENDBRANCH   8   9
ENDBRANCH   7   8
ENDBRANCH   6   7
ENDBRANCH   5   6
ENDBRANCH   4   5
ENDBRANCH   3   4
ENDBRANCH   2   3
ENDBRANCH   1   2
BRANCH   1  13
ATOM     13  C   UNL     1       8.566   0.774  21.335  0.00  0.00    +0.000 C 
BRANCH  13  14
ATOM     14  C   UNL     1       8.567   1.980  22.269  0.00  0.00    +0.009 C 
BRANCH  14  15
ATOM     15  C   UNL     1       9.724   1.927  23.258  0.00  0.00    +0.096 C 
BRANCH  15  16
ATOM     16  C   UNL     1      10.142   3.317  23.687  0.00  0.00    +0.213 C 
ATOM     17  N   UNL     1      11.260   3.782  23.043  0.00  0.00    -0.305 N 
ATOM     18  H   UNL     1      11.735   3.187  22.377  0.00  0.00    +0.149 HD
ATOM     19  O   UNL     1       9.514   4.023  24.467  0.00  0.00    -0.276 OA
BRANCH  17  20
ATOM     20  C   UNL     1      11.913   5.035  23.426  0.00  0.00    +0.224 C 
BRANCH  20  21
ATOM     21  C   UNL     1      13.197   5.339  22.658  0.00  0.00    +0.322 C 
ATOM     22  O   UNL     1      13.208   5.774  21.515  0.00  0.00    -0.249 OA
BRANCH  21  23
ATOM     23  O   UNL     1      14.334   5.013  23.314  0.00  0.00    -0.480 OA
ATOM     24  H   UNL     1      14.463   5.591  24.092  0.00  0.00    +0.295 HD
ENDBRANCH  21  23
ENDBRANCH  20  21
ENDBRANCH  17  20
ENDBRANCH  15  16
ENDBRANCH  14  15
ENDBRANCH  13  14
ENDBRANCH   1  13
TORSDOF 17
ENDMDL
MODEL 4
REMARK VINA RESULT:      -4.6      2.659      5.399
REMARK  Name = 
REMARK  18 active torsions:
REMARK  status: ('A' for Active; 'I' for Inactive)
REMARK    1  A    between atoms: C_1  and  C_2
REMARK    2  A    between atoms: C_2  and  C_3
REMARK    3  A    between atoms: C_3  and  C_4
REMARK    4  A    between atoms: C_4  and  C_5
REMARK    5  A    between atoms: C_5  and  C_6
REMARK    6  A    between atoms: C_6  and  C_7
REMARK    7  A    between atoms: C_7  and  C_8
REMARK    8  A    between atoms: C_8  and  C_9
REMARK    9  A    between atoms: C_9  and  C_10
REMARK   10  A    between atoms: C_10  and  C_11
REMARK   11  A    between atoms: C_11  and  C_12
REMARK   12  A    between atoms: C_12  and  C_13
REMARK   13  A    between atoms: C_13  and  C_14
REMARK   14  A    between atoms: C_14  and  C_15
REMARK   15  A    between atoms: C_15  and  C_16
REMARK   16  A    between atoms: N_18  and  C_19
REMARK   17  A    between atoms: C_19  and  C_20
REMARK   18  A    between atoms: C_20  and  O_21
REMARK                            x       y       z     vdW  Elec       q    Type
REMARK                         _______ _______ _______ _____ _____    ______ ____
ROOT
ATOM      1  C   UNL     1      10.700   0.484  24.246  0.00  0.00    +0.000 C 
ENDROOT
BRANCH   1   2
ATOM      2  C   UNL     1      10.819   1.977  23.965  0.00  0.00    +0.000 C 
BRANCH   2   3
ATOM      3  C   UNL     1      10.438   2.281  22.521  0.00  0.00    +0.000 C 
BRANCH   3   4
ATOM      4  C   UNL     1       9.790   1.068  21.864  0.00  0.00    -0.000 C 
BRANCH   4   5
ATOM      5  C   UNL     1       8.397   1.411  21.351  0.00  0.00    -0.000 C 
BRANCH   5   6
ATOM      6  C   UNL     1       7.529   1.964  22.475  0.00  0.00    -0.000 C 
BRANCH   6   7
ATOM      7  C   UNL     1       6.802   3.228  22.027  0.00  0.00    -0.000 C 
BRANCH   7   8
ATOM      8  C   UNL     1       7.148   4.402  22.937  0.00  0.00    -0.000 C 
BRANCH   8   9
ATOM      9  C   UNL     1       7.649   3.915  24.293  0.00  0.00    -0.000 C 
BRANCH   9  10
ATOM     10  C   UNL     1       8.743   4.833  24.831  0.00  0.00    -0.000 C 
BRANCH  10  12
ATOM     11  C   UNL     1      10.802   5.886  23.848  0.00  0.00    +0.004 C 
ATOM     12  C   UNL     1       9.295   5.738  23.732  0.00  0.00    -0.003 C 
ENDBRANCH  10  12
ENDBRANCH   9  10
ENDBRANCH   8   9
ENDBRANCH   7   8
ENDBRANCH   6   7
ENDBRANCH   5   6
ENDBRANCH   4   5
ENDBRANCH   3   4
ENDBRANCH   2   3
ENDBRANCH   1   2
BRANCH   1  13
ATOM     13  C   UNL     1       9.651   0.205  25.318  0.00  0.00    +0.000 C 
BRANCH  13  14
ATOM     14  C   UNL     1       8.880  -1.067  24.983  0.00  0.00    +0.009 C 
BRANCH  14  15
ATOM     15  C   UNL     1       9.603  -1.906  23.937  0.00  0.00    +0.096 C 
BRANCH  15  16
ATOM     16  C   UNL     1       8.994  -3.288  23.826  0.00  0.00    +0.213 C 
ATOM     17  N   UNL     1       7.979  -3.373  22.908  0.00  0.00    -0.305 N 
ATOM     18  H   UNL     1       7.688  -2.543  22.408  0.00  0.00    +0.149 HD
ATOM     19  O   UNL     1       9.404  -4.278  24.419  0.00  0.00    -0.276 OA
BRANCH  17  20
ATOM     20  C   UNL     1       7.161  -4.578  22.763  0.00  0.00    +0.224 C 
BRANCH  20  21
ATOM     21  C   UNL     1       6.145  -4.521  21.625  0.00  0.00    +0.322 C 
ATOM     22  O   UNL     1       5.976  -5.434  20.830  0.00  0.00    -0.249 OA
BRANCH  21  23
ATOM     23  O   UNL     1       5.496  -3.339  21.511  0.00  0.00    -0.480 OA
ATOM     24  H   UNL     1       5.530  -3.013  20.590  0.00  0.00    +0.295 HD
ENDBRANCH  21  23
ENDBRANCH  20  21
ENDBRANCH  17  20
ENDBRANCH  15  16
ENDBRANCH  14  15
ENDBRANCH  13  14
ENDBRANCH   1  13
TORSDOF 17
ENDMDL
MODEL 5
REMARK VINA RESULT:      -4.5      2.672      5.223
REMARK  Name = 
REMARK  18 active torsions:
REMARK  status: ('A' for Active; 'I' for Inactive)
REMARK    1  A    between atoms: C_1  and  C_2
REMARK    2  A    between atoms: C_2  and  C_3
REMARK    3  A    between atoms: C_3  and  C_4
REMARK    4  A    between atoms: C_4  and  C_5
REMARK    5  A    between atoms: C_5  and  C_6
REMARK    6  A    between atoms: C_6  and  C_7
REMARK    7  A    between atoms: C_7  and  C_8
REMARK    8  A    between atoms: C_8  and  C_9
REMARK    9  A    between atoms: C_9  and  C_10
REMARK   10  A    between atoms: C_10  and  C_11
REMARK   11  A    between atoms: C_11  and  C_12
REMARK   12  A    between atoms: C_12  and  C_13
REMARK   13  A    between atoms: C_13  and  C_14
REMARK   14  A    between atoms: C_14  and  C_15
REMARK   15  A    between atoms: C_15  and  C_16
REMARK   16  A    between atoms: N_18  and  C_19
REMARK   17  A    between atoms: C_19  and  C_20
REMARK   18  A    between atoms: C_20  and  O_21
REMARK                            x       y       z     vdW  Elec       q    Type
REMARK                         _______ _______ _______ _____ _____    ______ ____
ROOT
ATOM      1  C   UNL     1       6.569   0.092  24.352  0.00  0.00    +0.000 C 
ENDROOT
BRANCH   1   2
ATOM      2  C   UNL     1       7.385   0.445  25.588  0.00  0.00    +0.000 C 
BRANCH   2   3
ATOM      3  C   UNL     1       8.805  -0.093  25.463  0.00  0.00    +0.000 C 
BRANCH   3   4
ATOM      4  C   UNL     1       9.700   0.905  24.738  0.00  0.00    -0.000 C 
BRANCH   4   5
ATOM      5  C   UNL     1      10.570   0.199  23.704  0.00  0.00    -0.000 C 
BRANCH   5   6
ATOM      6  C   UNL     1      10.020   0.414  22.299  0.00  0.00    -0.000 C 
BRANCH   6   7
ATOM      7  C   UNL     1       9.490   1.834  22.135  0.00  0.00    -0.000 C 
BRANCH   7   8
ATOM      8  C   UNL     1       8.094   1.824  21.520  0.00  0.00    -0.000 C 
BRANCH   8   9
ATOM      9  C   UNL     1       7.213   2.902  22.142  0.00  0.00    -0.000 C 
BRANCH   9  10
ATOM     10  C   UNL     1       8.049   3.882  22.962  0.00  0.00    -0.000 C 
BRANCH  10  12
ATOM     11  C   UNL     1       7.999   4.055  25.469  0.00  0.00    +0.004 C 
ATOM     12  C   UNL     1       7.273   4.388  24.177  0.00  0.00    -0.003 C 
ENDBRANCH  10  12
ENDBRANCH   9  10
ENDBRANCH   8   9
ENDBRANCH   7   8
ENDBRANCH   6   7
ENDBRANCH   5   6
ENDBRANCH   4   5
ENDBRANCH   3   4
ENDBRANCH   2   3
ENDBRANCH   1   2
BRANCH   1  13
ATOM     13  C   UNL     1       6.594  -1.410  24.083  0.00  0.00    +0.000 C 
BRANCH  13  14
ATOM     14  C   UNL     1       7.226  -1.692  22.724  0.00  0.00    +0.009 C 
BRANCH  14  15
ATOM     15  C   UNL     1       7.522  -3.175  22.537  0.00  0.00    +0.096 C 
BRANCH  15  16
ATOM     16  C   UNL     1       8.506  -3.672  23.575  0.00  0.00    +0.213 C 
ATOM     17  N   UNL     1       8.112  -4.826  24.203  0.00  0.00    -0.305 N 
ATOM     18  H   UNL     1       7.216  -5.238  23.972  0.00  0.00    +0.149 HD
ATOM     19  O   UNL     1       9.600  -3.168  23.794  0.00  0.00    -0.276 OA
BRANCH  17  20
ATOM     20  C   UNL     1       8.845  -5.381  25.342  0.00  0.00    +0.224 C 
BRANCH  20  21
ATOM     21  C   UNL     1       8.354  -4.902  26.705  0.00  0.00    +0.322 C 
ATOM     22  O   UNL     1       8.436  -3.740  27.078  0.00  0.00    -0.249 OA
BRANCH  21  23
ATOM     23  O   UNL     1       7.889  -5.884  27.511  0.00  0.00    -0.480 OA
ATOM     24  H   UNL     1       8.389  -5.909  28.350  0.00  0.00    +0.295 HD
ENDBRANCH  21  23
ENDBRANCH  20  21
ENDBRANCH  17  20
ENDBRANCH  15  16
ENDBRANCH  14  15
ENDBRANCH  13  14
ENDBRANCH   1  13
TORSDOF 17
ENDMDL
MODEL 6
REMARK VINA RESULT:      -4.5      6.105      8.387
REMARK  Name = 
REMARK  18 active torsions:
REMARK  status: ('A' for Active; 'I' for Inactive)
REMARK    1  A    between atoms: C_1  and  C_2
REMARK    2  A    between atoms: C_2  and  C_3
REMARK    3  A    between atoms: C_3  and  C_4
REMARK    4  A    between atoms: C_4  and  C_5
REMARK    5  A    between atoms: C_5  and  C_6
REMARK    6  A    between atoms: C_6  and  C_7
REMARK    7  A    between atoms: C_7  and  C_8
REMARK    8  A    between atoms: C_8  and  C_9
REMARK    9  A    between atoms: C_9  and  C_10
REMARK   10  A    between atoms: C_10  and  C_11
REMARK   11  A    between atoms: C_11  and  C_12
REMARK   12  A    between atoms: C_12  and  C_13
REMARK   13  A    between atoms: C_13  and  C_14
REMARK   14  A    between atoms: C_14  and  C_15
REMARK   15  A    between atoms: C_15  and  C_16
REMARK   16  A    between atoms: N_18  and  C_19
REMARK   17  A    between atoms: C_19  and  C_20
REMARK   18  A    between atoms: C_20  and  O_21
REMARK                            x       y       z     vdW  Elec       q    Type
REMARK                         _______ _______ _______ _____ _____    ______ ____
ROOT
ATOM      1  C   UNL     1       7.829   2.899  24.025  0.00  0.00    +0.000 C 
ENDROOT
BRANCH   1   2
ATOM      2  C   UNL     1       9.197   2.232  24.077  0.00  0.00    +0.000 C 
BRANCH   2   3
ATOM      3  C   UNL     1       9.955   2.464  22.776  0.00  0.00    +0.000 C 
BRANCH   3   4
ATOM      4  C   UNL     1      10.142   1.156  22.016  0.00  0.00    -0.000 C 
BRANCH   4   5
ATOM      5  C   UNL     1       8.796   0.512  21.708  0.00  0.00    -0.000 C 
BRANCH   5   6
ATOM      6  C   UNL     1       8.867  -1.000  21.889  0.00  0.00    -0.000 C 
BRANCH   6   7
ATOM      7  C   UNL     1      10.215  -1.414  22.468  0.00  0.00    -0.000 C 
BRANCH   7   8
ATOM      8  C   UNL     1      10.029  -2.357  23.652  0.00  0.00    -0.000 C 
BRANCH   8   9
ATOM      9  C   UNL     1       8.842  -1.930  24.510  0.00  0.00    -0.000 C 
BRANCH   9  10
ATOM     10  C   UNL     1       9.279  -0.952  25.597  0.00  0.00    -0.000 C 
BRANCH  10  12
ATOM     11  C   UNL     1       7.116   0.119  26.296  0.00  0.00    +0.004 C 
ATOM     12  C   UNL     1       8.225  -0.839  26.696  0.00  0.00    -0.003 C 
ENDBRANCH  10  12
ENDBRANCH   9  10
ENDBRANCH   8   9
ENDBRANCH   7   8
ENDBRANCH   6   7
ENDBRANCH   5   6
ENDBRANCH   4   5
ENDBRANCH   3   4
ENDBRANCH   2   3
ENDBRANCH   1   2
BRANCH   1  13
ATOM     13  C   UNL     1       7.746   3.898  22.875  0.00  0.00    +0.000 C 
BRANCH  13  14
ATOM     14  C   UNL     1       7.425   5.291  23.407  0.00  0.00    +0.009 C 
BRANCH  14  15
ATOM     15  C   UNL     1       8.450   6.320  22.949  0.00  0.00    +0.096 C 
BRANCH  15  16
ATOM     16  C   UNL     1       9.717   6.236  23.773  0.00  0.00    +0.213 C 
ATOM     17  N   UNL     1      10.834   5.924  23.040  0.00  0.00    -0.305 N 
ATOM     18  H   UNL     1      10.745   5.745  22.048  0.00  0.00    +0.149 HD
ATOM     19  O   UNL     1       9.791   6.502  24.966  0.00  0.00    -0.276 OA
BRANCH  17  20
ATOM     20  C   UNL     1      12.125   5.644  23.671  0.00  0.00    +0.224 C 
BRANCH  20  21
ATOM     21  C   UNL     1      13.272   5.416  22.691  0.00  0.00    +0.322 C 
ATOM     22  O   UNL     1      13.161   5.563  21.481  0.00  0.00    -0.249 OA
BRANCH  21  23
ATOM     23  O   UNL     1      14.411   4.955  23.257  0.00  0.00    -0.480 OA
ATOM     24  H   UNL     1      15.142   5.592  23.133  0.00  0.00    +0.295 HD
ENDBRANCH  21  23
ENDBRANCH  20  21
ENDBRANCH  17  20
ENDBRANCH  15  16
ENDBRANCH  14  15
ENDBRANCH  13  14
ENDBRANCH   1  13
TORSDOF 17
ENDMDL
MODEL 7
REMARK VINA RESULT:      -4.5      4.996      7.773
REMARK  Name = 
REMARK  18 active torsions:
REMARK  status: ('A' for Active; 'I' for Inactive)
REMARK    1  A    between atoms: C_1  and  C_2
REMARK    2  A    between atoms: C_2  and  C_3
REMARK    3  A    between atoms: C_3  and  C_4
REMARK    4  A    between atoms: C_4  and  C_5
REMARK    5  A    between atoms: C_5  and  C_6
REMARK    6  A    between atoms: C_6  and  C_7
REMARK    7  A    between atoms: C_7  and  C_8
REMARK    8  A    between atoms: C_8  and  C_9
REMARK    9  A    between atoms: C_9  and  C_10
REMARK   10  A    between atoms: C_10  and  C_11
REMARK   11  A    between atoms: C_11  and  C_12
REMARK   12  A    between atoms: C_12  and  C_13
REMARK   13  A    between atoms: C_13  and  C_14
REMARK   14  A    between atoms: C_14  and  C_15
REMARK   15  A    between atoms: C_15  and  C_16
REMARK   16  A    between atoms: N_18  and  C_19
REMARK   17  A    between atoms: C_19  and  C_20
REMARK   18  A    between atoms: C_20  and  O_21
REMARK                            x       y       z     vdW  Elec       q    Type
REMARK                         _______ _______ _______ _____ _____    ______ ____
ROOT
ATOM      1  C   UNL     1       9.858  -0.537  22.538  0.00  0.00    +0.000 C 
ENDROOT
BRANCH   1   2
ATOM      2  C   UNL     1       8.936  -1.749  22.581  0.00  0.00    +0.000 C 
BRANCH   2   3
ATOM      3  C   UNL     1       7.495  -1.317  22.817  0.00  0.00    +0.000 C 
BRANCH   3   4
ATOM      4  C   UNL     1       6.528  -2.450  22.493  0.00  0.00    -0.000 C 
BRANCH   4   5
ATOM      5  C   UNL     1       7.201  -3.805  22.678  0.00  0.00    -0.000 C 
BRANCH   5   6
ATOM      6  C   UNL     1       6.310  -4.745  23.481  0.00  0.00    -0.000 C 
BRANCH   6   7
ATOM      7  C   UNL     1       7.012  -5.203  24.754  0.00  0.00    -0.000 C 
BRANCH   7   8
ATOM      8  C   UNL     1       8.470  -4.754  24.760  0.00  0.00    -0.000 C 
BRANCH   8   9
ATOM      9  C   UNL     1       8.701  -3.656  25.794  0.00  0.00    -0.000 C 
BRANCH   9  10
ATOM     10  C   UNL     1       7.435  -3.396  26.604  0.00  0.00    -0.000 C 
BRANCH  10  12
ATOM     11  C   UNL     1       8.243  -1.021  26.472  0.00  0.00    +0.004 C 
ATOM     12  C   UNL     1       7.026  -1.927  26.535  0.00  0.00    -0.003 C 
ENDBRANCH  10  12
ENDBRANCH   9  10
ENDBRANCH   8   9
ENDBRANCH   7   8
ENDBRANCH   6   7
ENDBRANCH   5   6
ENDBRANCH   4   5
ENDBRANCH   3   4
ENDBRANCH   2   3
ENDBRANCH   1   2
BRANCH   1  13
ATOM     13  C   UNL     1      10.550  -0.321  23.881  0.00  0.00    +0.000 C 
BRANCH  13  14
ATOM     14  C   UNL     1      10.825   1.163  24.099  0.00  0.00    +0.009 C 
BRANCH  14  15
ATOM     15  C   UNL     1       9.640   2.024  23.682  0.00  0.00    +0.096 C 
BRANCH  15  16
ATOM     16  C   UNL     1       9.991   3.496  23.726  0.00  0.00    +0.213 C 
ATOM     17  N   UNL     1      11.256   3.778  23.276  0.00  0.00    -0.305 N 
ATOM     18  H   UNL     1      11.862   3.020  22.988  0.00  0.00    +0.149 HD
ATOM     19  O   UNL     1       9.212   4.388  24.041  0.00  0.00    -0.276 OA
BRANCH  17  20
ATOM     20  C   UNL     1      11.839   5.116  23.383  0.00  0.00    +0.224 C 
BRANCH  20  21
ATOM     21  C   UNL     1      13.160   5.291  22.639  0.00  0.00    +0.322 C 
ATOM     22  O   UNL     1      13.230   5.661  21.475  0.00  0.00    -0.249 OA
BRANCH  21  23
ATOM     23  O   UNL     1      14.254   4.926  23.344  0.00  0.00    -0.480 OA
ATOM     24  H   UNL     1      14.798   5.707  23.569  0.00  0.00    +0.295 HD
ENDBRANCH  21  23
ENDBRANCH  20  21
ENDBRANCH  17  20
ENDBRANCH  15  16
ENDBRANCH  14  15
ENDBRANCH  13  14
ENDBRANCH   1  13
TORSDOF 17
ENDMDL
MODEL 8
REMARK VINA RESULT:      -4.5      4.321      6.720
REMARK  Name = 
REMARK  18 active torsions:
REMARK  status: ('A' for Active; 'I' for Inactive)
REMARK    1  A    between atoms: C_1  and  C_2
REMARK    2  A    between atoms: C_2  and  C_3
REMARK    3  A    between atoms: C_3  and  C_4
REMARK    4  A    between atoms: C_4  and  C_5
REMARK    5  A    between atoms: C_5  and  C_6
REMARK    6  A    between atoms: C_6  and  C_7
REMARK    7  A    between atoms: C_7  and  C_8
REMARK    8  A    between atoms: C_8  and  C_9
REMARK    9  A    between atoms: C_9  and  C_10
REMARK   10  A    between atoms: C_10  and  C_11
REMARK   11  A    between atoms: C_11  and  C_12
REMARK   12  A    between atoms: C_12  and  C_13
REMARK   13  A    between atoms: C_13  and  C_14
REMARK   14  A    between atoms: C_14  and  C_15
REMARK   15  A    between atoms: C_15  and  C_16
REMARK   16  A    between atoms: N_18  and  C_19
REMARK   17  A    between atoms: C_19  and  C_20
REMARK   18  A    between atoms: C_20  and  O_21
REMARK                            x       y       z     vdW  Elec       q    Type
REMARK                         _______ _______ _______ _____ _____    ______ ____
ROOT
ATOM      1  C   UNL     1       9.426  -0.393  21.393  0.00  0.00    +0.000 C 
ENDROOT
BRANCH   1   2
ATOM      2  C   UNL     1       8.769  -1.298  22.428  0.00  0.00    +0.000 C 
BRANCH   2   3
ATOM      3  C   UNL     1       7.485  -0.666  22.951  0.00  0.00    +0.000 C 
BRANCH   3   4
ATOM      4  C   UNL     1       7.493  -0.602  24.474  0.00  0.00    -0.000 C 
BRANCH   4   5
ATOM      5  C   UNL     1       8.791  -1.174  25.033  0.00  0.00    -0.000 C 
BRANCH   5   6
ATOM      6  C   UNL     1       8.542  -1.880  26.361  0.00  0.00    -0.000 C 
BRANCH   6   7
ATOM      7  C   UNL     1       8.237  -3.358  26.142  0.00  0.00    -0.000 C 
BRANCH   7   8
ATOM      8  C   UNL     1       9.100  -3.927  25.020  0.00  0.00    -0.000 C 
BRANCH   8   9
ATOM      9  C   UNL     1       8.346  -5.001  24.241  0.00  0.00    -0.000 C 
BRANCH   9  10
ATOM     10  C   UNL     1       7.089  -4.424  23.597  0.00  0.00    -0.000 C 
BRANCH  10  12
ATOM     11  C   UNL     1       6.629  -5.955  21.657  0.00  0.00    +0.004 C 
ATOM     12  C   UNL     1       7.123  -4.581  22.078  0.00  0.00    -0.003 C 
ENDBRANCH  10  12
ENDBRANCH   9  10
ENDBRANCH   8   9
ENDBRANCH   7   8
ENDBRANCH   6   7
ENDBRANCH   5   6
ENDBRANCH   4   5
ENDBRANCH   3   4
ENDBRANCH   2   3
ENDBRANCH   1   2
BRANCH   1  13
ATOM     13  C   UNL     1       9.002   1.060  21.582  0.00  0.00    +0.000 C 
BRANCH  13  14
ATOM     14  C   UNL     1      10.180   1.893  22.076  0.00  0.00    +0.009 C 
BRANCH  14  15
ATOM     15  C   UNL     1      10.105   2.141  23.577  0.00  0.00    +0.096 C 
BRANCH  15  16
ATOM     16  C   UNL     1       9.065   3.190  23.908  0.00  0.00    +0.213 C 
ATOM     17  N   UNL     1       9.182   4.339  23.168  0.00  0.00    -0.305 N 
ATOM     18  H   UNL     1       9.939   4.427  22.501  0.00  0.00    +0.149 HD
ATOM     19  O   UNL     1       8.137   3.028  24.691  0.00  0.00    -0.276 OA
BRANCH  17  20
ATOM     20  C   UNL     1       8.374   5.527  23.443  0.00  0.00    +0.224 C 
BRANCH  20  21
ATOM     21  C   UNL     1       7.188   5.718  22.501  0.00  0.00    +0.322 C 
ATOM     22  O   UNL     1       6.048   5.373  22.779  0.00  0.00    -0.249 OA
BRANCH  21  23
ATOM     23  O   UNL     1       7.509   6.228  21.290  0.00  0.00    -0.480 OA
ATOM     24  H   UNL     1       7.336   7.190  21.262  0.00  0.00    +0.295 HD
ENDBRANCH  21  23
ENDBRANCH  20  21
ENDBRANCH  17  20
ENDBRANCH  15  16
ENDBRANCH  14  15
ENDBRANCH  13  14
ENDBRANCH   1  13
TORSDOF 17
ENDMDL
MODEL 9
REMARK VINA RESULT:      -4.4      4.378      6.563
REMARK  Name = 
REMARK  18 active torsions:
REMARK  status: ('A' for Active; 'I' for Inactive)
REMARK    1  A    between atoms: C_1  and  C_2
REMARK    2  A    between atoms: C_2  and  C_3
REMARK    3  A    between atoms: C_3  and  C_4
REMARK    4  A    between atoms: C_4  and  C_5
REMARK    5  A    between atoms: C_5  and  C_6
REMARK    6  A    between atoms: C_6  and  C_7
REMARK    7  A    between atoms: C_7  and  C_8
REMARK    8  A    between atoms: C_8  and  C_9
REMARK    9  A    between atoms: C_9  and  C_10
REMARK   10  A    between atoms: C_10  and  C_11
REMARK   11  A    between atoms: C_11  and  C_12
REMARK   12  A    between atoms: C_12  and  C_13
REMARK   13  A    between atoms: C_13  and  C_14
REMARK   14  A    between atoms: C_14  and  C_15
REMARK   15  A    between atoms: C_15  and  C_16
REMARK   16  A    between atoms: N_18  and  C_19
REMARK   17  A    between atoms: C_19  and  C_20
REMARK   18  A    between atoms: C_20  and  O_21
REMARK                            x       y       z     vdW  Elec       q    Type
REMARK                         _______ _______ _______ _____ _____    ______ ____
ROOT
ATOM      1  C   UNL     1      10.454  -0.820  22.622  0.00  0.00    +0.000 C 
ENDROOT
BRANCH   1   2
ATOM      2  C   UNL     1      10.073  -1.500  23.930  0.00  0.00    +0.000 C 
BRANCH   2   3
ATOM      3  C   UNL     1       9.713  -0.462  24.986  0.00  0.00    +0.000 C 
BRANCH   3   4
ATOM      4  C   UNL     1       8.288  -0.670  25.488  0.00  0.00    -0.000 C 
BRANCH   4   5
ATOM      5  C   UNL     1       7.311   0.215  24.723  0.00  0.00    -0.000 C 
BRANCH   5   6
ATOM      6  C   UNL     1       6.231  -0.627  24.053  0.00  0.00    -0.000 C 
BRANCH   6   7
ATOM      7  C   UNL     1       6.292  -2.072  24.537  0.00  0.00    -0.000 C 
BRANCH   7   8
ATOM      8  C   UNL     1       6.709  -3.005  23.404  0.00  0.00    -0.000 C 
BRANCH   8   9
ATOM      9  C   UNL     1       7.525  -4.180  23.934  0.00  0.00    -0.000 C 
BRANCH   9  10
ATOM     10  C   UNL     1       7.266  -4.395  25.423  0.00  0.00    -0.000 C 
BRANCH  10  12
ATOM     11  C   UNL     1       9.700  -5.022  25.416  0.00  0.00    +0.004 C 
ATOM     12  C   UNL     1       8.571  -4.394  26.216  0.00  0.00    -0.003 C 
ENDBRANCH  10  12
ENDBRANCH   9  10
ENDBRANCH   8   9
ENDBRANCH   7   8
ENDBRANCH   6   7
ENDBRANCH   5   6
ENDBRANCH   4   5
ENDBRANCH   3   4
ENDBRANCH   2   3
ENDBRANCH   1   2
BRANCH   1  13
ATOM     13  C   UNL     1       9.249  -0.693  21.694  0.00  0.00    +0.000 C 
BRANCH  13  14
ATOM     14  C   UNL     1       8.973   0.775  21.385  0.00  0.00    +0.009 C 
BRANCH  14  15
ATOM     15  C   UNL     1       9.990   1.693  22.052  0.00  0.00    +0.096 C 
BRANCH  15  16
ATOM     16  C   UNL     1       9.307   2.728  22.920  0.00  0.00    +0.213 C 
ATOM     17  N   UNL     1       8.217   3.314  22.328  0.00  0.00    -0.305 N 
ATOM     18  H   UNL     1       7.965   3.057  21.382  0.00  0.00    +0.149 HD
ATOM     19  O   UNL     1       9.617   2.980  24.078  0.00  0.00    -0.276 OA
BRANCH  17  20
ATOM     20  C   UNL     1       7.515   4.445  22.937  0.00  0.00    +0.224 C 
BRANCH  20  21
ATOM     21  C   UNL     1       7.908   5.809  22.376  0.00  0.00    +0.322 C 
ATOM     22  O   UNL     1       7.235   6.416  21.555  0.00  0.00    -0.249 OA
BRANCH  21  23
ATOM     23  O   UNL     1       9.109   6.265  22.799  0.00  0.00    -0.480 OA
ATOM     24  H   UNL     1       9.644   5.537  23.172  0.00  0.00    +0.295 HD
ENDBRANCH  21  23
ENDBRANCH  20  21
ENDBRANCH  17  20
ENDBRANCH  15  16
ENDBRANCH  14  15
ENDBRANCH  13  14
ENDBRANCH   1  13
TORSDOF 17
ENDMDL
