MODEL 1
REMARK VINA RESULT:      -7.1      0.000      0.000
REMARK  Name = 
REMARK  16 active torsions:
REMARK  status: ('A' for Active; 'I' for Inactive)
REMARK    1  A    between atoms: O_1  and  C_2
REMARK    2  A    between atoms: C_2  and  C_4
REMARK    3  A    between atoms: C_2  and  C_30
REMARK    4  A    between atoms: C_4  and  C_5
REMARK    5  A    between atoms: C_5  and  O_7
REMARK    6  A    between atoms: C_5  and  C_15
REMARK    7  A    between atoms: O_7  and  C_8
REMARK    8  A    between atoms: C_8  and  C_9
REMARK    9  A    between atoms: N_17  and  C_18
REMARK   10  A    between atoms: C_20  and  O_22
REMARK   11  A    between atoms: C_30  and  O_32
REMARK   12  A    between atoms: C_30  and  C_40
REMARK   13  A    between atoms: O_32  and  C_33
REMARK   14  A    between atoms: C_33  and  C_34
REMARK   15  A    between atoms: N_42  and  C_43
REMARK   16  A    between atoms: C_45  and  O_47
REMARK                            x       y       z     vdW  Elec       q    Type
REMARK                         _______ _______ _______ _____ _____    ______ ____
ROOT
ATOM      1  C   UNL     1       9.035  -0.196  25.062  0.00  0.00    +0.155 C 
ENDROOT
BRANCH   1   2
ATOM      2  O   UNL     1      10.268   0.358  25.567  0.00  0.00    -0.389 OA
ATOM      3  H   UNL     1      10.036   1.046  26.214  0.00  0.00    +0.210 HD
ENDBRANCH   1   2
BRANCH   1   4
ATOM      4  C   UNL     1       7.943   0.853  25.370  0.00  0.00    +0.075 C 
BRANCH   4   5
ATOM      5  C   UNL     1       6.692   0.310  26.074  0.00  0.00    +0.207 C 
BRANCH   5   6
ATOM      6  C   UNL     1       5.423   1.198  25.959  0.00  0.00    +0.243 C 
ATOM      7  N   UNL     1       5.728   2.551  25.962  0.00  0.00    -0.304 N 
ATOM      8  H   UNL     1       6.696   2.800  26.141  0.00  0.00    +0.149 HD
ATOM      9  O   UNL     1       4.281   0.757  25.903  0.00  0.00    -0.273 OA
BRANCH   7  10
ATOM     10  C   UNL     1       4.728   3.588  26.171  0.00  0.00    +0.132 C 
ATOM     11  C   UNL     1       4.471   4.328  24.888  0.00  0.00    -0.022 A 
ATOM     12  C   UNL     1       5.020   5.612  24.903  0.00  0.00    -0.040 A 
ATOM     13  C   UNL     1       5.015   6.407  23.765  0.00  0.00    +0.004 A 
ATOM     14  C   UNL     1       4.409   5.915  22.610  0.00  0.00    +0.000 A 
ATOM     15  C   UNL     1       3.798   4.653  22.610  0.00  0.00    +0.000 A 
ATOM     16  C   UNL     1       5.608   5.954  26.234  0.00  0.00    +0.069 C 
ATOM     17  C   UNL     1       3.829   3.850  23.754  0.00  0.00    +0.006 A 
ATOM     18  C   UNL     1       5.243   4.733  27.105  0.00  0.00    +0.143 C 
BRANCH  18  19
ATOM     19  O   UNL     1       4.252   5.093  28.066  0.00  0.00    -0.389 OA
ATOM     20  H   UNL     1       3.401   4.728  27.785  0.00  0.00    +0.210 HD
ENDBRANCH  18  19
ENDBRANCH   7  10
ENDBRANCH   5   6
BRANCH   5  21
ATOM     21  O   UNL     1       6.373  -1.018  25.665  0.00  0.00    -0.363 OA
BRANCH  21  22
ATOM     22  C   UNL     1       6.362  -1.971  26.735  0.00  0.00    +0.196 C 
BRANCH  22  23
ATOM     23  C   UNL     1       5.021  -2.649  26.779  0.00  0.00    -0.022 A 
ATOM     24  C   UNL     1       4.198  -2.594  25.649  0.00  0.00    +0.006 A 
ATOM     25  C   UNL     1       3.002  -3.307  25.610  0.00  0.00    +0.000 A 
ATOM     26  C   UNL     1       2.595  -4.042  26.721  0.00  0.00    +0.000 A 
ATOM     27  C   UNL     1       3.380  -4.055  27.873  0.00  0.00    +0.000 A 
ATOM     28  C   UNL     1       4.584  -3.359  27.905  0.00  0.00    +0.006 A 
ENDBRANCH  22  23
ENDBRANCH  21  22
ENDBRANCH   5  21
ENDBRANCH   4   5
ENDBRANCH   1   4
BRANCH   1  29
ATOM     29  C   UNL     1       9.247  -0.650  23.586  0.00  0.00    +0.232 C 
BRANCH  29  30
ATOM     30  C   UNL     1       9.562  -2.161  23.614  0.00  0.00    +0.245 C 
ATOM     31  N   UNL     1       8.591  -2.899  24.249  0.00  0.00    -0.304 N 
ATOM     32  H   UNL     1       7.787  -2.380  24.601  0.00  0.00    +0.149 HD
ATOM     33  O   UNL     1      10.568  -2.642  23.102  0.00  0.00    -0.273 OA
BRANCH  31  34
ATOM     34  C   UNL     1       8.673  -4.318  24.484  0.00  0.00    +0.132 C 
ATOM     35  C   UNL     1       7.311  -4.926  24.343  0.00  0.00    -0.022 A 
ATOM     36  C   UNL     1       6.867  -5.513  25.527  0.00  0.00    -0.040 A 
ATOM     37  C   UNL     1       5.607  -6.089  25.605  0.00  0.00    +0.004 A 
ATOM     38  C   UNL     1       4.786  -6.058  24.474  0.00  0.00    +0.000 A 
ATOM     39  C   UNL     1       5.227  -5.455  23.288  0.00  0.00    +0.000 A 
ATOM     40  C   UNL     1       7.860  -5.364  26.634  0.00  0.00    +0.069 C 
ATOM     41  C   UNL     1       6.498  -4.885  23.218  0.00  0.00    +0.006 A 
ATOM     42  C   UNL     1       9.069  -4.684  25.952  0.00  0.00    +0.143 C 
BRANCH  42  43
ATOM     43  O   UNL     1      10.193  -5.573  25.985  0.00  0.00    -0.389 OA
ATOM     44  H   UNL     1      10.981  -5.043  26.212  0.00  0.00    +0.210 HD
ENDBRANCH  42  43
ENDBRANCH  31  34
ENDBRANCH  29  30
BRANCH  29  45
ATOM     45  O   UNL     1      10.308   0.073  22.932  0.00  0.00    -0.360 OA
BRANCH  45  46
ATOM     46  C   UNL     1       9.818   0.899  21.860  0.00  0.00    +0.196 C 
BRANCH  46  47
ATOM     47  C   UNL     1       9.294   2.232  22.347  0.00  0.00    -0.022 A 
ATOM     48  C   UNL     1       8.006   2.637  21.956  0.00  0.00    +0.006 A 
ATOM     49  C   UNL     1       7.441   3.810  22.459  0.00  0.00    +0.000 A 
ATOM     50  C   UNL     1       8.156   4.593  23.361  0.00  0.00    +0.000 A 
ATOM     51  C   UNL     1       9.444   4.217  23.740  0.00  0.00    +0.000 A 
ATOM     52  C   UNL     1      10.014   3.048  23.230  0.00  0.00    +0.006 A 
ENDBRANCH  46  47
ENDBRANCH  45  46
ENDBRANCH  29  45
ENDBRANCH   1  29
TORSDOF 16
ENDMDL
MODEL 2
REMARK VINA RESULT:      -6.8      2.273      7.782
REMARK  Name = 
REMARK  16 active torsions:
REMARK  status: ('A' for Active; 'I' for Inactive)
REMARK    1  A    between atoms: O_1  and  C_2
REMARK    2  A    between atoms: C_2  and  C_4
REMARK    3  A    between atoms: C_2  and  C_30
REMARK    4  A    between atoms: C_4  and  C_5
REMARK    5  A    between atoms: C_5  and  O_7
REMARK    6  A    between atoms: C_5  and  C_15
REMARK    7  A    between atoms: O_7  and  C_8
REMARK    8  A    between atoms: C_8  and  C_9
REMARK    9  A    between atoms: N_17  and  C_18
REMARK   10  A    between atoms: C_20  and  O_22
REMARK   11  A    between atoms: C_30  and  O_32
REMARK   12  A    between atoms: C_30  and  C_40
REMARK   13  A    between atoms: O_32  and  C_33
REMARK   14  A    between atoms: C_33  and  C_34
REMARK   15  A    between atoms: N_42  and  C_43
REMARK   16  A    between atoms: C_45  and  O_47
REMARK                            x       y       z     vdW  Elec       q    Type
REMARK                         _______ _______ _______ _____ _____    ______ ____
ROOT
ATOM      1  C   UNL     1       9.088  -0.801  21.801  0.00  0.00    +0.155 C 
ENDROOT
BRANCH   1   2
ATOM      2  O   UNL     1      10.306  -1.573  21.732  0.00  0.00    -0.389 OA
ATOM      3  H   UNL     1      10.919  -1.213  22.396  0.00  0.00    +0.210 HD
ENDBRANCH   1   2
BRANCH   1   4
ATOM      4  C   UNL     1       8.444  -1.150  23.162  0.00  0.00    +0.075 C 
BRANCH   4   5
ATOM      5  C   UNL     1       7.415  -2.289  23.129  0.00  0.00    +0.207 C 
BRANCH   5   6
ATOM      6  C   UNL     1       7.849  -3.602  23.836  0.00  0.00    +0.243 C 
ATOM      7  N   UNL     1       6.768  -4.303  24.347  0.00  0.00    -0.304 N 
ATOM      8  H   UNL     1       5.863  -3.846  24.298  0.00  0.00    +0.149 HD
ATOM      9  O   UNL     1       9.014  -3.961  23.958  0.00  0.00    -0.273 OA
BRANCH   7  10
ATOM     10  C   UNL     1       6.910  -5.389  25.307  0.00  0.00    +0.132 C 
ATOM     11  C   UNL     1       5.567  -5.996  25.606  0.00  0.00    -0.022 A 
ATOM     12  C   UNL     1       5.109  -5.654  26.880  0.00  0.00    -0.040 A 
ATOM     13  C   UNL     1       3.830  -5.998  27.297  0.00  0.00    +0.004 A 
ATOM     14  C   UNL     1       3.021  -6.733  26.432  0.00  0.00    +0.000 A 
ATOM     15  C   UNL     1       3.502  -7.135  25.178  0.00  0.00    +0.000 A 
ATOM     16  C   UNL     1       6.126  -4.880  27.653  0.00  0.00    +0.069 C 
ATOM     17  C   UNL     1       4.783  -6.765  24.757  0.00  0.00    +0.006 A 
ATOM     18  C   UNL     1       7.355  -4.882  26.719  0.00  0.00    +0.143 C 
BRANCH  18  19
ATOM     19  O   UNL     1       8.382  -5.712  27.259  0.00  0.00    -0.389 OA
ATOM     20  H   UNL     1       9.232  -5.435  26.888  0.00  0.00    +0.210 HD
ENDBRANCH  18  19
ENDBRANCH   7  10
ENDBRANCH   5   6
BRANCH   5  21
ATOM     21  O   UNL     1       6.143  -1.885  23.632  0.00  0.00    -0.363 OA
BRANCH  21  22
ATOM     22  C   UNL     1       6.216  -1.019  24.772  0.00  0.00    +0.196 C 
BRANCH  22  23
ATOM     23  C   UNL     1       5.248  -1.497  25.817  0.00  0.00    -0.022 A 
ATOM     24  C   UNL     1       5.440  -1.107  27.147  0.00  0.00    +0.006 A 
ATOM     25  C   UNL     1       4.500  -1.432  28.122  0.00  0.00    +0.000 A 
ATOM     26  C   UNL     1       3.383  -2.194  27.785  0.00  0.00    +0.000 A 
ATOM     27  C   UNL     1       3.213  -2.637  26.474  0.00  0.00    +0.000 A 
ATOM     28  C   UNL     1       4.142  -2.296  25.496  0.00  0.00    +0.006 A 
ENDBRANCH  22  23
ENDBRANCH  21  22
ENDBRANCH   5  21
ENDBRANCH   4   5
ENDBRANCH   1   4
BRANCH   1  29
ATOM     29  C   UNL     1       9.410   0.689  21.482  0.00  0.00    +0.232 C 
BRANCH  29  30
ATOM     30  C   UNL     1      10.094   1.286  22.730  0.00  0.00    +0.245 C 
ATOM     31  N   UNL     1      10.227   2.653  22.666  0.00  0.00    -0.304 N 
ATOM     32  H   UNL     1       9.851   3.105  21.834  0.00  0.00    +0.149 HD
ATOM     33  O   UNL     1      10.460   0.603  23.682  0.00  0.00    -0.273 OA
BRANCH  31  34
ATOM     34  C   UNL     1      10.900   3.452  23.660  0.00  0.00    +0.132 C 
ATOM     35  C   UNL     1       9.894   4.279  24.398  0.00  0.00    -0.022 A 
ATOM     36  C   UNL     1      10.109   5.647  24.236  0.00  0.00    -0.040 A 
ATOM     37  C   UNL     1       9.250   6.574  24.809  0.00  0.00    +0.004 A 
ATOM     38  C   UNL     1       8.157   6.109  25.544  0.00  0.00    +0.000 A 
ATOM     39  C   UNL     1       7.932   4.734  25.695  0.00  0.00    +0.000 A 
ATOM     40  C   UNL     1      11.279   5.929  23.349  0.00  0.00    +0.069 C 
ATOM     41  C   UNL     1       8.804   3.809  25.122  0.00  0.00    +0.006 A 
ATOM     42  C   UNL     1      11.857   4.527  23.050  0.00  0.00    +0.143 C 
BRANCH  42  43
ATOM     43  O   UNL     1      13.175   4.431  23.606  0.00  0.00    -0.389 OA
ATOM     44  H   UNL     1      13.742   3.987  22.947  0.00  0.00    +0.210 HD
ENDBRANCH  42  43
ENDBRANCH  31  34
ENDBRANCH  29  30
BRANCH  29  45
ATOM     45  O   UNL     1       8.233   1.448  21.143  0.00  0.00    -0.360 OA
BRANCH  45  46
ATOM     46  C   UNL     1       7.246   1.411  22.191  0.00  0.00    +0.196 C 
BRANCH  46  47
ATOM     47  C   UNL     1       6.601   2.759  22.429  0.00  0.00    -0.022 A 
ATOM     48  C   UNL     1       5.436   2.823  23.213  0.00  0.00    +0.006 A 
ATOM     49  C   UNL     1       4.862   4.051  23.543  0.00  0.00    +0.000 A 
ATOM     50  C   UNL     1       5.446   5.233  23.095  0.00  0.00    +0.000 A 
ATOM     51  C   UNL     1       6.589   5.185  22.298  0.00  0.00    +0.000 A 
ATOM     52  C   UNL     1       7.158   3.956  21.959  0.00  0.00    +0.006 A 
ENDBRANCH  46  47
ENDBRANCH  45  46
ENDBRANCH  29  45
ENDBRANCH   1  29
TORSDOF 16
ENDMDL
MODEL 3
REMARK VINA RESULT:      -6.7      0.815      9.092
REMARK  Name = 
REMARK  16 active torsions:
REMARK  status: ('A' for Active; 'I' for Inactive)
REMARK    1  A    between atoms: O_1  and  C_2
REMARK    2  A    between atoms: C_2  and  C_4
REMARK    3  A    between atoms: C_2  and  C_30
REMARK    4  A    between atoms: C_4  and  C_5
REMARK    5  A    between atoms: C_5  and  O_7
REMARK    6  A    between atoms: C_5  and  C_15
REMARK    7  A    between atoms: O_7  and  C_8
REMARK    8  A    between atoms: C_8  and  C_9
REMARK    9  A    between atoms: N_17  and  C_18
REMARK   10  A    between atoms: C_20  and  O_22
REMARK   11  A    between atoms: C_30  and  O_32
REMARK   12  A    between atoms: C_30  and  C_40
REMARK   13  A    between atoms: O_32  and  C_33
REMARK   14  A    between atoms: C_33  and  C_34
REMARK   15  A    between atoms: N_42  and  C_43
REMARK   16  A    between atoms: C_45  and  O_47
REMARK                            x       y       z     vdW  Elec       q    Type
REMARK                         _______ _______ _______ _____ _____    ______ ____
ROOT
ATOM      1  C   UNL     1       7.859   0.767  25.350  0.00  0.00    +0.155 C 
ENDROOT
BRANCH   1   2
ATOM      2  O   UNL     1       7.841   1.348  26.671  0.00  0.00    -0.389 OA
ATOM      3  H   UNL     1       7.022   1.056  27.108  0.00  0.00    +0.210 HD
ENDBRANCH   1   2
BRANCH   1   4
ATOM      4  C   UNL     1       9.127  -0.116  25.294  0.00  0.00    +0.075 C 
BRANCH   4   5
ATOM      5  C   UNL     1       9.653  -0.422  23.885  0.00  0.00    +0.207 C 
BRANCH   5   6
ATOM      6  C   UNL     1       9.780  -1.929  23.532  0.00  0.00    +0.243 C 
ATOM      7  N   UNL     1       8.923  -2.716  24.286  0.00  0.00    -0.304 N 
ATOM      8  H   UNL     1       8.408  -2.251  25.027  0.00  0.00    +0.149 HD
ATOM      9  O   UNL     1      10.568  -2.374  22.708  0.00  0.00    -0.273 OA
BRANCH   7  10
ATOM     10  C   UNL     1       9.052  -4.164  24.377  0.00  0.00    +0.132 C 
ATOM     11  C   UNL     1       7.779  -4.827  23.929  0.00  0.00    -0.022 A 
ATOM     12  C   UNL     1       7.064  -5.367  25.000  0.00  0.00    -0.040 A 
ATOM     13  C   UNL     1       5.795  -5.900  24.818  0.00  0.00    +0.004 A 
ATOM     14  C   UNL     1       5.261  -5.928  23.530  0.00  0.00    +0.000 A 
ATOM     15  C   UNL     1       6.004  -5.447  22.442  0.00  0.00    +0.000 A 
ATOM     16  C   UNL     1       7.811  -5.251  26.288  0.00  0.00    +0.069 C 
ATOM     17  C   UNL     1       7.271  -4.891  22.639  0.00  0.00    +0.006 A 
ATOM     18  C   UNL     1       9.170  -4.660  25.856  0.00  0.00    +0.143 C 
BRANCH  18  19
ATOM     19  O   UNL     1      10.197  -5.642  25.985  0.00  0.00    -0.389 OA
ATOM     20  H   UNL     1      11.018  -5.200  26.242  0.00  0.00    +0.210 HD
ENDBRANCH  18  19
ENDBRANCH   7  10
ENDBRANCH   5   6
BRANCH   5  21
ATOM     21  O   UNL     1       8.895   0.234  22.870  0.00  0.00    -0.363 OA
BRANCH  21  22
ATOM     22  C   UNL     1       9.593   1.304  22.221  0.00  0.00    +0.196 C 
BRANCH  22  23
ATOM     23  C   UNL     1       8.940   2.609  22.580  0.00  0.00    -0.022 A 
ATOM     24  C   UNL     1       9.594   3.470  23.470  0.00  0.00    +0.006 A 
ATOM     25  C   UNL     1       9.078   4.736  23.735  0.00  0.00    +0.000 A 
ATOM     26  C   UNL     1       7.877   5.134  23.152  0.00  0.00    +0.000 A 
ATOM     27  C   UNL     1       7.188   4.261  22.310  0.00  0.00    +0.000 A 
ATOM     28  C   UNL     1       7.714   3.003  22.030  0.00  0.00    +0.006 A 
ENDBRANCH  22  23
ENDBRANCH  21  22
ENDBRANCH   5  21
ENDBRANCH   4   5
ENDBRANCH   1   4
BRANCH   1  29
ATOM     29  C   UNL     1       6.475   0.114  25.060  0.00  0.00    +0.232 C 
BRANCH  29  30
ATOM     30  C   UNL     1       5.402   1.004  25.723  0.00  0.00    +0.245 C 
ATOM     31  N   UNL     1       5.242   2.213  25.088  0.00  0.00    -0.304 N 
ATOM     32  H   UNL     1       5.820   2.370  24.263  0.00  0.00    +0.149 HD
ATOM     33  O   UNL     1       4.754   0.650  26.703  0.00  0.00    -0.273 OA
BRANCH  31  34
ATOM     34  C   UNL     1       4.365   3.261  25.545  0.00  0.00    +0.132 C 
ATOM     35  C   UNL     1       4.104   4.217  24.422  0.00  0.00    -0.022 A 
ATOM     36  C   UNL     1       4.562   5.503  24.703  0.00  0.00    -0.040 A 
ATOM     37  C   UNL     1       4.449   6.518  23.763  0.00  0.00    +0.004 A 
ATOM     38  C   UNL     1       3.878   6.221  22.523  0.00  0.00    +0.000 A 
ATOM     39  C   UNL     1       3.431   4.925  22.235  0.00  0.00    +0.000 A 
ATOM     40  C   UNL     1       5.212   5.587  26.046  0.00  0.00    +0.069 C 
ATOM     41  C   UNL     1       3.541   3.913  23.188  0.00  0.00    +0.006 A 
ATOM     42  C   UNL     1       5.006   4.175  26.641  0.00  0.00    +0.143 C 
BRANCH  42  43
ATOM     43  O   UNL     1       4.168   4.268  27.800  0.00  0.00    -0.389 OA
ATOM     44  H   UNL     1       4.750   4.270  28.584  0.00  0.00    +0.210 HD
ENDBRANCH  42  43
ENDBRANCH  31  34
ENDBRANCH  29  30
BRANCH  29  45
ATOM     45  O   UNL     1       6.386  -1.236  25.557  0.00  0.00    -0.360 OA
BRANCH  45  46
ATOM     46  C   UNL     1       5.412  -2.013  24.836  0.00  0.00    +0.196 C 
BRANCH  46  47
ATOM     47  C   UNL     1       4.521  -2.822  25.752  0.00  0.00    -0.022 A 
ATOM     48  C   UNL     1       3.330  -3.363  25.235  0.00  0.00    +0.006 A 
ATOM     49  C   UNL     1       2.526  -4.197  26.013  0.00  0.00    +0.000 A 
ATOM     50  C   UNL     1       2.902  -4.503  27.318  0.00  0.00    +0.000 A 
ATOM     51  C   UNL     1       4.068  -3.957  27.853  0.00  0.00    +0.000 A 
ATOM     52  C   UNL     1       4.868  -3.113  27.078  0.00  0.00    +0.006 A 
ENDBRANCH  46  47
ENDBRANCH  45  46
ENDBRANCH  29  45
ENDBRANCH   1  29
TORSDOF 16
ENDMDL
MODEL 4
REMARK VINA RESULT:      -6.6      1.902      6.126
REMARK  Name = 
REMARK  16 active torsions:
REMARK  status: ('A' for Active; 'I' for Inactive)
REMARK    1  A    between atoms: O_1  and  C_2
REMARK    2  A    between atoms: C_2  and  C_4
REMARK    3  A    between atoms: C_2  and  C_30
REMARK    4  A    between atoms: C_4  and  C_5
REMARK    5  A    between atoms: C_5  and  O_7
REMARK    6  A    between atoms: C_5  and  C_15
REMARK    7  A    between atoms: O_7  and  C_8
REMARK    8  A    between atoms: C_8  and  C_9
REMARK    9  A    between atoms: N_17  and  C_18
REMARK   10  A    between atoms: C_20  and  O_22
REMARK   11  A    between atoms: C_30  and  O_32
REMARK   12  A    between atoms: C_30  and  C_40
REMARK   13  A    between atoms: O_32  and  C_33
REMARK   14  A    between atoms: C_33  and  C_34
REMARK   15  A    between atoms: N_42  and  C_43
REMARK   16  A    between atoms: C_45  and  O_47
REMARK                            x       y       z     vdW  Elec       q    Type
REMARK                         _______ _______ _______ _____ _____    ______ ____
ROOT
ATOM      1  C   UNL     1       9.113  -2.787  25.147  0.00  0.00    +0.155 C 
ENDROOT
BRANCH   1   2
ATOM      2  O   UNL     1       9.283  -2.715  23.716  0.00  0.00    -0.389 OA
ATOM      3  H   UNL     1      10.238  -2.741  23.532  0.00  0.00    +0.210 HD
ENDBRANCH   1   2
BRANCH   1   4
ATOM      4  C   UNL     1       8.190  -1.605  25.524  0.00  0.00    +0.075 C 
BRANCH   4   5
ATOM      5  C   UNL     1       8.898  -0.388  26.134  0.00  0.00    +0.207 C 
BRANCH   5   6
ATOM      6  C   UNL     1       9.725   0.471  25.140  0.00  0.00    +0.243 C 
ATOM      7  N   UNL     1       9.180   1.734  24.961  0.00  0.00    -0.304 N 
ATOM      8  H   UNL     1       8.281   1.910  25.399  0.00  0.00    +0.149 HD
ATOM      9  O   UNL     1      10.724   0.071  24.555  0.00  0.00    -0.273 OA
BRANCH   7  10
ATOM     10  C   UNL     1       9.569   2.618  23.872  0.00  0.00    +0.132 C 
ATOM     11  C   UNL     1       8.790   3.902  23.942  0.00  0.00    -0.022 A 
ATOM     12  C   UNL     1       7.822   3.984  22.939  0.00  0.00    -0.040 A 
ATOM     13  C   UNL     1       6.903   5.024  22.913  0.00  0.00    +0.004 A 
ATOM     14  C   UNL     1       6.994   6.018  23.886  0.00  0.00    +0.000 A 
ATOM     15  C   UNL     1       8.007   5.975  24.855  0.00  0.00    +0.000 A 
ATOM     16  C   UNL     1       7.899   2.832  21.991  0.00  0.00    +0.069 C 
ATOM     17  C   UNL     1       8.912   4.911  24.888  0.00  0.00    +0.006 A 
ATOM     18  C   UNL     1       9.147   2.061  22.472  0.00  0.00    +0.143 C 
BRANCH  18  19
ATOM     19  O   UNL     1      10.206   2.200  21.526  0.00  0.00    -0.389 OA
ATOM     20  H   UNL     1      10.003   2.942  20.940  0.00  0.00    +0.210 HD
ENDBRANCH  18  19
ENDBRANCH   7  10
ENDBRANCH   5   6
BRANCH   5  21
ATOM     21  O   UNL     1       8.000   0.458  26.850  0.00  0.00    -0.363 OA
BRANCH  21  22
ATOM     22  C   UNL     1       6.616   0.190  26.593  0.00  0.00    +0.196 C 
BRANCH  22  23
ATOM     23  C   UNL     1       5.962   1.436  26.066  0.00  0.00    -0.022 A 
ATOM     24  C   UNL     1       5.357   1.401  24.805  0.00  0.00    +0.006 A 
ATOM     25  C   UNL     1       4.640   2.499  24.334  0.00  0.00    +0.000 A 
ATOM     26  C   UNL     1       4.565   3.661  25.100  0.00  0.00    +0.000 A 
ATOM     27  C   UNL     1       5.215   3.726  26.332  0.00  0.00    +0.000 A 
ATOM     28  C   UNL     1       5.914   2.622  26.811  0.00  0.00    +0.006 A 
ENDBRANCH  22  23
ENDBRANCH  21  22
ENDBRANCH   5  21
ENDBRANCH   4   5
ENDBRANCH   1   4
BRANCH   1  29
ATOM     29  C   UNL     1       8.680  -4.232  25.537  0.00  0.00    +0.232 C 
BRANCH  29  30
ATOM     30  C   UNL     1       7.752  -4.749  24.417  0.00  0.00    +0.245 C 
ATOM     31  N   UNL     1       6.456  -4.311  24.550  0.00  0.00    -0.304 N 
ATOM     32  H   UNL     1       6.266  -3.695  25.340  0.00  0.00    +0.149 HD
ATOM     33  O   UNL     1       8.148  -5.461  23.499  0.00  0.00    -0.273 OA
BRANCH  31  34
ATOM     34  C   UNL     1       5.372  -4.707  23.688  0.00  0.00    +0.132 C 
ATOM     35  C   UNL     1       4.070  -4.509  24.402  0.00  0.00    -0.022 A 
ATOM     36  C   UNL     1       3.375  -5.705  24.579  0.00  0.00    -0.040 A 
ATOM     37  C   UNL     1       2.166  -5.729  25.261  0.00  0.00    +0.004 A 
ATOM     38  C   UNL     1       1.665  -4.531  25.777  0.00  0.00    +0.000 A 
ATOM     39  C   UNL     1       2.371  -3.332  25.612  0.00  0.00    +0.000 A 
ATOM     40  C   UNL     1       4.121  -6.876  24.026  0.00  0.00    +0.069 C 
ATOM     41  C   UNL     1       3.581  -3.316  24.919  0.00  0.00    +0.006 A 
ATOM     42  C   UNL     1       5.363  -6.237  23.362  0.00  0.00    +0.143 C 
BRANCH  42  43
ATOM     43  O   UNL     1       5.316  -6.471  21.948  0.00  0.00    -0.389 OA
ATOM     44  H   UNL     1       4.545  -5.987  21.595  0.00  0.00    +0.210 HD
ENDBRANCH  42  43
ENDBRANCH  31  34
ENDBRANCH  29  30
BRANCH  29  45
ATOM     45  O   UNL     1       8.007  -4.283  26.810  0.00  0.00    -0.360 OA
BRANCH  45  46
ATOM     46  C   UNL     1       7.505  -5.601  27.103  0.00  0.00    +0.196 C 
BRANCH  46  47
ATOM     47  C   UNL     1       6.124  -5.572  27.719  0.00  0.00    -0.022 A 
ATOM     48  C   UNL     1       5.583  -4.336  28.112  0.00  0.00    +0.006 A 
ATOM     49  C   UNL     1       4.276  -4.247  28.592  0.00  0.00    +0.000 A 
ATOM     50  C   UNL     1       3.491  -5.393  28.685  0.00  0.00    +0.000 A 
ATOM     51  C   UNL     1       4.020  -6.630  28.320  0.00  0.00    +0.000 A 
ATOM     52  C   UNL     1       5.332  -6.721  27.849  0.00  0.00    +0.006 A 
ENDBRANCH  46  47
ENDBRANCH  45  46
ENDBRANCH  29  45
ENDBRANCH   1  29
TORSDOF 16
ENDMDL
MODEL 5
REMARK VINA RESULT:      -6.6      2.217      8.003
REMARK  Name = 
REMARK  16 active torsions:
REMARK  status: ('A' for Active; 'I' for Inactive)
REMARK    1  A    between atoms: O_1  and  C_2
REMARK    2  A    between atoms: C_2  and  C_4
REMARK    3  A    between atoms: C_2  and  C_30
REMARK    4  A    between atoms: C_4  and  C_5
REMARK    5  A    between atoms: C_5  and  O_7
REMARK    6  A    between atoms: C_5  and  C_15
REMARK    7  A    between atoms: O_7  and  C_8
REMARK    8  A    between atoms: C_8  and  C_9
REMARK    9  A    between atoms: N_17  and  C_18
REMARK   10  A    between atoms: C_20  and  O_22
REMARK   11  A    between atoms: C_30  and  O_32
REMARK   12  A    between atoms: C_30  and  C_40
REMARK   13  A    between atoms: O_32  and  C_33
REMARK   14  A    between atoms: C_33  and  C_34
REMARK   15  A    between atoms: N_42  and  C_43
REMARK   16  A    between atoms: C_45  and  O_47
REMARK                            x       y       z     vdW  Elec       q    Type
REMARK                         _______ _______ _______ _____ _____    ______ ____
ROOT
ATOM      1  C   UNL     1       6.824  -1.910  27.117  0.00  0.00    +0.155 C 
ENDROOT
BRANCH   1   2
ATOM      2  O   UNL     1       5.536  -1.263  27.037  0.00  0.00    -0.389 OA
ATOM      3  H   UNL     1       5.481  -0.629  27.773  0.00  0.00    +0.210 HD
ENDBRANCH   1   2
BRANCH   1   4
ATOM      4  C   UNL     1       6.744  -3.129  26.170  0.00  0.00    +0.075 C 
BRANCH   4   5
ATOM      5  C   UNL     1       7.660  -4.306  26.536  0.00  0.00    +0.207 C 
BRANCH   5   6
ATOM      6  C   UNL     1       6.941  -5.556  27.114  0.00  0.00    +0.243 C 
ATOM      7  N   UNL     1       5.886  -5.969  26.315  0.00  0.00    -0.304 N 
ATOM      8  H   UNL     1       5.644  -5.369  25.532  0.00  0.00    +0.149 HD
ATOM      9  O   UNL     1       7.250  -6.095  28.169  0.00  0.00    -0.273 OA
BRANCH   7  10
ATOM     10  C   UNL     1       4.870  -6.908  26.768  0.00  0.00    +0.132 C 
ATOM     11  C   UNL     1       3.697  -6.896  25.829  0.00  0.00    -0.022 A 
ATOM     12  C   UNL     1       2.584  -6.263  26.386  0.00  0.00    -0.040 A 
ATOM     13  C   UNL     1       1.444  -6.022  25.632  0.00  0.00    +0.004 A 
ATOM     14  C   UNL     1       1.411  -6.468  24.311  0.00  0.00    +0.000 A 
ATOM     15  C   UNL     1       2.501  -7.164  23.768  0.00  0.00    +0.000 A 
ATOM     16  C   UNL     1       2.816  -5.874  27.810  0.00  0.00    +0.069 C 
ATOM     17  C   UNL     1       3.654  -7.380  24.528  0.00  0.00    +0.006 A 
ATOM     18  C   UNL     1       4.208  -6.467  28.116  0.00  0.00    +0.143 C 
BRANCH  18  19
ATOM     19  O   UNL     1       4.088  -7.571  29.011  0.00  0.00    -0.389 OA
ATOM     20  H   UNL     1       3.519  -7.311  29.749  0.00  0.00    +0.210 HD
ENDBRANCH  18  19
ENDBRANCH   7  10
ENDBRANCH   5   6
BRANCH   5  21
ATOM     21  O   UNL     1       8.490  -4.705  25.447  0.00  0.00    -0.363 OA
BRANCH  21  22
ATOM     22  C   UNL     1       8.451  -3.812  24.327  0.00  0.00    +0.196 C 
BRANCH  22  23
ATOM     23  C   UNL     1       7.591  -4.410  23.250  0.00  0.00    -0.022 A 
ATOM     24  C   UNL     1       6.836  -3.558  22.436  0.00  0.00    +0.006 A 
ATOM     25  C   UNL     1       6.120  -4.065  21.354  0.00  0.00    +0.000 A 
ATOM     26  C   UNL     1       6.113  -5.436  21.106  0.00  0.00    +0.000 A 
ATOM     27  C   UNL     1       6.814  -6.300  21.947  0.00  0.00    +0.000 A 
ATOM     28  C   UNL     1       7.546  -5.791  23.016  0.00  0.00    +0.006 A 
ENDBRANCH  22  23
ENDBRANCH  21  22
ENDBRANCH   5  21
ENDBRANCH   4   5
ENDBRANCH   1   4
BRANCH   1  29
ATOM     29  C   UNL     1       7.943  -0.850  26.885  0.00  0.00    +0.232 C 
BRANCH  29  30
ATOM     30  C   UNL     1       7.317   0.538  27.138  0.00  0.00    +0.245 C 
ATOM     31  N   UNL     1       6.958   1.183  25.978  0.00  0.00    -0.304 N 
ATOM     32  H   UNL     1       7.123   0.676  25.109  0.00  0.00    +0.149 HD
ATOM     33  O   UNL     1       7.146   0.997  28.263  0.00  0.00    -0.273 OA
BRANCH  31  34
ATOM     34  C   UNL     1       6.426   2.521  25.924  0.00  0.00    +0.132 C 
ATOM     35  C   UNL     1       6.601   3.071  24.542  0.00  0.00    -0.022 A 
ATOM     36  C   UNL     1       7.419   4.199  24.519  0.00  0.00    -0.040 A 
ATOM     37  C   UNL     1       7.735   4.823  23.320  0.00  0.00    +0.004 A 
ATOM     38  C   UNL     1       7.224   4.290  22.134  0.00  0.00    +0.000 A 
ATOM     39  C   UNL     1       6.413   3.148  22.155  0.00  0.00    +0.000 A 
ATOM     40  C   UNL     1       7.925   4.553  25.880  0.00  0.00    +0.069 C 
ATOM     41  C   UNL     1       6.095   2.532  23.365  0.00  0.00    +0.006 A 
ATOM     42  C   UNL     1       7.216   3.541  26.809  0.00  0.00    +0.143 C 
BRANCH  42  43
ATOM     43  O   UNL     1       6.342   4.248  27.699  0.00  0.00    -0.389 OA
ATOM     44  H   UNL     1       5.927   3.589  28.288  0.00  0.00    +0.210 HD
ENDBRANCH  42  43
ENDBRANCH  31  34
ENDBRANCH  29  30
BRANCH  29  45
ATOM     45  O   UNL     1       8.499  -0.916  25.557  0.00  0.00    -0.360 OA
BRANCH  45  46
ATOM     46  C   UNL     1       9.736  -0.186  25.454  0.00  0.00    +0.196 C 
BRANCH  46  47
ATOM     47  C   UNL     1       9.809   0.657  24.201  0.00  0.00    -0.022 A 
ATOM     48  C   UNL     1      10.424   1.920  24.269  0.00  0.00    +0.006 A 
ATOM     49  C   UNL     1      10.603   2.691  23.120  0.00  0.00    +0.000 A 
ATOM     50  C   UNL     1      10.173   2.210  21.886  0.00  0.00    +0.000 A 
ATOM     51  C   UNL     1       9.542   0.970  21.805  0.00  0.00    +0.000 A 
ATOM     52  C   UNL     1       9.352   0.201  22.956  0.00  0.00    +0.006 A 
ENDBRANCH  46  47
ENDBRANCH  45  46
ENDBRANCH  29  45
ENDBRANCH   1  29
TORSDOF 16
ENDMDL
MODEL 6
REMARK VINA RESULT:      -6.5      1.895      8.503
REMARK  Name = 
REMARK  16 active torsions:
REMARK  status: ('A' for Active; 'I' for Inactive)
REMARK    1  A    between atoms: O_1  and  C_2
REMARK    2  A    between atoms: C_2  and  C_4
REMARK    3  A    between atoms: C_2  and  C_30
REMARK    4  A    between atoms: C_4  and  C_5
REMARK    5  A    between atoms: C_5  and  O_7
REMARK    6  A    between atoms: C_5  and  C_15
REMARK    7  A    between atoms: O_7  and  C_8
REMARK    8  A    between atoms: C_8  and  C_9
REMARK    9  A    between atoms: N_17  and  C_18
REMARK   10  A    between atoms: C_20  and  O_22
REMARK   11  A    between atoms: C_30  and  O_32
REMARK   12  A    between atoms: C_30  and  C_40
REMARK   13  A    between atoms: O_32  and  C_33
REMARK   14  A    between atoms: C_33  and  C_34
REMARK   15  A    between atoms: N_42  and  C_43
REMARK   16  A    between atoms: C_45  and  O_47
REMARK                            x       y       z     vdW  Elec       q    Type
REMARK                         _______ _______ _______ _____ _____    ______ ____
ROOT
ATOM      1  C   UNL     1       5.676  -0.692  26.464  0.00  0.00    +0.155 C 
ENDROOT
BRANCH   1   2
ATOM      2  O   UNL     1       4.568  -1.042  25.608  0.00  0.00    -0.389 OA
ATOM      3  H   UNL     1       4.838  -0.864  24.691  0.00  0.00    +0.210 HD
ENDBRANCH   1   2
BRANCH   1   4
ATOM      4  C   UNL     1       6.951  -0.926  25.621  0.00  0.00    +0.075 C 
BRANCH   4   5
ATOM      5  C   UNL     1       8.129  -1.559  26.375  0.00  0.00    +0.207 C 
BRANCH   5   6
ATOM      6  C   UNL     1       8.238  -3.104  26.265  0.00  0.00    +0.243 C 
ATOM      7  N   UNL     1       7.314  -3.633  25.377  0.00  0.00    -0.304 N 
ATOM      8  H   UNL     1       6.627  -2.989  24.996  0.00  0.00    +0.149 HD
ATOM      9  O   UNL     1       9.027  -3.782  26.912  0.00  0.00    -0.273 OA
BRANCH   7  10
ATOM     10  C   UNL     1       6.996  -5.052  25.315  0.00  0.00    +0.132 C 
ATOM     11  C   UNL     1       6.728  -5.463  23.894  0.00  0.00    -0.022 A 
ATOM     12  C   UNL     1       5.372  -5.704  23.664  0.00  0.00    -0.040 A 
ATOM     13  C   UNL     1       4.896  -5.958  22.385  0.00  0.00    +0.004 A 
ATOM     14  C   UNL     1       5.809  -6.014  21.332  0.00  0.00    +0.000 A 
ATOM     15  C   UNL     1       7.180  -5.839  21.570  0.00  0.00    +0.000 A 
ATOM     16  C   UNL     1       4.565  -5.609  24.918  0.00  0.00    +0.069 C 
ATOM     17  C   UNL     1       7.647  -5.559  22.858  0.00  0.00    +0.006 A 
ATOM     18  C   UNL     1       5.634  -5.389  26.010  0.00  0.00    +0.143 C 
BRANCH  18  19
ATOM     19  O   UNL     1       5.752  -6.554  26.826  0.00  0.00    -0.389 OA
ATOM     20  H   UNL     1       5.306  -7.289  26.382  0.00  0.00    +0.210 HD
ENDBRANCH  18  19
ENDBRANCH   7  10
ENDBRANCH   5   6
BRANCH   5  21
ATOM     21  O   UNL     1       9.379  -0.975  26.015  0.00  0.00    -0.363 OA
BRANCH  21  22
ATOM     22  C   UNL     1       9.825  -1.319  24.697  0.00  0.00    +0.196 C 
BRANCH  22  23
ATOM     23  C   UNL     1      10.038  -0.060  23.904  0.00  0.00    -0.022 A 
ATOM     24  C   UNL     1       9.682  -0.045  22.551  0.00  0.00    +0.006 A 
ATOM     25  C   UNL     1       9.754   1.135  21.814  0.00  0.00    +0.000 A 
ATOM     26  C   UNL     1      10.233   2.300  22.412  0.00  0.00    +0.000 A 
ATOM     27  C   UNL     1      10.646   2.280  23.743  0.00  0.00    +0.000 A 
ATOM     28  C   UNL     1      10.555   1.106  24.484  0.00  0.00    +0.006 A 
ENDBRANCH  22  23
ENDBRANCH  21  22
ENDBRANCH   5  21
ENDBRANCH   4   5
ENDBRANCH   1   4
BRANCH   1  29
ATOM     29  C   UNL     1       5.425   0.721  27.071  0.00  0.00    +0.232 C 
BRANCH  29  30
ATOM     30  C   UNL     1       4.420   1.442  26.148  0.00  0.00    +0.245 C 
ATOM     31  N   UNL     1       5.024   2.066  25.081  0.00  0.00    -0.304 N 
ATOM     32  H   UNL     1       6.036   1.966  25.013  0.00  0.00    +0.149 HD
ATOM     33  O   UNL     1       3.209   1.437  26.347  0.00  0.00    -0.273 OA
BRANCH  31  34
ATOM     34  C   UNL     1       4.329   2.875  24.113  0.00  0.00    +0.132 C 
ATOM     35  C   UNL     1       5.322   3.672  23.325  0.00  0.00    -0.022 A 
ATOM     36  C   UNL     1       5.149   5.046  23.487  0.00  0.00    -0.040 A 
ATOM     37  C   UNL     1       6.004   5.947  22.869  0.00  0.00    +0.004 A 
ATOM     38  C   UNL     1       7.052   5.449  22.090  0.00  0.00    +0.000 A 
ATOM     39  C   UNL     1       7.235   4.068  21.939  0.00  0.00    +0.000 A 
ATOM     40  C   UNL     1       4.027   5.364  24.422  0.00  0.00    +0.069 C 
ATOM     41  C   UNL     1       6.366   3.170  22.557  0.00  0.00    +0.006 A 
ATOM     42  C   UNL     1       3.427   3.979  24.757  0.00  0.00    +0.143 C 
BRANCH  42  43
ATOM     43  O   UNL     1       2.083   3.913  24.260  0.00  0.00    -0.389 OA
ATOM     44  H   UNL     1       1.687   4.799  24.364  0.00  0.00    +0.210 HD
ENDBRANCH  42  43
ENDBRANCH  31  34
ENDBRANCH  29  30
BRANCH  29  45
ATOM     45  O   UNL     1       6.636   1.492  27.195  0.00  0.00    -0.360 OA
BRANCH  45  46
ATOM     46  C   UNL     1       6.411   2.747  27.862  0.00  0.00    +0.196 C 
BRANCH  46  47
ATOM     47  C   UNL     1       7.102   3.903  27.174  0.00  0.00    -0.022 A 
ATOM     48  C   UNL     1       7.901   3.641  26.047  0.00  0.00    +0.006 A 
ATOM     49  C   UNL     1       8.478   4.683  25.320  0.00  0.00    +0.000 A 
ATOM     50  C   UNL     1       8.262   6.003  25.709  0.00  0.00    +0.000 A 
ATOM     51  C   UNL     1       7.491   6.278  26.837  0.00  0.00    +0.000 A 
ATOM     52  C   UNL     1       6.922   5.235  27.572  0.00  0.00    +0.006 A 
ENDBRANCH  46  47
ENDBRANCH  45  46
ENDBRANCH  29  45
ENDBRANCH   1  29
TORSDOF 16
ENDMDL
MODEL 7
REMARK VINA RESULT:      -6.5      1.971      7.170
REMARK  Name = 
REMARK  16 active torsions:
REMARK  status: ('A' for Active; 'I' for Inactive)
REMARK    1  A    between atoms: O_1  and  C_2
REMARK    2  A    between atoms: C_2  and  C_4
REMARK    3  A    between atoms: C_2  and  C_30
REMARK    4  A    between atoms: C_4  and  C_5
REMARK    5  A    between atoms: C_5  and  O_7
REMARK    6  A    between atoms: C_5  and  C_15
REMARK    7  A    between atoms: O_7  and  C_8
REMARK    8  A    between atoms: C_8  and  C_9
REMARK    9  A    between atoms: N_17  and  C_18
REMARK   10  A    between atoms: C_20  and  O_22
REMARK   11  A    between atoms: C_30  and  O_32
REMARK   12  A    between atoms: C_30  and  C_40
REMARK   13  A    between atoms: O_32  and  C_33
REMARK   14  A    between atoms: C_33  and  C_34
REMARK   15  A    between atoms: N_42  and  C_43
REMARK   16  A    between atoms: C_45  and  O_47
REMARK                            x       y       z     vdW  Elec       q    Type
REMARK                         _______ _______ _______ _____ _____    ______ ____
ROOT
ATOM      1  C   UNL     1       4.317   0.556  27.440  0.00  0.00    +0.155 C 
ENDROOT
BRANCH   1   2
ATOM      2  O   UNL     1       3.498   0.026  26.376  0.00  0.00    -0.389 OA
ATOM      3  H   UNL     1       4.032  -0.627  25.893  0.00  0.00    +0.210 HD
ENDBRANCH   1   2
BRANCH   1   4
ATOM      4  C   UNL     1       5.277  -0.586  27.843  0.00  0.00    +0.075 C 
BRANCH   4   5
ATOM      5  C   UNL     1       5.359  -1.756  26.852  0.00  0.00    +0.207 C 
BRANCH   5   6
ATOM      6  C   UNL     1       6.543  -1.700  25.850  0.00  0.00    +0.243 C 
ATOM      7  N   UNL     1       6.492  -2.728  24.921  0.00  0.00    -0.304 N 
ATOM      8  H   UNL     1       5.776  -3.434  25.060  0.00  0.00    +0.149 HD
ATOM      9  O   UNL     1       7.437  -0.864  25.893  0.00  0.00    -0.273 OA
BRANCH   7  10
ATOM     10  C   UNL     1       7.620  -3.088  24.074  0.00  0.00    +0.132 C 
ATOM     11  C   UNL     1       7.152  -3.911  22.907  0.00  0.00    -0.022 A 
ATOM     12  C   UNL     1       7.514  -5.254  23.032  0.00  0.00    -0.040 A 
ATOM     13  C   UNL     1       7.058  -6.206  22.130  0.00  0.00    +0.004 A 
ATOM     14  C   UNL     1       6.262  -5.789  21.065  0.00  0.00    +0.000 A 
ATOM     15  C   UNL     1       5.951  -4.432  20.898  0.00  0.00    +0.000 A 
ATOM     16  C   UNL     1       8.376  -5.492  24.229  0.00  0.00    +0.069 C 
ATOM     17  C   UNL     1       6.395  -3.483  21.824  0.00  0.00    +0.006 A 
ATOM     18  C   UNL     1       8.609  -4.071  24.785  0.00  0.00    +0.143 C 
BRANCH  18  19
ATOM     19  O   UNL     1       9.963  -3.676  24.573  0.00  0.00    -0.389 OA
ATOM     20  H   UNL     1      10.012  -2.710  24.602  0.00  0.00    +0.210 HD
ENDBRANCH  18  19
ENDBRANCH   7  10
ENDBRANCH   5   6
BRANCH   5  21
ATOM     21  O   UNL     1       5.360  -3.022  27.508  0.00  0.00    -0.363 OA
BRANCH  21  22
ATOM     22  C   UNL     1       4.114  -3.725  27.421  0.00  0.00    +0.196 C 
BRANCH  22  23
ATOM     23  C   UNL     1       4.125  -4.600  26.200  0.00  0.00    -0.022 A 
ATOM     24  C   UNL     1       4.872  -5.784  26.223  0.00  0.00    +0.006 A 
ATOM     25  C   UNL     1       4.814  -6.677  25.156  0.00  0.00    +0.000 A 
ATOM     26  C   UNL     1       4.046  -6.371  24.034  0.00  0.00    +0.000 A 
ATOM     27  C   UNL     1       3.345  -5.167  23.977  0.00  0.00    +0.000 A 
ATOM     28  C   UNL     1       3.388  -4.283  25.051  0.00  0.00    +0.006 A 
ENDBRANCH  22  23
ENDBRANCH  21  22
ENDBRANCH   5  21
ENDBRANCH   4   5
ENDBRANCH   1   4
BRANCH   1  29
ATOM     29  C   UNL     1       4.920   1.920  26.988  0.00  0.00    +0.232 C 
BRANCH  29  30
ATOM     30  C   UNL     1       4.586   2.093  25.491  0.00  0.00    +0.245 C 
ATOM     31  N   UNL     1       5.635   1.760  24.666  0.00  0.00    -0.304 N 
ATOM     32  H   UNL     1       6.482   1.426  25.125  0.00  0.00    +0.149 HD
ATOM     33  O   UNL     1       3.490   2.473  25.091  0.00  0.00    -0.273 OA
BRANCH  31  34
ATOM     34  C   UNL     1       5.619   1.904  23.233  0.00  0.00    +0.132 C 
ATOM     35  C   UNL     1       6.889   1.352  22.662  0.00  0.00    -0.022 A 
ATOM     36  C   UNL     1       7.640   2.323  22.002  0.00  0.00    -0.040 A 
ATOM     37  C   UNL     1       8.873   2.011  21.446  0.00  0.00    +0.004 A 
ATOM     38  C   UNL     1       9.352   0.705  21.572  0.00  0.00    +0.000 A 
ATOM     39  C   UNL     1       8.604  -0.268  22.249  0.00  0.00    +0.000 A 
ATOM     40  C   UNL     1       6.989   3.668  22.053  0.00  0.00    +0.069 C 
ATOM     41  C   UNL     1       7.363   0.053  22.798  0.00  0.00    +0.006 A 
ATOM     42  C   UNL     1       5.640   3.394  22.757  0.00  0.00    +0.143 C 
BRANCH  42  43
ATOM     43  O   UNL     1       4.567   3.668  21.846  0.00  0.00    -0.389 OA
ATOM     44  H   UNL     1       3.956   2.907  21.874  0.00  0.00    +0.210 HD
ENDBRANCH  42  43
ENDBRANCH  31  34
ENDBRANCH  29  30
BRANCH  29  45
ATOM     45  O   UNL     1       6.344   1.991  27.197  0.00  0.00    -0.360 OA
BRANCH  45  46
ATOM     46  C   UNL     1       6.756   3.287  27.671  0.00  0.00    +0.196 C 
BRANCH  46  47
ATOM     47  C   UNL     1       7.487   4.086  26.615  0.00  0.00    -0.022 A 
ATOM     48  C   UNL     1       7.467   5.490  26.694  0.00  0.00    +0.006 A 
ATOM     49  C   UNL     1       8.207   6.267  25.802  0.00  0.00    +0.000 A 
ATOM     50  C   UNL     1       8.979   5.651  24.820  0.00  0.00    +0.000 A 
ATOM     51  C   UNL     1       8.991   4.261  24.715  0.00  0.00    +0.000 A 
ATOM     52  C   UNL     1       8.242   3.483  25.601  0.00  0.00    +0.006 A 
ENDBRANCH  46  47
ENDBRANCH  45  46
ENDBRANCH  29  45
ENDBRANCH   1  29
TORSDOF 16
ENDMDL
MODEL 8
REMARK VINA RESULT:      -6.5      1.660      7.080
REMARK  Name = 
REMARK  16 active torsions:
REMARK  status: ('A' for Active; 'I' for Inactive)
REMARK    1  A    between atoms: O_1  and  C_2
REMARK    2  A    between atoms: C_2  and  C_4
REMARK    3  A    between atoms: C_2  and  C_30
REMARK    4  A    between atoms: C_4  and  C_5
REMARK    5  A    between atoms: C_5  and  O_7
REMARK    6  A    between atoms: C_5  and  C_15
REMARK    7  A    between atoms: O_7  and  C_8
REMARK    8  A    between atoms: C_8  and  C_9
REMARK    9  A    between atoms: N_17  and  C_18
REMARK   10  A    between atoms: C_20  and  O_22
REMARK   11  A    between atoms: C_30  and  O_32
REMARK   12  A    between atoms: C_30  and  C_40
REMARK   13  A    between atoms: O_32  and  C_33
REMARK   14  A    between atoms: C_33  and  C_34
REMARK   15  A    between atoms: N_42  and  C_43
REMARK   16  A    between atoms: C_45  and  O_47
REMARK                            x       y       z     vdW  Elec       q    Type
REMARK                         _______ _______ _______ _____ _____    ______ ____
ROOT
ATOM      1  C   UNL     1       9.165  -1.508  22.986  0.00  0.00    +0.155 C 
ENDROOT
BRANCH   1   2
ATOM      2  O   UNL     1      10.045  -1.325  21.857  0.00  0.00    -0.389 OA
ATOM      3  H   UNL     1      10.576  -2.135  21.765  0.00  0.00    +0.210 HD
ENDBRANCH   1   2
BRANCH   1   4
ATOM      4  C   UNL     1       9.771  -2.668  23.809  0.00  0.00    +0.075 C 
BRANCH   4   5
ATOM      5  C   UNL     1       8.813  -3.829  24.111  0.00  0.00    +0.207 C 
BRANCH   5   6
ATOM      6  C   UNL     1       8.287  -3.899  25.570  0.00  0.00    +0.243 C 
ATOM      7  N   UNL     1       6.958  -3.514  25.667  0.00  0.00    -0.304 N 
ATOM      8  H   UNL     1       6.528  -3.144  24.826  0.00  0.00    +0.149 HD
ATOM      9  O   UNL     1       8.974  -4.224  26.531  0.00  0.00    -0.273 OA
BRANCH   7  10
ATOM     10  C   UNL     1       6.315  -3.197  26.934  0.00  0.00    +0.132 C 
ATOM     11  C   UNL     1       5.541  -4.384  27.435  0.00  0.00    -0.022 A 
ATOM     12  C   UNL     1       4.162  -4.202  27.311  0.00  0.00    -0.040 A 
ATOM     13  C   UNL     1       3.276  -5.234  27.587  0.00  0.00    +0.004 A 
ATOM     14  C   UNL     1       3.787  -6.451  28.035  0.00  0.00    +0.000 A 
ATOM     15  C   UNL     1       5.166  -6.616  28.225  0.00  0.00    +0.000 A 
ATOM     16  C   UNL     1       3.820  -2.830  26.829  0.00  0.00    +0.069 C 
ATOM     17  C   UNL     1       6.053  -5.579  27.922  0.00  0.00    +0.006 A 
ATOM     18  C   UNL     1       5.190  -2.121  26.779  0.00  0.00    +0.143 C 
BRANCH  18  19
ATOM     19  O   UNL     1       5.274  -1.140  27.811  0.00  0.00    -0.389 OA
ATOM     20  H   UNL     1       5.980  -0.517  27.589  0.00  0.00    +0.210 HD
ENDBRANCH  18  19
ENDBRANCH   7  10
ENDBRANCH   5   6
BRANCH   5  21
ATOM     21  O   UNL     1       7.705  -3.865  23.212  0.00  0.00    -0.363 OA
BRANCH  21  22
ATOM     22  C   UNL     1       7.310  -5.187  22.827  0.00  0.00    +0.196 C 
BRANCH  22  23
ATOM     23  C   UNL     1       5.870  -5.400  23.203  0.00  0.00    -0.022 A 
ATOM     24  C   UNL     1       5.503  -6.601  23.822  0.00  0.00    +0.006 A 
ATOM     25  C   UNL     1       4.205  -6.786  24.290  0.00  0.00    +0.000 A 
ATOM     26  C   UNL     1       3.248  -5.792  24.098  0.00  0.00    +0.000 A 
ATOM     27  C   UNL     1       3.589  -4.616  23.430  0.00  0.00    +0.000 A 
ATOM     28  C   UNL     1       4.891  -4.423  22.980  0.00  0.00    +0.006 A 
ENDBRANCH  22  23
ENDBRANCH  21  22
ENDBRANCH   5  21
ENDBRANCH   4   5
ENDBRANCH   1   4
BRANCH   1  29
ATOM     29  C   UNL     1       8.935  -0.133  23.682  0.00  0.00    +0.232 C 
BRANCH  29  30
ATOM     30  C   UNL     1       7.411   0.043  23.851  0.00  0.00    +0.245 C 
ATOM     31  N   UNL     1       7.034   1.360  23.967  0.00  0.00    -0.304 N 
ATOM     32  H   UNL     1       7.781   2.051  23.909  0.00  0.00    +0.149 HD
ATOM     33  O   UNL     1       6.627  -0.901  23.861  0.00  0.00    -0.273 OA
BRANCH  31  34
ATOM     34  C   UNL     1       5.684   1.801  24.213  0.00  0.00    +0.132 C 
ATOM     35  C   UNL     1       5.581   3.269  23.936  0.00  0.00    -0.022 A 
ATOM     36  C   UNL     1       5.230   4.000  25.070  0.00  0.00    -0.040 A 
ATOM     37  C   UNL     1       5.129   5.383  25.021  0.00  0.00    +0.004 A 
ATOM     38  C   UNL     1       5.400   6.031  23.813  0.00  0.00    +0.000 A 
ATOM     39  C   UNL     1       5.767   5.298  22.677  0.00  0.00    +0.000 A 
ATOM     40  C   UNL     1       5.067   3.126  26.272  0.00  0.00    +0.069 C 
ATOM     41  C   UNL     1       5.859   3.908  22.734  0.00  0.00    +0.006 A 
ATOM     42  C   UNL     1       5.260   1.697  25.715  0.00  0.00    +0.143 C 
BRANCH  42  43
ATOM     43  O   UNL     1       4.038   0.962  25.864  0.00  0.00    -0.389 OA
ATOM     44  H   UNL     1       4.112   0.155  25.320  0.00  0.00    +0.210 HD
ENDBRANCH  42  43
ENDBRANCH  31  34
ENDBRANCH  29  30
BRANCH  29  45
ATOM     45  O   UNL     1       9.488   0.966  22.932  0.00  0.00    -0.360 OA
BRANCH  45  46
ATOM     46  C   UNL     1      10.616   1.562  23.599  0.00  0.00    +0.196 C 
BRANCH  46  47
ATOM     47  C   UNL     1      10.475   3.060  23.751  0.00  0.00    -0.022 A 
ATOM     48  C   UNL     1      11.556   3.882  23.388  0.00  0.00    +0.006 A 
ATOM     49  C   UNL     1      11.438   5.273  23.417  0.00  0.00    +0.000 A 
ATOM     50  C   UNL     1      10.238   5.860  23.807  0.00  0.00    +0.000 A 
ATOM     51  C   UNL     1       9.164   5.058  24.192  0.00  0.00    +0.000 A 
ATOM     52  C   UNL     1       9.284   3.667  24.173  0.00  0.00    +0.006 A 
ENDBRANCH  46  47
ENDBRANCH  45  46
ENDBRANCH  29  45
ENDBRANCH   1  29
TORSDOF 16
ENDMDL
MODEL 9
REMARK VINA RESULT:      -6.5      1.931      7.946
REMARK  Name = 
REMARK  16 active torsions:
REMARK  status: ('A' for Active; 'I' for Inactive)
REMARK    1  A    between atoms: O_1  and  C_2
REMARK    2  A    between atoms: C_2  and  C_4
REMARK    3  A    between atoms: C_2  and  C_30
REMARK    4  A    between atoms: C_4  and  C_5
REMARK    5  A    between atoms: C_5  and  O_7
REMARK    6  A    between atoms: C_5  and  C_15
REMARK    7  A    between atoms: O_7  and  C_8
REMARK    8  A    between atoms: C_8  and  C_9
REMARK    9  A    between atoms: N_17  and  C_18
REMARK   10  A    between atoms: C_20  and  O_22
REMARK   11  A    between atoms: C_30  and  O_32
REMARK   12  A    between atoms: C_30  and  C_40
REMARK   13  A    between atoms: O_32  and  C_33
REMARK   14  A    between atoms: C_33  and  C_34
REMARK   15  A    between atoms: N_42  and  C_43
REMARK   16  A    between atoms: C_45  and  O_47
REMARK                            x       y       z     vdW  Elec       q    Type
REMARK                         _______ _______ _______ _____ _____    ______ ____
ROOT
ATOM      1  C   UNL     1       7.264  -0.256  27.225  0.00  0.00    +0.155 C 
ENDROOT
BRANCH   1   2
ATOM      2  O   UNL     1       8.188   0.434  28.092  0.00  0.00    -0.389 OA
ATOM      3  H   UNL     1       8.963   0.680  27.558  0.00  0.00    +0.210 HD
ENDBRANCH   1   2
BRANCH   1   4
ATOM      4  C   UNL     1       6.297   0.827  26.692  0.00  0.00    +0.075 C 
BRANCH   4   5
ATOM      5  C   UNL     1       4.986   0.300  26.093  0.00  0.00    +0.207 C 
BRANCH   5   6
ATOM      6  C   UNL     1       4.260  -0.788  26.931  0.00  0.00    +0.243 C 
ATOM      7  N   UNL     1       4.201  -2.005  26.270  0.00  0.00    -0.304 N 
ATOM      8  H   UNL     1       4.530  -2.019  25.309  0.00  0.00    +0.149 HD
ATOM      9  O   UNL     1       3.768  -0.586  28.034  0.00  0.00    -0.273 OA
BRANCH   7  10
ATOM     10  C   UNL     1       3.325  -3.091  26.686  0.00  0.00    +0.132 C 
ATOM     11  C   UNL     1       3.886  -4.411  26.238  0.00  0.00    -0.022 A 
ATOM     12  C   UNL     1       3.161  -4.958  25.177  0.00  0.00    -0.040 A 
ATOM     13  C   UNL     1       3.597  -6.104  24.525  0.00  0.00    +0.004 A 
ATOM     14  C   UNL     1       4.757  -6.730  24.981  0.00  0.00    +0.000 A 
ATOM     15  C   UNL     1       5.450  -6.222  26.089  0.00  0.00    +0.000 A 
ATOM     16  C   UNL     1       1.950  -4.147  24.850  0.00  0.00    +0.069 C 
ATOM     17  C   UNL     1       5.017  -5.054  26.723  0.00  0.00    +0.006 A 
ATOM     18  C   UNL     1       1.945  -3.061  25.947  0.00  0.00    +0.143 C 
BRANCH  18  19
ATOM     19  O   UNL     1       0.872  -3.287  26.859  0.00  0.00    -0.389 OA
ATOM     20  H   UNL     1       0.051  -2.973  26.455  0.00  0.00    +0.210 HD
ENDBRANCH  18  19
ENDBRANCH   7  10
ENDBRANCH   5   6
BRANCH   5  21
ATOM     21  O   UNL     1       4.068   1.349  25.791  0.00  0.00    -0.363 OA
BRANCH  21  22
ATOM     22  C   UNL     1       4.604   2.664  25.978  0.00  0.00    +0.196 C 
BRANCH  22  23
ATOM     23  C   UNL     1       4.264   3.510  24.784  0.00  0.00    -0.022 A 
ATOM     24  C   UNL     1       4.163   2.900  23.529  0.00  0.00    +0.006 A 
ATOM     25  C   UNL     1       3.735   3.627  22.421  0.00  0.00    +0.000 A 
ATOM     26  C   UNL     1       3.452   4.986  22.548  0.00  0.00    +0.000 A 
ATOM     27  C   UNL     1       3.607   5.617  23.782  0.00  0.00    +0.000 A 
ATOM     28  C   UNL     1       4.015   4.885  24.893  0.00  0.00    +0.006 A 
ENDBRANCH  22  23
ENDBRANCH  21  22
ENDBRANCH   5  21
ENDBRANCH   4   5
ENDBRANCH   1   4
BRANCH   1  29
ATOM     29  C   UNL     1       8.066  -1.115  26.202  0.00  0.00    +0.232 C 
BRANCH  29  30
ATOM     30  C   UNL     1       8.929  -0.144  25.368  0.00  0.00    +0.245 C 
ATOM     31  N   UNL     1       8.221   0.477  24.367  0.00  0.00    -0.304 N 
ATOM     32  H   UNL     1       7.230   0.247  24.304  0.00  0.00    +0.149 HD
ATOM     33  O   UNL     1      10.118   0.057  25.597  0.00  0.00    -0.273 OA
BRANCH  31  34
ATOM     34  C   UNL     1       8.800   1.369  23.394  0.00  0.00    +0.132 C 
ATOM     35  C   UNL     1       8.448   2.782  23.743  0.00  0.00    -0.022 A 
ATOM     36  C   UNL     1       7.688   3.400  22.751  0.00  0.00    -0.040 A 
ATOM     37  C   UNL     1       7.228   4.699  22.914  0.00  0.00    +0.004 A 
ATOM     38  C   UNL     1       7.532   5.372  24.100  0.00  0.00    +0.000 A 
ATOM     39  C   UNL     1       8.283   4.746  25.104  0.00  0.00    +0.000 A 
ATOM     40  C   UNL     1       7.407   2.481  21.606  0.00  0.00    +0.069 C 
ATOM     41  C   UNL     1       8.748   3.443  24.928  0.00  0.00    +0.006 A 
ATOM     42  C   UNL     1       8.199   1.202  21.960  0.00  0.00    +0.143 C 
BRANCH  42  43
ATOM     43  O   UNL     1       9.226   0.995  20.982  0.00  0.00    -0.389 OA
ATOM     44  H   UNL     1       9.060   0.131  20.559  0.00  0.00    +0.210 HD
ENDBRANCH  42  43
ENDBRANCH  31  34
ENDBRANCH  29  30
BRANCH  29  45
ATOM     45  O   UNL     1       7.211  -1.892  25.342  0.00  0.00    -0.360 OA
BRANCH  45  46
ATOM     46  C   UNL     1       7.749  -3.204  25.088  0.00  0.00    +0.196 C 
BRANCH  46  47
ATOM     47  C   UNL     1       7.145  -3.852  23.863  0.00  0.00    -0.022 A 
ATOM     48  C   UNL     1       7.721  -5.036  23.370  0.00  0.00    +0.006 A 
ATOM     49  C   UNL     1       7.140  -5.724  22.303  0.00  0.00    +0.000 A 
ATOM     50  C   UNL     1       5.975  -5.238  21.716  0.00  0.00    +0.000 A 
ATOM     51  C   UNL     1       5.404  -4.053  22.179  0.00  0.00    +0.000 A 
ATOM     52  C   UNL     1       5.991  -3.359  23.240  0.00  0.00    +0.006 A 
ENDBRANCH  46  47
ENDBRANCH  45  46
ENDBRANCH  29  45
ENDBRANCH   1  29
TORSDOF 16
ENDMDL
