MODEL 1
REMARK VINA RESULT:      -4.8      0.000      0.000
REMARK  Name = 
REMARK  11 active torsions:
REMARK  status: ('A' for Active; 'I' for Inactive)
REMARK    1  A    between atoms: C_1  and  C_2
REMARK    2  A    between atoms: C_2  and  N_4
REMARK    3  A    between atoms: C_2  and  C_5
REMARK    4  A    between atoms: C_5  and  N_7
REMARK    5  A    between atoms: C_5  and  C_8
REMARK    6  A    between atoms: C_8  and  C_9
REMARK    7  A    between atoms: C_9  and  C_10
REMARK    8  A    between atoms: C_10  and  C_11
REMARK    9  A    between atoms: C_11  and  C_12
REMARK   10  A    between atoms: C_12  and  C_13
REMARK   11  A    between atoms: C_13  and  O_14
REMARK                            x       y       z     vdW  Elec       q    Type
REMARK                         _______ _______ _______ _____ _____    ______ ____
ROOT
ATOM      1  C   UNL     1       8.905  -4.787  24.973  0.00  0.00    +0.067 C 
ENDROOT
BRANCH   1   2
ATOM      2  N   UNL     1      10.159  -5.471  25.351  0.00  0.00    -0.326 NA
ATOM      3  H   UNL     1      10.805  -4.753  25.677  0.00  0.00    +0.119 HD
ATOM      4  H   UNL     1       9.992  -6.059  26.166  0.00  0.00    +0.119 HD
ENDBRANCH   1   2
BRANCH   1   6
ATOM      5  C   UNL     1       6.461  -4.477  25.797  0.00  0.00    +0.025 C 
ATOM      6  C   UNL     1       7.693  -5.387  25.756  0.00  0.00    +0.064 C 
BRANCH   6   7
ATOM      7  N   UNL     1       8.102  -5.681  27.147  0.00  0.00    -0.326 NA
ATOM      8  H   UNL     1       8.454  -6.638  27.175  0.00  0.00    +0.119 HD
ATOM      9  H   UNL     1       8.903  -5.097  27.388  0.00  0.00    +0.119 HD
ENDBRANCH   6   7
ENDBRANCH   1   6
BRANCH   1  10
ATOM     10  C   UNL     1       9.037  -3.253  25.104  0.00  0.00    +0.020 C 
BRANCH  10  11
ATOM     11  C   UNL     1       9.722  -2.638  23.872  0.00  0.00    +0.002 C 
BRANCH  11  12
ATOM     12  C   UNL     1       8.765  -2.280  22.732  0.00  0.00    +0.001 C 
BRANCH  12  13
ATOM     13  C   UNL     1       9.464  -1.314  21.766  0.00  0.00    +0.011 C 
BRANCH  13  14
ATOM     14  C   UNL     1       9.949  -0.033  22.444  0.00  0.00    +0.120 C 
BRANCH  14  15
ATOM     15  C   UNL     1       9.375   1.194  21.768  0.00  0.00    +0.305 C 
ATOM     16  O   UNL     1       8.229   1.316  21.374  0.00  0.00    -0.251 OA
BRANCH  15  17
ATOM     17  O   UNL     1      10.289   2.186  21.641  0.00  0.00    -0.481 OA
ATOM     18  H   UNL     1      10.150   2.748  20.853  0.00  0.00    +0.295 HD
ENDBRANCH  15  17
ENDBRANCH  14  15
ENDBRANCH  13  14
ENDBRANCH  12  13
ENDBRANCH  11  12
ENDBRANCH  10  11
ENDBRANCH   1  10
TORSDOF 10
ENDMDL
MODEL 2
REMARK VINA RESULT:      -4.8      4.358      5.872
REMARK  Name = 
REMARK  11 active torsions:
REMARK  status: ('A' for Active; 'I' for Inactive)
REMARK    1  A    between atoms: C_1  and  C_2
REMARK    2  A    between atoms: C_2  and  N_4
REMARK    3  A    between atoms: C_2  and  C_5
REMARK    4  A    between atoms: C_5  and  N_7
REMARK    5  A    between atoms: C_5  and  C_8
REMARK    6  A    between atoms: C_8  and  C_9
REMARK    7  A    between atoms: C_9  and  C_10
REMARK    8  A    between atoms: C_10  and  C_11
REMARK    9  A    between atoms: C_11  and  C_12
REMARK   10  A    between atoms: C_12  and  C_13
REMARK   11  A    between atoms: C_13  and  O_14
REMARK                            x       y       z     vdW  Elec       q    Type
REMARK                         _______ _______ _______ _____ _____    ______ ____
ROOT
ATOM      1  C   UNL     1       9.155   2.290  23.891  0.00  0.00    +0.067 C 
ENDROOT
BRANCH   1   2
ATOM      2  N   UNL     1       8.862   3.512  24.668  0.00  0.00    -0.326 NA
ATOM      3  H   UNL     1       9.758   3.914  24.942  0.00  0.00    +0.119 HD
ATOM      4  H   UNL     1       8.442   4.210  24.057  0.00  0.00    +0.119 HD
ENDBRANCH   1   2
BRANCH   1   6
ATOM      5  C   UNL     1       7.312   1.458  22.259  0.00  0.00    +0.025 C 
ATOM      6  C   UNL     1       8.520   2.378  22.466  0.00  0.00    +0.064 C 
BRANCH   6   7
ATOM      7  N   UNL     1       9.542   2.041  21.450  0.00  0.00    -0.326 NA
ATOM      8  H   UNL     1       9.776   1.054  21.556  0.00  0.00    +0.119 HD
ATOM      9  H   UNL     1       9.124   2.116  20.522  0.00  0.00    +0.119 HD
ENDBRANCH   6   7
ENDBRANCH   1   6
BRANCH   1  10
ATOM     10  C   UNL     1      10.668   1.974  23.883  0.00  0.00    +0.020 C 
BRANCH  10  11
ATOM     11  C   UNL     1      10.956   0.574  24.449  0.00  0.00    +0.002 C 
BRANCH  11  12
ATOM     12  C   UNL     1       9.810  -0.021  25.272  0.00  0.00    +0.001 C 
BRANCH  12  13
ATOM     13  C   UNL     1       9.303  -1.298  24.590  0.00  0.00    +0.011 C 
BRANCH  13  14
ATOM     14  C   UNL     1      10.089  -1.659  23.331  0.00  0.00    +0.120 C 
BRANCH  14  15
ATOM     15  C   UNL     1       9.193  -1.671  22.111  0.00  0.00    +0.305 C 
ATOM     16  O   UNL     1       8.117  -2.237  22.027  0.00  0.00    -0.251 OA
BRANCH  15  17
ATOM     17  O   UNL     1       9.716  -0.963  21.080  0.00  0.00    -0.481 OA
ATOM     18  H   UNL     1      10.604  -0.600  21.265  0.00  0.00    +0.295 HD
ENDBRANCH  15  17
ENDBRANCH  14  15
ENDBRANCH  13  14
ENDBRANCH  12  13
ENDBRANCH  11  12
ENDBRANCH  10  11
ENDBRANCH   1  10
TORSDOF 10
ENDMDL
MODEL 3
REMARK VINA RESULT:      -4.8      4.513      6.372
REMARK  Name = 
REMARK  11 active torsions:
REMARK  status: ('A' for Active; 'I' for Inactive)
REMARK    1  A    between atoms: C_1  and  C_2
REMARK    2  A    between atoms: C_2  and  N_4
REMARK    3  A    between atoms: C_2  and  C_5
REMARK    4  A    between atoms: C_5  and  N_7
REMARK    5  A    between atoms: C_5  and  C_8
REMARK    6  A    between atoms: C_8  and  C_9
REMARK    7  A    between atoms: C_9  and  C_10
REMARK    8  A    between atoms: C_10  and  C_11
REMARK    9  A    between atoms: C_11  and  C_12
REMARK   10  A    between atoms: C_12  and  C_13
REMARK   11  A    between atoms: C_13  and  O_14
REMARK                            x       y       z     vdW  Elec       q    Type
REMARK                         _______ _______ _______ _____ _____    ______ ____
ROOT
ATOM      1  C   UNL     1      10.176   1.049  22.431  0.00  0.00    +0.067 C 
ENDROOT
BRANCH   1   2
ATOM      2  N   UNL     1      10.022   2.346  21.740  0.00  0.00    -0.326 NA
ATOM      3  H   UNL     1      10.500   2.267  20.843  0.00  0.00    +0.119 HD
ATOM      4  H   UNL     1       9.043   2.489  21.500  0.00  0.00    +0.119 HD
ENDBRANCH   1   2
BRANCH   1   6
ATOM      5  C   UNL     1       9.021   2.494  24.255  0.00  0.00    +0.025 C 
ATOM      6  C   UNL     1       9.616   1.131  23.888  0.00  0.00    +0.064 C 
BRANCH   6   7
ATOM      7  N   UNL     1      10.698   0.819  24.849  0.00  0.00    -0.326 NA
ATOM      8  H   UNL     1      11.567   0.727  24.324  0.00  0.00    +0.119 HD
ATOM      9  H   UNL     1      10.841   1.624  25.459  0.00  0.00    +0.119 HD
ENDBRANCH   6   7
ENDBRANCH   1   6
BRANCH   1  10
ATOM     10  C   UNL     1       9.582  -0.109  21.597  0.00  0.00    +0.020 C 
BRANCH  10  11
ATOM     11  C   UNL     1      10.043  -1.478  22.123  0.00  0.00    +0.002 C 
BRANCH  11  12
ATOM     12  C   UNL     1       8.932  -2.311  22.768  0.00  0.00    +0.001 C 
BRANCH  12  13
ATOM     13  C   UNL     1       9.429  -2.870  24.109  0.00  0.00    +0.011 C 
BRANCH  13  14
ATOM     14  C   UNL     1       8.755  -4.185  24.497  0.00  0.00    +0.120 C 
BRANCH  14  15
ATOM     15  C   UNL     1       9.382  -4.774  25.742  0.00  0.00    +0.305 C 
ATOM     16  O   UNL     1       9.041  -4.537  26.888  0.00  0.00    -0.251 OA
BRANCH  15  17
ATOM     17  O   UNL     1      10.398  -5.625  25.455  0.00  0.00    -0.481 OA
ATOM     18  H   UNL     1      10.219  -6.202  24.688  0.00  0.00    +0.295 HD
ENDBRANCH  15  17
ENDBRANCH  14  15
ENDBRANCH  13  14
ENDBRANCH  12  13
ENDBRANCH  11  12
ENDBRANCH  10  11
ENDBRANCH   1  10
TORSDOF 10
ENDMDL
MODEL 4
REMARK VINA RESULT:      -4.7      2.107      2.738
REMARK  Name = 
REMARK  11 active torsions:
REMARK  status: ('A' for Active; 'I' for Inactive)
REMARK    1  A    between atoms: C_1  and  C_2
REMARK    2  A    between atoms: C_2  and  N_4
REMARK    3  A    between atoms: C_2  and  C_5
REMARK    4  A    between atoms: C_5  and  N_7
REMARK    5  A    between atoms: C_5  and  C_8
REMARK    6  A    between atoms: C_8  and  C_9
REMARK    7  A    between atoms: C_9  and  C_10
REMARK    8  A    between atoms: C_10  and  C_11
REMARK    9  A    between atoms: C_11  and  C_12
REMARK   10  A    between atoms: C_12  and  C_13
REMARK   11  A    between atoms: C_13  and  O_14
REMARK                            x       y       z     vdW  Elec       q    Type
REMARK                         _______ _______ _______ _____ _____    ______ ____
ROOT
ATOM      1  C   UNL     1       8.623  -5.479  24.945  0.00  0.00    +0.067 C 
ENDROOT
BRANCH   1   2
ATOM      2  N   UNL     1      10.054  -5.113  24.894  0.00  0.00    -0.326 NA
ATOM      3  H   UNL     1      10.402  -5.130  25.852  0.00  0.00    +0.119 HD
ATOM      4  H   UNL     1      10.575  -5.846  24.417  0.00  0.00    +0.119 HD
ENDBRANCH   1   2
BRANCH   1   6
ATOM      5  C   UNL     1       8.537  -3.461  26.579  0.00  0.00    +0.025 C 
ATOM      6  C   UNL     1       7.926  -4.805  26.170  0.00  0.00    +0.064 C 
BRANCH   6   7
ATOM      7  N   UNL     1       7.985  -5.717  27.334  0.00  0.00    -0.326 NA
ATOM      8  H   UNL     1       7.569  -6.606  27.056  0.00  0.00    +0.119 HD
ATOM      9  H   UNL     1       8.961  -5.934  27.536  0.00  0.00    +0.119 HD
ENDBRANCH   6   7
ENDBRANCH   1   6
BRANCH   1  10
ATOM     10  C   UNL     1       7.921  -5.202  23.596  0.00  0.00    +0.020 C 
BRANCH  10  11
ATOM     11  C   UNL     1       6.484  -4.696  23.800  0.00  0.00    +0.002 C 
BRANCH  11  12
ATOM     12  C   UNL     1       6.249  -3.258  23.332  0.00  0.00    +0.001 C 
BRANCH  12  13
ATOM     13  C   UNL     1       7.316  -2.880  22.295  0.00  0.00    +0.011 C 
BRANCH  13  14
ATOM     14  C   UNL     1       8.099  -1.623  22.671  0.00  0.00    +0.120 C 
BRANCH  14  15
ATOM     15  C   UNL     1       9.588  -1.894  22.697  0.00  0.00    +0.305 C 
ATOM     16  O   UNL     1      10.204  -2.378  23.630  0.00  0.00    -0.251 OA
BRANCH  15  17
ATOM     17  O   UNL     1      10.197  -1.536  21.540  0.00  0.00    -0.481 OA
ATOM     18  H   UNL     1      11.159  -1.395  21.631  0.00  0.00    +0.295 HD
ENDBRANCH  15  17
ENDBRANCH  14  15
ENDBRANCH  13  14
ENDBRANCH  12  13
ENDBRANCH  11  12
ENDBRANCH  10  11
ENDBRANCH   1  10
TORSDOF 10
ENDMDL
MODEL 5
REMARK VINA RESULT:      -4.6      2.046      2.792
REMARK  Name = 
REMARK  11 active torsions:
REMARK  status: ('A' for Active; 'I' for Inactive)
REMARK    1  A    between atoms: C_1  and  C_2
REMARK    2  A    between atoms: C_2  and  N_4
REMARK    3  A    between atoms: C_2  and  C_5
REMARK    4  A    between atoms: C_5  and  N_7
REMARK    5  A    between atoms: C_5  and  C_8
REMARK    6  A    between atoms: C_8  and  C_9
REMARK    7  A    between atoms: C_9  and  C_10
REMARK    8  A    between atoms: C_10  and  C_11
REMARK    9  A    between atoms: C_11  and  C_12
REMARK   10  A    between atoms: C_12  and  C_13
REMARK   11  A    between atoms: C_13  and  O_14
REMARK                            x       y       z     vdW  Elec       q    Type
REMARK                         _______ _______ _______ _____ _____    ______ ____
ROOT
ATOM      1  C   UNL     1       8.499  -4.290  26.584  0.00  0.00    +0.067 C 
ENDROOT
BRANCH   1   2
ATOM      2  N   UNL     1       8.033  -5.530  27.239  0.00  0.00    -0.326 NA
ATOM      3  H   UNL     1       8.374  -5.508  28.199  0.00  0.00    +0.119 HD
ATOM      4  H   UNL     1       7.019  -5.510  27.323  0.00  0.00    +0.119 HD
ENDBRANCH   1   2
BRANCH   1   6
ATOM      5  C   UNL     1       8.168  -4.773  24.053  0.00  0.00    +0.025 C 
ATOM      6  C   UNL     1       9.163  -4.611  25.206  0.00  0.00    +0.064 C 
BRANCH   6   7
ATOM      7  N   UNL     1       9.953  -5.858  25.318  0.00  0.00    -0.326 NA
ATOM      8  H   UNL     1      10.931  -5.598  25.444  0.00  0.00    +0.119 HD
ATOM      9  H   UNL     1       9.694  -6.338  26.180  0.00  0.00    +0.119 HD
ENDBRANCH   6   7
ENDBRANCH   1   6
BRANCH   1  10
ATOM     10  C   UNL     1       7.371  -3.236  26.504  0.00  0.00    +0.020 C 
BRANCH  10  11
ATOM     11  C   UNL     1       7.933  -1.805  26.525  0.00  0.00    +0.002 C 
BRANCH  11  12
ATOM     12  C   UNL     1       8.050  -1.153  25.146  0.00  0.00    +0.001 C 
BRANCH  12  13
ATOM     13  C   UNL     1       9.509  -0.747  24.897  0.00  0.00    +0.011 C 
BRANCH  13  14
ATOM     14  C   UNL     1       9.750  -0.211  23.487  0.00  0.00    +0.120 C 
BRANCH  14  15
ATOM     15  C   UNL     1      10.118  -1.328  22.533  0.00  0.00    +0.305 C 
ATOM     16  O   UNL     1      10.610  -2.397  22.849  0.00  0.00    -0.251 OA
BRANCH  15  17
ATOM     17  O   UNL     1       9.837  -1.018  21.244  0.00  0.00    -0.481 OA
ATOM     18  H   UNL     1       9.624  -1.795  20.692  0.00  0.00    +0.295 HD
ENDBRANCH  15  17
ENDBRANCH  14  15
ENDBRANCH  13  14
ENDBRANCH  12  13
ENDBRANCH  11  12
ENDBRANCH  10  11
ENDBRANCH   1  10
TORSDOF 10
ENDMDL
MODEL 6
REMARK VINA RESULT:      -4.6      4.722      6.518
REMARK  Name = 
REMARK  11 active torsions:
REMARK  status: ('A' for Active; 'I' for Inactive)
REMARK    1  A    between atoms: C_1  and  C_2
REMARK    2  A    between atoms: C_2  and  N_4
REMARK    3  A    between atoms: C_2  and  C_5
REMARK    4  A    between atoms: C_5  and  N_7
REMARK    5  A    between atoms: C_5  and  C_8
REMARK    6  A    between atoms: C_8  and  C_9
REMARK    7  A    between atoms: C_9  and  C_10
REMARK    8  A    between atoms: C_10  and  C_11
REMARK    9  A    between atoms: C_11  and  C_12
REMARK   10  A    between atoms: C_12  and  C_13
REMARK   11  A    between atoms: C_13  and  O_14
REMARK                            x       y       z     vdW  Elec       q    Type
REMARK                         _______ _______ _______ _____ _____    ______ ____
ROOT
ATOM      1  C   UNL     1       9.238   1.022  23.671  0.00  0.00    +0.067 C 
ENDROOT
BRANCH   1   2
ATOM      2  N   UNL     1       9.525   2.305  24.347  0.00  0.00    -0.326 NA
ATOM      3  H   UNL     1      10.159   2.826  23.742  0.00  0.00    +0.119 HD
ATOM      4  H   UNL     1       8.677   2.868  24.380  0.00  0.00    +0.119 HD
ENDBRANCH   1   2
BRANCH   1   6
ATOM      5  C   UNL     1       9.385  -0.056  21.312  0.00  0.00    +0.025 C 
ATOM      6  C   UNL     1       9.151   1.222  22.124  0.00  0.00    +0.064 C 
BRANCH   6   7
ATOM      7  N   UNL     1      10.148   2.231  21.702  0.00  0.00    -0.326 NA
ATOM      8  H   UNL     1      10.716   1.820  20.961  0.00  0.00    +0.119 HD
ATOM      9  H   UNL     1       9.663   3.012  21.260  0.00  0.00    +0.119 HD
ENDBRANCH   6   7
ENDBRANCH   1   6
BRANCH   1  10
ATOM     10  C   UNL     1      10.231  -0.080  24.106  0.00  0.00    +0.020 C 
BRANCH  10  11
ATOM     11  C   UNL     1       9.506  -1.270  24.754  0.00  0.00    +0.002 C 
BRANCH  11  12
ATOM     12  C   UNL     1       9.685  -2.597  24.012  0.00  0.00    +0.001 C 
BRANCH  12  13
ATOM     13  C   UNL     1       8.358  -3.368  24.021  0.00  0.00    +0.011 C 
BRANCH  13  14
ATOM     14  C   UNL     1       8.510  -4.819  24.474  0.00  0.00    +0.120 C 
BRANCH  14  15
ATOM     15  C   UNL     1       9.213  -4.904  25.811  0.00  0.00    +0.305 C 
ATOM     16  O   UNL     1       8.790  -4.461  26.865  0.00  0.00    -0.251 OA
BRANCH  15  17
ATOM     17  O   UNL     1      10.404  -5.546  25.727  0.00  0.00    -0.481 OA
ATOM     18  H   UNL     1      10.909  -5.330  24.919  0.00  0.00    +0.295 HD
ENDBRANCH  15  17
ENDBRANCH  14  15
ENDBRANCH  13  14
ENDBRANCH  12  13
ENDBRANCH  11  12
ENDBRANCH  10  11
ENDBRANCH   1  10
TORSDOF 10
ENDMDL
MODEL 7
REMARK VINA RESULT:      -4.6      2.552      3.425
REMARK  Name = 
REMARK  11 active torsions:
REMARK  status: ('A' for Active; 'I' for Inactive)
REMARK    1  A    between atoms: C_1  and  C_2
REMARK    2  A    between atoms: C_2  and  N_4
REMARK    3  A    between atoms: C_2  and  C_5
REMARK    4  A    between atoms: C_5  and  N_7
REMARK    5  A    between atoms: C_5  and  C_8
REMARK    6  A    between atoms: C_8  and  C_9
REMARK    7  A    between atoms: C_9  and  C_10
REMARK    8  A    between atoms: C_10  and  C_11
REMARK    9  A    between atoms: C_11  and  C_12
REMARK   10  A    between atoms: C_12  and  C_13
REMARK   11  A    between atoms: C_13  and  O_14
REMARK                            x       y       z     vdW  Elec       q    Type
REMARK                         _______ _______ _______ _____ _____    ______ ____
ROOT
ATOM      1  C   UNL     1       9.012  -1.520  22.677  0.00  0.00    +0.067 C 
ENDROOT
BRANCH   1   2
ATOM      2  N   UNL     1       9.895  -1.362  21.502  0.00  0.00    -0.326 NA
ATOM      3  H   UNL     1       9.823  -0.390  21.202  0.00  0.00    +0.119 HD
ATOM      4  H   UNL     1      10.865  -1.473  21.790  0.00  0.00    +0.119 HD
ENDBRANCH   1   2
BRANCH   1   6
ATOM      5  C   UNL     1       6.568  -2.388  22.526  0.00  0.00    +0.025 C 
ATOM      6  C   UNL     1       8.058  -2.743  22.488  0.00  0.00    +0.064 C 
BRANCH   6   7
ATOM      7  N   UNL     1       8.326  -3.744  23.545  0.00  0.00    -0.326 NA
ATOM      8  H   UNL     1       8.968  -4.438  23.163  0.00  0.00    +0.119 HD
ATOM      9  H   UNL     1       8.840  -3.296  24.303  0.00  0.00    +0.119 HD
ENDBRANCH   6   7
ENDBRANCH   1   6
BRANCH   1  10
ATOM     10  C   UNL     1       9.824  -1.557  23.992  0.00  0.00    +0.020 C 
BRANCH  10  11
ATOM     11  C   UNL     1       9.781  -0.203  24.720  0.00  0.00    +0.002 C 
BRANCH  11  12
ATOM     12  C   UNL     1      10.994   0.693  24.457  0.00  0.00    +0.001 C 
BRANCH  12  13
ATOM     13  C   UNL     1      10.522   2.028  23.865  0.00  0.00    +0.011 C 
BRANCH  13  14
ATOM     14  C   UNL     1       9.015   2.077  23.623  0.00  0.00    +0.120 C 
BRANCH  14  15
ATOM     15  C   UNL     1       8.701   2.154  22.144  0.00  0.00    +0.305 C 
ATOM     16  O   UNL     1       7.610   2.406  21.662  0.00  0.00    -0.251 OA
BRANCH  15  17
ATOM     17  O   UNL     1       9.789   1.908  21.373  0.00  0.00    -0.481 OA
ATOM     18  H   UNL     1       9.647   1.206  20.709  0.00  0.00    +0.295 HD
ENDBRANCH  15  17
ENDBRANCH  14  15
ENDBRANCH  13  14
ENDBRANCH  12  13
ENDBRANCH  11  12
ENDBRANCH  10  11
ENDBRANCH   1  10
TORSDOF 10
ENDMDL
MODEL 8
REMARK VINA RESULT:      -4.6      1.743      2.205
REMARK  Name = 
REMARK  11 active torsions:
REMARK  status: ('A' for Active; 'I' for Inactive)
REMARK    1  A    between atoms: C_1  and  C_2
REMARK    2  A    between atoms: C_2  and  N_4
REMARK    3  A    between atoms: C_2  and  C_5
REMARK    4  A    between atoms: C_5  and  N_7
REMARK    5  A    between atoms: C_5  and  C_8
REMARK    6  A    between atoms: C_8  and  C_9
REMARK    7  A    between atoms: C_9  and  C_10
REMARK    8  A    between atoms: C_10  and  C_11
REMARK    9  A    between atoms: C_11  and  C_12
REMARK   10  A    between atoms: C_12  and  C_13
REMARK   11  A    between atoms: C_13  and  O_14
REMARK                            x       y       z     vdW  Elec       q    Type
REMARK                         _______ _______ _______ _____ _____    ______ ____
ROOT
ATOM      1  C   UNL     1       8.730  -3.846  24.353  0.00  0.00    +0.067 C 
ENDROOT
BRANCH   1   2
ATOM      2  N   UNL     1      10.079  -3.328  24.044  0.00  0.00    -0.326 NA
ATOM      3  H   UNL     1      10.747  -4.042  24.332  0.00  0.00    +0.119 HD
ATOM      4  H   UNL     1      10.193  -3.259  23.035  0.00  0.00    +0.119 HD
ENDBRANCH   1   2
BRANCH   1   6
ATOM      5  C   UNL     1       8.147  -5.111  26.546  0.00  0.00    +0.025 C 
ATOM      6  C   UNL     1       8.824  -5.173  25.173  0.00  0.00    +0.064 C 
BRANCH   6   7
ATOM      7  N   UNL     1      10.247  -5.529  25.371  0.00  0.00    -0.326 NA
ATOM      8  H   UNL     1      10.784  -4.663  25.411  0.00  0.00    +0.119 HD
ATOM      9  H   UNL     1      10.358  -5.953  26.292  0.00  0.00    +0.119 HD
ENDBRANCH   6   7
ENDBRANCH   1   6
BRANCH   1  10
ATOM     10  C   UNL     1       7.846  -2.763  25.014  0.00  0.00    +0.020 C 
BRANCH  10  11
ATOM     11  C   UNL     1       8.631  -1.462  25.251  0.00  0.00    +0.002 C 
BRANCH  11  12
ATOM     12  C   UNL     1       8.150  -0.275  24.414  0.00  0.00    +0.001 C 
BRANCH  12  13
ATOM     13  C   UNL     1       9.320   0.691  24.182  0.00  0.00    +0.011 C 
BRANCH  13  14
ATOM     14  C   UNL     1      10.408   0.110  23.280  0.00  0.00    +0.120 C 
BRANCH  14  15
ATOM     15  C   UNL     1       9.850  -0.267  21.924  0.00  0.00    +0.305 C 
ATOM     16  O   UNL     1       9.236   0.475  21.178  0.00  0.00    -0.251 OA
BRANCH  15  17
ATOM     17  O   UNL     1      10.110  -1.558  21.602  0.00  0.00    -0.481 OA
ATOM     18  H   UNL     1      10.151  -1.720  20.639  0.00  0.00    +0.295 HD
ENDBRANCH  15  17
ENDBRANCH  14  15
ENDBRANCH  13  14
ENDBRANCH  12  13
ENDBRANCH  11  12
ENDBRANCH  10  11
ENDBRANCH   1  10
TORSDOF 10
ENDMDL
MODEL 9
REMARK VINA RESULT:      -4.6      1.772      2.433
REMARK  Name = 
REMARK  11 active torsions:
REMARK  status: ('A' for Active; 'I' for Inactive)
REMARK    1  A    between atoms: C_1  and  C_2
REMARK    2  A    between atoms: C_2  and  N_4
REMARK    3  A    between atoms: C_2  and  C_5
REMARK    4  A    between atoms: C_5  and  N_7
REMARK    5  A    between atoms: C_5  and  C_8
REMARK    6  A    between atoms: C_8  and  C_9
REMARK    7  A    between atoms: C_9  and  C_10
REMARK    8  A    between atoms: C_10  and  C_11
REMARK    9  A    between atoms: C_11  and  C_12
REMARK   10  A    between atoms: C_12  and  C_13
REMARK   11  A    between atoms: C_13  and  O_14
REMARK                            x       y       z     vdW  Elec       q    Type
REMARK                         _______ _______ _______ _____ _____    ______ ____
ROOT
ATOM      1  C   UNL     1       8.402  -3.902  24.428  0.00  0.00    +0.067 C 
ENDROOT
BRANCH   1   2
ATOM      2  N   UNL     1       7.750  -4.228  23.143  0.00  0.00    -0.326 NA
ATOM      3  H   UNL     1       7.034  -3.520  22.982  0.00  0.00    +0.119 HD
ATOM      4  H   UNL     1       8.415  -4.100  22.383  0.00  0.00    +0.119 HD
ENDBRANCH   1   2
BRANCH   1   6
ATOM      5  C   UNL     1       8.211  -5.058  26.747  0.00  0.00    +0.025 C 
ATOM      6  C   UNL     1       8.622  -5.195  25.278  0.00  0.00    +0.064 C 
BRANCH   6   7
ATOM      7  N   UNL     1      10.050  -5.581  25.227  0.00  0.00    -0.326 NA
ATOM      8  H   UNL     1      10.110  -6.582  25.410  0.00  0.00    +0.119 HD
ATOM      9  H   UNL     1      10.391  -5.465  24.273  0.00  0.00    +0.119 HD
ENDBRANCH   6   7
ENDBRANCH   1   6
BRANCH   1  10
ATOM     10  C   UNL     1       9.686  -3.068  24.214  0.00  0.00    +0.020 C 
BRANCH  10  11
ATOM     11  C   UNL     1       9.421  -1.565  24.401  0.00  0.00    +0.002 C 
BRANCH  11  12
ATOM     12  C   UNL     1      10.272  -0.659  23.506  0.00  0.00    +0.001 C 
BRANCH  12  13
ATOM     13  C   UNL     1      10.744   0.556  24.316  0.00  0.00    +0.011 C 
BRANCH  13  14
ATOM     14  C   UNL     1       9.908   1.809  24.059  0.00  0.00    +0.120 C 
BRANCH  14  15
ATOM     15  C   UNL     1      10.590   2.727  23.066  0.00  0.00    +0.305 C 
ATOM     16  O   UNL     1      11.327   3.655  23.349  0.00  0.00    -0.251 OA
BRANCH  15  17
ATOM     17  O   UNL     1      10.295   2.407  21.783  0.00  0.00    -0.481 OA
ATOM     18  H   UNL     1      10.810   1.651  21.439  0.00  0.00    +0.295 HD
ENDBRANCH  15  17
ENDBRANCH  14  15
ENDBRANCH  13  14
ENDBRANCH  12  13
ENDBRANCH  11  12
ENDBRANCH  10  11
ENDBRANCH   1  10
TORSDOF 10
ENDMDL
