MODEL 1
REMARK VINA RESULT:      -7.4      0.000      0.000
REMARK  Name = 
REMARK  9 active torsions:
REMARK  status: ('A' for Active; 'I' for Inactive)
REMARK    1  A    between atoms: C_1  and  C_2
REMARK    2  A    between atoms: C_2  and  C_3
REMARK    3  A    between atoms: C_3  and  C_4
REMARK    4  A    between atoms: C_7  and  N_8
REMARK    5  A    between atoms: C_9  and  C_11
REMARK    6  A    between atoms: C_16  and  N_17
REMARK    7  A    between atoms: N_17  and  C_18
REMARK    8  A    between atoms: C_18  and  C_19
REMARK    9  A    between atoms: C_27  and  C_28
REMARK                            x       y       z     vdW  Elec       q    Type
REMARK                         _______ _______ _______ _____ _____    ______ ____
ROOT
ATOM      1  N   UNL     1       7.243   0.121  25.128  0.00  0.00    -0.281 N 
ATOM      2  H   UNL     1       7.787   0.358  25.953  0.00  0.00    +0.155 HD
ATOM      3  C   UNL     1       7.026   1.146  24.217  0.00  0.00    +0.250 C 
ATOM      4  O   UNL     1       6.517   0.995  23.105  0.00  0.00    -0.270 OA
ENDROOT
BRANCH   1   8
ATOM      5  C   UNL     1       6.595  -4.000  24.175  0.00  0.00    -0.036 A 
ATOM      6  C   UNL     1       7.473  -3.639  25.223  0.00  0.00    +0.060 A 
ATOM      7  C   UNL     1       7.631  -2.259  25.555  0.00  0.00    +0.036 A 
ATOM      8  C   UNL     1       6.950  -1.249  24.865  0.00  0.00    +0.034 A 
ATOM      9  C   UNL     1       6.017  -1.645  23.907  0.00  0.00    +0.023 A 
ATOM     10  C   UNL     1       5.842  -2.988  23.566  0.00  0.00    +0.006 A 
BRANCH   6  11
ATOM     11  C   UNL     1       8.299  -4.636  26.011  0.00  0.00    +0.418 C 
ATOM     12  F   UNL     1       9.086  -4.021  26.942  0.00  0.00    -0.166 F 
ATOM     13  F   UNL     1       9.161  -5.331  25.213  0.00  0.00    -0.166 F 
ATOM     14  F   UNL     1       7.600  -5.577  26.700  0.00  0.00    -0.166 F 
ENDBRANCH   6  11
BRANCH   5  15
ATOM     15  C   UNL     1       6.421  -5.405  23.636  0.00  0.00    +0.035 C 
BRANCH  15  17
ATOM     16  C   UNL     1       6.370  -5.780  21.145  0.00  0.00    +0.004 C 
ATOM     17  C   UNL     1       7.252  -5.680  22.382  0.00  0.00    +0.001 C 
ENDBRANCH  15  17
ENDBRANCH   5  15
ENDBRANCH   1   8
BRANCH   3  18
ATOM     18  C   UNL     1       7.490   2.533  24.537  0.00  0.00    +0.058 A 
ATOM     19  C   UNL     1       8.313   3.347  23.732  0.00  0.00    +0.040 A 
ATOM     20  C   UNL     1       8.810   4.537  24.314  0.00  0.00    +0.024 A 
ATOM     21  C   UNL     1       8.433   4.961  25.592  0.00  0.00    +0.002 A 
ATOM     22  C   UNL     1       7.548   4.201  26.334  0.00  0.00    +0.001 A 
ATOM     23  C   UNL     1       7.093   2.993  25.815  0.00  0.00    +0.015 A 
BRANCH  19  24
ATOM     24  N   UNL     1       8.691   2.964  22.427  0.00  0.00    -0.339 N 
ATOM     25  H   UNL     1       8.006   2.300  22.056  0.00  0.00    +0.146 HD
BRANCH  24  26
ATOM     26  C   UNL     1      10.056   2.451  22.256  0.00  0.00    +0.138 C 
BRANCH  26  27
ATOM     27  C   UNL     1      10.080   0.985  22.582  0.00  0.00    -0.014 A 
ATOM     28  C   UNL     1       9.547   0.056  21.593  0.00  0.00    +0.012 A 
ATOM     29  C   UNL     1       9.550  -1.264  21.808  0.00  0.00    +0.070 A 
ATOM     30  C   UNL     1      10.134  -1.801  23.063  0.00  0.00    +0.249 A 
ATOM     31  O   UNL     1      10.161  -3.003  23.286  0.00  0.00    -0.268 OA
ATOM     32  N   UNL     1      10.648  -0.866  23.930  0.00  0.00    -0.329 N 
ATOM     33  H   UNL     1      11.061  -1.241  24.774  0.00  0.00    +0.168 HD
ATOM     34  C   UNL     1      10.626   0.486  23.706  0.00  0.00    +0.091 A 
ENDBRANCH  26  27
ENDBRANCH  24  26
ENDBRANCH  19  24
ENDBRANCH   3  18
TORSDOF 8
ENDMDL
MODEL 2
REMARK VINA RESULT:      -7.1      2.722      4.526
REMARK  Name = 
REMARK  9 active torsions:
REMARK  status: ('A' for Active; 'I' for Inactive)
REMARK    1  A    between atoms: C_1  and  C_2
REMARK    2  A    between atoms: C_2  and  C_3
REMARK    3  A    between atoms: C_3  and  C_4
REMARK    4  A    between atoms: C_7  and  N_8
REMARK    5  A    between atoms: C_9  and  C_11
REMARK    6  A    between atoms: C_16  and  N_17
REMARK    7  A    between atoms: N_17  and  C_18
REMARK    8  A    between atoms: C_18  and  C_19
REMARK    9  A    between atoms: C_27  and  C_28
REMARK                            x       y       z     vdW  Elec       q    Type
REMARK                         _______ _______ _______ _____ _____    ______ ____
ROOT
ATOM      1  N   UNL     1       7.141  -1.399  23.154  0.00  0.00    -0.281 N 
ATOM      2  H   UNL     1       6.683  -0.504  23.300  0.00  0.00    +0.155 HD
ATOM      3  C   UNL     1       8.529  -1.386  23.137  0.00  0.00    +0.250 C 
ATOM      4  O   UNL     1       9.236  -2.396  23.117  0.00  0.00    -0.270 OA
ENDROOT
BRANCH   1   8
ATOM      5  C   UNL     1       4.678  -4.897  23.057  0.00  0.00    -0.036 A 
ATOM      6  C   UNL     1       5.913  -4.875  22.371  0.00  0.00    +0.060 A 
ATOM      7  C   UNL     1       6.741  -3.714  22.463  0.00  0.00    +0.036 A 
ATOM      8  C   UNL     1       6.359  -2.590  23.204  0.00  0.00    +0.034 A 
ATOM      9  C   UNL     1       5.185  -2.683  23.950  0.00  0.00    +0.023 A 
ATOM     10  C   UNL     1       4.359  -3.808  23.879  0.00  0.00    +0.006 A 
BRANCH   6  11
ATOM     11  C   UNL     1       6.414  -6.010  21.499  0.00  0.00    +0.418 C 
ATOM     12  F   UNL     1       6.456  -7.192  22.179  0.00  0.00    -0.166 F 
ATOM     13  F   UNL     1       7.691  -5.797  21.067  0.00  0.00    -0.166 F 
ATOM     14  F   UNL     1       5.687  -6.267  20.380  0.00  0.00    -0.166 F 
ENDBRANCH   6  11
BRANCH   5  15
ATOM     15  C   UNL     1       3.648  -6.003  22.953  0.00  0.00    +0.035 C 
BRANCH  15  17
ATOM     16  C   UNL     1       2.391  -7.815  24.172  0.00  0.00    +0.004 C 
ATOM     17  C   UNL     1       3.631  -6.931  24.169  0.00  0.00    +0.001 C 
ENDBRANCH  15  17
ENDBRANCH   5  15
ENDBRANCH   1   8
BRANCH   3  18
ATOM     18  C   UNL     1       9.260  -0.083  23.219  0.00  0.00    +0.058 A 
ATOM     19  C   UNL     1       9.685   0.567  24.397  0.00  0.00    +0.040 A 
ATOM     20  C   UNL     1      10.165   1.891  24.265  0.00  0.00    +0.024 A 
ATOM     21  C   UNL     1      10.320   2.513  23.022  0.00  0.00    +0.002 A 
ATOM     22  C   UNL     1       9.990   1.829  21.867  0.00  0.00    +0.001 A 
ATOM     23  C   UNL     1       9.454   0.549  21.968  0.00  0.00    +0.015 A 
BRANCH  19  24
ATOM     24  N   UNL     1       9.569  -0.042  25.665  0.00  0.00    -0.339 N 
ATOM     25  H   UNL     1       9.807  -1.034  25.588  0.00  0.00    +0.146 HD
BRANCH  24  26
ATOM     26  C   UNL     1       8.293   0.134  26.370  0.00  0.00    +0.138 C 
BRANCH  26  27
ATOM     27  C   UNL     1       7.661  -1.211  26.594  0.00  0.00    -0.014 A 
ATOM     28  C   UNL     1       8.488  -2.396  26.403  0.00  0.00    +0.012 A 
ATOM     29  C   UNL     1       7.996  -3.624  26.600  0.00  0.00    +0.070 A 
ATOM     30  C   UNL     1       6.592  -3.788  27.050  0.00  0.00    +0.249 A 
ATOM     31  O   UNL     1       6.115  -4.896  27.249  0.00  0.00    -0.268 OA
ATOM     32  N   UNL     1       5.887  -2.623  27.243  0.00  0.00    -0.329 N 
ATOM     33  H   UNL     1       4.936  -2.744  27.569  0.00  0.00    +0.168 HD
ATOM     34  C   UNL     1       6.396  -1.371  27.023  0.00  0.00    +0.091 A 
ENDBRANCH  26  27
ENDBRANCH  24  26
ENDBRANCH  19  24
ENDBRANCH   3  18
TORSDOF 8
ENDMDL
MODEL 3
REMARK VINA RESULT:      -7.0      3.277      7.016
REMARK  Name = 
REMARK  9 active torsions:
REMARK  status: ('A' for Active; 'I' for Inactive)
REMARK    1  A    between atoms: C_1  and  C_2
REMARK    2  A    between atoms: C_2  and  C_3
REMARK    3  A    between atoms: C_3  and  C_4
REMARK    4  A    between atoms: C_7  and  N_8
REMARK    5  A    between atoms: C_9  and  C_11
REMARK    6  A    between atoms: C_16  and  N_17
REMARK    7  A    between atoms: N_17  and  C_18
REMARK    8  A    between atoms: C_18  and  C_19
REMARK    9  A    between atoms: C_27  and  C_28
REMARK                            x       y       z     vdW  Elec       q    Type
REMARK                         _______ _______ _______ _____ _____    ______ ____
ROOT
ATOM      1  N   UNL     1       7.848  -1.156  26.052  0.00  0.00    -0.281 N 
ATOM      2  H   UNL     1       8.472  -1.401  26.816  0.00  0.00    +0.155 HD
ATOM      3  C   UNL     1       6.724  -1.956  25.892  0.00  0.00    +0.250 C 
ATOM      4  O   UNL     1       5.799  -1.712  25.115  0.00  0.00    -0.270 OA
ENDROOT
BRANCH   1   8
ATOM      5  C   UNL     1       8.711   2.545  24.084  0.00  0.00    -0.036 A 
ATOM      6  C   UNL     1       8.939   1.315  23.425  0.00  0.00    +0.060 A 
ATOM      7  C   UNL     1       8.593   0.096  24.084  0.00  0.00    +0.036 A 
ATOM      8  C   UNL     1       8.045   0.081  25.372  0.00  0.00    +0.034 A 
ATOM      9  C   UNL     1       7.738   1.312  25.952  0.00  0.00    +0.023 A 
ATOM     10  C   UNL     1       8.064   2.518  25.327  0.00  0.00    +0.006 A 
BRANCH   6  11
ATOM     11  C   UNL     1       9.570   1.200  22.051  0.00  0.00    +0.418 C 
ATOM     12  F   UNL     1       8.655   1.380  21.055  0.00  0.00    -0.166 F 
ATOM     13  F   UNL     1      10.100  -0.039  21.835  0.00  0.00    -0.166 F 
ATOM     14  F   UNL     1      10.571   2.078  21.780  0.00  0.00    -0.166 F 
ENDBRANCH   6  11
BRANCH   5  15
ATOM     15  C   UNL     1       9.137   3.901  23.561  0.00  0.00    +0.035 C 
BRANCH  15  17
ATOM     16  C   UNL     1       7.075   4.244  22.155  0.00  0.00    +0.004 C 
ATOM     17  C   UNL     1       7.961   4.827  23.248  0.00  0.00    +0.001 C 
ENDBRANCH  15  17
ENDBRANCH   5  15
ENDBRANCH   1   8
BRANCH   3  18
ATOM     18  C   UNL     1       6.550  -3.169  26.751  0.00  0.00    +0.058 A 
ATOM     19  C   UNL     1       7.432  -4.266  26.840  0.00  0.00    +0.040 A 
ATOM     20  C   UNL     1       6.975  -5.405  27.545  0.00  0.00    +0.024 A 
ATOM     21  C   UNL     1       5.752  -5.428  28.221  0.00  0.00    +0.002 A 
ATOM     22  C   UNL     1       4.939  -4.311  28.206  0.00  0.00    +0.001 A 
ATOM     23  C   UNL     1       5.330  -3.198  27.468  0.00  0.00    +0.015 A 
BRANCH  19  24
ATOM     24  N   UNL     1       8.687  -4.266  26.194  0.00  0.00    -0.339 N 
ATOM     25  H   UNL     1       8.932  -3.309  25.927  0.00  0.00    +0.146 HD
BRANCH  24  26
ATOM     26  C   UNL     1       8.846  -5.179  25.054  0.00  0.00    +0.138 C 
BRANCH  26  27
ATOM     27  C   UNL     1       7.987  -4.705  23.917  0.00  0.00    -0.014 A 
ATOM     28  C   UNL     1       6.781  -5.464  23.607  0.00  0.00    +0.012 A 
ATOM     29  C   UNL     1       5.961  -5.092  22.619  0.00  0.00    +0.070 A 
ATOM     30  C   UNL     1       6.263  -3.866  21.838  0.00  0.00    +0.249 A 
ATOM     31  O   UNL     1       5.529  -3.492  20.934  0.00  0.00    -0.268 OA
ATOM     32  N   UNL     1       7.398  -3.184  22.212  0.00  0.00    -0.329 N 
ATOM     33  H   UNL     1       7.586  -2.340  21.688  0.00  0.00    +0.168 HD
ATOM     34  C   UNL     1       8.239  -3.584  23.217  0.00  0.00    +0.091 A 
ENDBRANCH  26  27
ENDBRANCH  24  26
ENDBRANCH  19  24
ENDBRANCH   3  18
TORSDOF 8
ENDMDL
MODEL 4
REMARK VINA RESULT:      -7.0      3.581      7.285
REMARK  Name = 
REMARK  9 active torsions:
REMARK  status: ('A' for Active; 'I' for Inactive)
REMARK    1  A    between atoms: C_1  and  C_2
REMARK    2  A    between atoms: C_2  and  C_3
REMARK    3  A    between atoms: C_3  and  C_4
REMARK    4  A    between atoms: C_7  and  N_8
REMARK    5  A    between atoms: C_9  and  C_11
REMARK    6  A    between atoms: C_16  and  N_17
REMARK    7  A    between atoms: N_17  and  C_18
REMARK    8  A    between atoms: C_18  and  C_19
REMARK    9  A    between atoms: C_27  and  C_28
REMARK                            x       y       z     vdW  Elec       q    Type
REMARK                         _______ _______ _______ _____ _____    ______ ____
ROOT
ATOM      1  N   UNL     1       7.186  -0.167  25.109  0.00  0.00    -0.281 N 
ATOM      2  H   UNL     1       6.655  -0.633  24.378  0.00  0.00    +0.155 HD
ATOM      3  C   UNL     1       8.089  -0.955  25.811  0.00  0.00    +0.250 C 
ATOM      4  O   UNL     1       8.908  -0.521  26.623  0.00  0.00    -0.270 OA
ENDROOT
BRANCH   1   8
ATOM      5  C   UNL     1       7.300   4.105  25.316  0.00  0.00    -0.036 A 
ATOM      6  C   UNL     1       7.098   3.456  24.077  0.00  0.00    +0.060 A 
ATOM      7  C   UNL     1       7.011   2.031  24.043  0.00  0.00    +0.036 A 
ATOM      8  C   UNL     1       7.133   1.254  25.201  0.00  0.00    +0.034 A 
ATOM      9  C   UNL     1       7.228   1.929  26.418  0.00  0.00    +0.023 A 
ATOM     10  C   UNL     1       7.313   3.322  26.478  0.00  0.00    +0.006 A 
BRANCH   6  11
ATOM     11  C   UNL     1       6.999   4.183  22.751  0.00  0.00    +0.418 C 
ATOM     12  F   UNL     1       5.931   5.032  22.715  0.00  0.00    -0.166 F 
ATOM     13  F   UNL     1       6.812   3.322  21.708  0.00  0.00    -0.166 F 
ATOM     14  F   UNL     1       8.072   4.944  22.407  0.00  0.00    -0.166 F 
ENDBRANCH   6  11
BRANCH   5  15
ATOM     15  C   UNL     1       7.532   5.592  25.488  0.00  0.00    +0.035 C 
BRANCH  15  17
ATOM     16  C   UNL     1       9.585   6.765  24.620  0.00  0.00    +0.004 C 
ATOM     17  C   UNL     1       8.993   5.950  25.762  0.00  0.00    +0.001 C 
ENDBRANCH  15  17
ENDBRANCH   5  15
ENDBRANCH   1   8
BRANCH   3  18
ATOM     18  C   UNL     1       8.154  -2.426  25.545  0.00  0.00    +0.058 A 
ATOM     19  C   UNL     1       8.986  -3.071  24.608  0.00  0.00    +0.040 A 
ATOM     20  C   UNL     1       8.738  -4.442  24.361  0.00  0.00    +0.024 A 
ATOM     21  C   UNL     1       7.785  -5.173  25.077  0.00  0.00    +0.002 A 
ATOM     22  C   UNL     1       7.041  -4.550  26.062  0.00  0.00    +0.001 A 
ATOM     23  C   UNL     1       7.217  -3.188  26.283  0.00  0.00    +0.015 A 
BRANCH  19  24
ATOM     24  N   UNL     1       9.978  -2.371  23.887  0.00  0.00    -0.339 N 
ATOM     25  H   UNL     1      10.443  -1.705  24.509  0.00  0.00    +0.146 HD
BRANCH  24  26
ATOM     26  C   UNL     1       9.553  -1.713  22.645  0.00  0.00    +0.138 C 
BRANCH  26  27
ATOM     27  C   UNL     1       9.866  -0.246  22.729  0.00  0.00    -0.014 A 
ATOM     28  C   UNL     1      10.549   0.241  23.920  0.00  0.00    +0.012 A 
ATOM     29  C   UNL     1      10.874   1.531  24.057  0.00  0.00    +0.070 A 
ATOM     30  C   UNL     1      10.561   2.485  22.963  0.00  0.00    +0.249 A 
ATOM     31  O   UNL     1      10.853   3.669  23.052  0.00  0.00    -0.268 OA
ATOM     32  N   UNL     1       9.949   1.945  21.857  0.00  0.00    -0.329 N 
ATOM     33  H   UNL     1       9.757   2.598  21.109  0.00  0.00    +0.168 HD
ATOM     34  C   UNL     1       9.607   0.624  21.735  0.00  0.00    +0.091 A 
ENDBRANCH  26  27
ENDBRANCH  24  26
ENDBRANCH  19  24
ENDBRANCH   3  18
TORSDOF 8
ENDMDL
MODEL 5
REMARK VINA RESULT:      -7.0      1.910      2.715
REMARK  Name = 
REMARK  9 active torsions:
REMARK  status: ('A' for Active; 'I' for Inactive)
REMARK    1  A    between atoms: C_1  and  C_2
REMARK    2  A    between atoms: C_2  and  C_3
REMARK    3  A    between atoms: C_3  and  C_4
REMARK    4  A    between atoms: C_7  and  N_8
REMARK    5  A    between atoms: C_9  and  C_11
REMARK    6  A    between atoms: C_16  and  N_17
REMARK    7  A    between atoms: N_17  and  C_18
REMARK    8  A    between atoms: C_18  and  C_19
REMARK    9  A    between atoms: C_27  and  C_28
REMARK                            x       y       z     vdW  Elec       q    Type
REMARK                         _______ _______ _______ _____ _____    ______ ____
ROOT
ATOM      1  N   UNL     1       6.190   0.340  23.536  0.00  0.00    -0.281 N 
ATOM      2  H   UNL     1       5.682   0.502  22.671  0.00  0.00    +0.155 HD
ATOM      3  C   UNL     1       6.758   1.456  24.136  0.00  0.00    +0.250 C 
ATOM      4  O   UNL     1       7.278   1.458  25.253  0.00  0.00    -0.270 OA
ENDROOT
BRANCH   1   8
ATOM      5  C   UNL     1       5.677  -3.548  25.249  0.00  0.00    -0.036 A 
ATOM      6  C   UNL     1       6.453  -3.380  24.079  0.00  0.00    +0.060 A 
ATOM      7  C   UNL     1       6.652  -2.065  23.558  0.00  0.00    +0.036 A 
ATOM      8  C   UNL     1       6.090  -0.935  24.165  0.00  0.00    +0.034 A 
ATOM      9  C   UNL     1       5.418  -1.124  25.372  0.00  0.00    +0.023 A 
ATOM     10  C   UNL     1       5.212  -2.399  25.903  0.00  0.00    +0.006 A 
BRANCH   6  11
ATOM     11  C   UNL     1       7.072  -4.527  23.306  0.00  0.00    +0.418 C 
ATOM     12  F   UNL     1       7.688  -4.099  22.166  0.00  0.00    -0.166 F 
ATOM     13  F   UNL     1       6.135  -5.430  22.894  0.00  0.00    -0.166 F 
ATOM     14  F   UNL     1       8.011  -5.253  23.969  0.00  0.00    -0.166 F 
ENDBRANCH   6  11
BRANCH   5  15
ATOM     15  C   UNL     1       5.283  -4.884  25.843  0.00  0.00    +0.035 C 
BRANCH  15  17
ATOM     16  C   UNL     1       7.341  -5.445  27.183  0.00  0.00    +0.004 C 
ATOM     17  C   UNL     1       5.856  -5.118  27.242  0.00  0.00    +0.001 C 
ENDBRANCH  15  17
ENDBRANCH   5  15
ENDBRANCH   1   8
BRANCH   3  18
ATOM     18  C   UNL     1       6.695   2.782  23.446  0.00  0.00    +0.058 A 
ATOM     19  C   UNL     1       7.790   3.525  22.958  0.00  0.00    +0.040 A 
ATOM     20  C   UNL     1       7.532   4.850  22.533  0.00  0.00    +0.024 A 
ATOM     21  C   UNL     1       6.241   5.387  22.491  0.00  0.00    +0.002 A 
ATOM     22  C   UNL     1       5.164   4.613  22.881  0.00  0.00    +0.001 A 
ATOM     23  C   UNL     1       5.392   3.329  23.365  0.00  0.00    +0.015 A 
BRANCH  19  24
ATOM     24  N   UNL     1       9.102   3.005  22.960  0.00  0.00    -0.339 N 
ATOM     25  H   UNL     1       9.770   3.767  23.109  0.00  0.00    +0.146 HD
BRANCH  24  26
ATOM     26  C   UNL     1       9.494   2.191  21.802  0.00  0.00    +0.138 C 
BRANCH  26  27
ATOM     27  C   UNL     1       9.738   0.778  22.249  0.00  0.00    -0.014 A 
ATOM     28  C   UNL     1      10.122   0.556  23.638  0.00  0.00    +0.012 A 
ATOM     29  C   UNL     1      10.340  -0.676  24.110  0.00  0.00    +0.070 A 
ATOM     30  C   UNL     1      10.158  -1.846  23.215  0.00  0.00    +0.249 A 
ATOM     31  O   UNL     1      10.340  -2.987  23.617  0.00  0.00    -0.268 OA
ATOM     32  N   UNL     1       9.760  -1.560  21.930  0.00  0.00    -0.329 N 
ATOM     33  H   UNL     1       9.620  -2.364  21.333  0.00  0.00    +0.168 HD
ATOM     34  C   UNL     1       9.555  -0.292  21.454  0.00  0.00    +0.091 A 
ENDBRANCH  26  27
ENDBRANCH  24  26
ENDBRANCH  19  24
ENDBRANCH   3  18
TORSDOF 8
ENDMDL
MODEL 6
REMARK VINA RESULT:      -6.8      3.175      6.870
REMARK  Name = 
REMARK  9 active torsions:
REMARK  status: ('A' for Active; 'I' for Inactive)
REMARK    1  A    between atoms: C_1  and  C_2
REMARK    2  A    between atoms: C_2  and  C_3
REMARK    3  A    between atoms: C_3  and  C_4
REMARK    4  A    between atoms: C_7  and  N_8
REMARK    5  A    between atoms: C_9  and  C_11
REMARK    6  A    between atoms: C_16  and  N_17
REMARK    7  A    between atoms: N_17  and  C_18
REMARK    8  A    between atoms: C_18  and  C_19
REMARK    9  A    between atoms: C_27  and  C_28
REMARK                            x       y       z     vdW  Elec       q    Type
REMARK                         _______ _______ _______ _____ _____    ______ ____
ROOT
ATOM      1  N   UNL     1       7.540  -0.688  26.504  0.00  0.00    -0.281 N 
ATOM      2  H   UNL     1       7.981  -0.884  27.398  0.00  0.00    +0.155 HD
ATOM      3  C   UNL     1       6.630  -1.631  26.045  0.00  0.00    +0.250 C 
ATOM      4  O   UNL     1       5.905  -1.480  25.060  0.00  0.00    -0.270 OA
ENDROOT
BRANCH   1   8
ATOM      5  C   UNL     1       8.243   3.235  24.947  0.00  0.00    -0.036 A 
ATOM      6  C   UNL     1       9.077   2.158  24.570  0.00  0.00    +0.060 A 
ATOM      7  C   UNL     1       8.788   0.848  25.062  0.00  0.00    +0.036 A 
ATOM      8  C   UNL     1       7.710   0.601  25.919  0.00  0.00    +0.034 A 
ATOM      9  C   UNL     1       6.849   1.664  26.189  0.00  0.00    +0.023 A 
ATOM     10  C   UNL     1       7.108   2.954  25.718  0.00  0.00    +0.006 A 
BRANCH   6  11
ATOM     11  C   UNL     1      10.300   2.307  23.687  0.00  0.00    +0.418 C 
ATOM     12  F   UNL     1       9.974   2.310  22.362  0.00  0.00    -0.166 F 
ATOM     13  F   UNL     1      11.172   1.269  23.843  0.00  0.00    -0.166 F 
ATOM     14  F   UNL     1      11.037   3.434  23.876  0.00  0.00    -0.166 F 
ENDBRANCH   6  11
BRANCH   5  15
ATOM     15  C   UNL     1       8.496   4.689  24.603  0.00  0.00    +0.035 C 
BRANCH  15  17
ATOM     16  C   UNL     1       7.399   4.823  22.339  0.00  0.00    +0.004 C 
ATOM     17  C   UNL     1       7.375   5.321  23.778  0.00  0.00    +0.001 C 
ENDBRANCH  15  17
ENDBRANCH   5  15
ENDBRANCH   1   8
BRANCH   3  18
ATOM     18  C   UNL     1       6.433  -2.904  26.808  0.00  0.00    +0.058 A 
ATOM     19  C   UNL     1       7.319  -4.001  26.850  0.00  0.00    +0.040 A 
ATOM     20  C   UNL     1       6.845  -5.189  27.455  0.00  0.00    +0.024 A 
ATOM     21  C   UNL     1       5.598  -5.265  28.083  0.00  0.00    +0.002 A 
ATOM     22  C   UNL     1       4.779  -4.153  28.119  0.00  0.00    +0.001 A 
ATOM     23  C   UNL     1       5.189  -2.989  27.477  0.00  0.00    +0.015 A 
BRANCH  19  24
ATOM     24  N   UNL     1       8.596  -3.949  26.251  0.00  0.00    -0.339 N 
ATOM     25  H   UNL     1       8.931  -2.982  26.247  0.00  0.00    +0.146 HD
BRANCH  24  26
ATOM     26  C   UNL     1       8.727  -4.550  24.918  0.00  0.00    +0.138 C 
BRANCH  26  27
ATOM     27  C   UNL     1       8.824  -3.459  23.890  0.00  0.00    -0.014 A 
ATOM     28  C   UNL     1      10.004  -2.605  23.908  0.00  0.00    +0.012 A 
ATOM     29  C   UNL     1      10.166  -1.624  23.013  0.00  0.00    +0.070 A 
ATOM     30  C   UNL     1       9.140  -1.417  21.960  0.00  0.00    +0.249 A 
ATOM     31  O   UNL     1       9.262  -0.536  21.121  0.00  0.00    -0.268 OA
ATOM     32  N   UNL     1       8.074  -2.285  21.986  0.00  0.00    -0.329 N 
ATOM     33  H   UNL     1       7.389  -2.149  21.253  0.00  0.00    +0.168 HD
ATOM     34  C   UNL     1       7.912  -3.276  22.917  0.00  0.00    +0.091 A 
ENDBRANCH  26  27
ENDBRANCH  24  26
ENDBRANCH  19  24
ENDBRANCH   3  18
TORSDOF 8
ENDMDL
MODEL 7
REMARK VINA RESULT:      -6.8      3.189      7.093
REMARK  Name = 
REMARK  9 active torsions:
REMARK  status: ('A' for Active; 'I' for Inactive)
REMARK    1  A    between atoms: C_1  and  C_2
REMARK    2  A    between atoms: C_2  and  C_3
REMARK    3  A    between atoms: C_3  and  C_4
REMARK    4  A    between atoms: C_7  and  N_8
REMARK    5  A    between atoms: C_9  and  C_11
REMARK    6  A    between atoms: C_16  and  N_17
REMARK    7  A    between atoms: N_17  and  C_18
REMARK    8  A    between atoms: C_18  and  C_19
REMARK    9  A    between atoms: C_27  and  C_28
REMARK                            x       y       z     vdW  Elec       q    Type
REMARK                         _______ _______ _______ _____ _____    ______ ____
ROOT
ATOM      1  N   UNL     1       6.538   0.060  23.368  0.00  0.00    -0.281 N 
ATOM      2  H   UNL     1       6.439  -0.409  22.472  0.00  0.00    +0.155 HD
ATOM      3  C   UNL     1       6.681  -0.759  24.480  0.00  0.00    +0.250 C 
ATOM      4  O   UNL     1       6.956  -0.356  25.612  0.00  0.00    -0.270 OA
ENDROOT
BRANCH   1   8
ATOM      5  C   UNL     1       6.890   4.323  23.510  0.00  0.00    -0.036 A 
ATOM      6  C   UNL     1       7.047   3.554  24.686  0.00  0.00    +0.060 A 
ATOM      7  C   UNL     1       6.977   2.130  24.602  0.00  0.00    +0.036 A 
ATOM      8  C   UNL     1       6.745   1.470  23.389  0.00  0.00    +0.034 A 
ATOM      9  C   UNL     1       6.697   2.251  22.234  0.00  0.00    +0.023 A 
ATOM     10  C   UNL     1       6.764   3.645  22.290  0.00  0.00    +0.006 A 
BRANCH   6  11
ATOM     11  C   UNL     1       7.255   4.152  26.063  0.00  0.00    +0.418 C 
ATOM     12  F   UNL     1       7.423   3.190  27.016  0.00  0.00    -0.166 F 
ATOM     13  F   UNL     1       6.176   4.882  26.471  0.00  0.00    -0.166 F 
ATOM     14  F   UNL     1       8.326   4.979  26.197  0.00  0.00    -0.166 F 
ENDBRANCH   6  11
BRANCH   5  15
ATOM     15  C   UNL     1       6.819   5.835  23.466  0.00  0.00    +0.035 C 
BRANCH  15  17
ATOM     16  C   UNL     1       9.276   6.381  23.382  0.00  0.00    +0.004 C 
ATOM     17  C   UNL     1       7.944   6.471  22.650  0.00  0.00    +0.001 C 
ENDBRANCH  15  17
ENDBRANCH   5  15
ENDBRANCH   1   8
BRANCH   3  18
ATOM     18  C   UNL     1       6.572  -2.243  24.327  0.00  0.00    +0.058 A 
ATOM     19  C   UNL     1       7.631  -3.172  24.394  0.00  0.00    +0.040 A 
ATOM     20  C   UNL     1       7.347  -4.503  24.008  0.00  0.00    +0.024 A 
ATOM     21  C   UNL     1       6.058  -4.928  23.671  0.00  0.00    +0.002 A 
ATOM     22  C   UNL     1       5.010  -4.028  23.703  0.00  0.00    +0.001 A 
ATOM     23  C   UNL     1       5.268  -2.697  24.015  0.00  0.00    +0.015 A 
BRANCH  19  24
ATOM     24  N   UNL     1       8.939  -2.784  24.758  0.00  0.00    -0.339 N 
ATOM     25  H   UNL     1       8.892  -1.981  25.390  0.00  0.00    +0.146 HD
BRANCH  24  26
ATOM     26  C   UNL     1       9.883  -2.528  23.662  0.00  0.00    +0.138 C 
BRANCH  26  27
ATOM     27  C   UNL     1      10.008  -1.046  23.451  0.00  0.00    -0.014 A 
ATOM     28  C   UNL     1      10.312  -0.214  24.608  0.00  0.00    +0.012 A 
ATOM     29  C   UNL     1      10.453   1.111  24.493  0.00  0.00    +0.070 A 
ATOM     30  C   UNL     1      10.329   1.747  23.158  0.00  0.00    +0.249 A 
ATOM     31  O   UNL     1      10.463   2.955  23.015  0.00  0.00    -0.268 OA
ATOM     32  N   UNL     1      10.078   0.893  22.110  0.00  0.00    -0.329 N 
ATOM     33  H   UNL     1      10.014   1.333  21.201  0.00  0.00    +0.168 HD
ATOM     34  C   UNL     1       9.919  -0.461  22.243  0.00  0.00    +0.091 A 
ENDBRANCH  26  27
ENDBRANCH  24  26
ENDBRANCH  19  24
ENDBRANCH   3  18
TORSDOF 8
ENDMDL
MODEL 8
REMARK VINA RESULT:      -6.7      4.060      8.038
REMARK  Name = 
REMARK  9 active torsions:
REMARK  status: ('A' for Active; 'I' for Inactive)
REMARK    1  A    between atoms: C_1  and  C_2
REMARK    2  A    between atoms: C_2  and  C_3
REMARK    3  A    between atoms: C_3  and  C_4
REMARK    4  A    between atoms: C_7  and  N_8
REMARK    5  A    between atoms: C_9  and  C_11
REMARK    6  A    between atoms: C_16  and  N_17
REMARK    7  A    between atoms: N_17  and  C_18
REMARK    8  A    between atoms: C_18  and  C_19
REMARK    9  A    between atoms: C_27  and  C_28
REMARK                            x       y       z     vdW  Elec       q    Type
REMARK                         _______ _______ _______ _____ _____    ______ ____
ROOT
ATOM      1  N   UNL     1       8.388  -0.310  22.810  0.00  0.00    -0.281 N 
ATOM      2  H   UNL     1       9.062  -0.883  22.309  0.00  0.00    +0.155 HD
ATOM      3  C   UNL     1       7.279  -0.968  23.324  0.00  0.00    +0.250 C 
ATOM      4  O   UNL     1       6.448  -0.453  24.075  0.00  0.00    -0.270 OA
ENDROOT
BRANCH   1   8
ATOM      5  C   UNL     1       9.488   3.767  23.504  0.00  0.00    -0.036 A 
ATOM      6  C   UNL     1       8.190   3.446  23.042  0.00  0.00    +0.060 A 
ATOM      7  C   UNL     1       7.832   2.074  22.870  0.00  0.00    +0.036 A 
ATOM      8  C   UNL     1       8.733   1.035  23.132  0.00  0.00    +0.034 A 
ATOM      9  C   UNL     1       9.967   1.381  23.682  0.00  0.00    +0.023 A 
ATOM     10  C   UNL     1      10.340   2.715  23.863  0.00  0.00    +0.006 A 
BRANCH   6  11
ATOM     11  C   UNL     1       7.145   4.482  22.680  0.00  0.00    +0.418 C 
ATOM     12  F   UNL     1       7.592   5.341  21.719  0.00  0.00    -0.166 F 
ATOM     13  F   UNL     1       6.815   5.269  23.745  0.00  0.00    -0.166 F 
ATOM     14  F   UNL     1       5.966   3.998  22.206  0.00  0.00    -0.166 F 
ENDBRANCH   6  11
BRANCH   5  15
ATOM     15  C   UNL     1      10.044   5.171  23.618  0.00  0.00    +0.035 C 
BRANCH  15  17
ATOM     16  C   UNL     1      12.108   6.343  24.463  0.00  0.00    +0.004 C 
ATOM     17  C   UNL     1      11.572   5.222  23.584  0.00  0.00    +0.001 C 
ENDBRANCH  15  17
ENDBRANCH   5  15
ENDBRANCH   1   8
BRANCH   3  18
ATOM     18  C   UNL     1       7.077  -2.422  23.030  0.00  0.00    +0.058 A 
ATOM     19  C   UNL     1       7.923  -3.481  23.420  0.00  0.00    +0.040 A 
ATOM     20  C   UNL     1       7.665  -4.753  22.857  0.00  0.00    +0.024 A 
ATOM     21  C   UNL     1       6.565  -4.998  22.029  0.00  0.00    +0.002 A 
ATOM     22  C   UNL     1       5.688  -3.972  21.732  0.00  0.00    +0.001 A 
ATOM     23  C   UNL     1       5.950  -2.695  22.219  0.00  0.00    +0.015 A 
BRANCH  19  24
ATOM     24  N   UNL     1       9.026  -3.275  24.277  0.00  0.00    -0.339 N 
ATOM     25  H   UNL     1       9.583  -4.132  24.326  0.00  0.00    +0.146 HD
BRANCH  24  26
ATOM     26  C   UNL     1       8.734  -2.767  25.623  0.00  0.00    +0.138 C 
BRANCH  26  27
ATOM     27  C   UNL     1       8.039  -3.837  26.416  0.00  0.00    -0.014 A 
ATOM     28  C   UNL     1       6.689  -3.567  26.895  0.00  0.00    +0.012 A 
ATOM     29  C   UNL     1       6.004  -4.478  27.593  0.00  0.00    +0.070 A 
ATOM     30  C   UNL     1       6.614  -5.805  27.862  0.00  0.00    +0.249 A 
ATOM     31  O   UNL     1       6.011  -6.665  28.489  0.00  0.00    -0.268 OA
ATOM     32  N   UNL     1       7.874  -5.998  27.348  0.00  0.00    -0.329 N 
ATOM     33  H   UNL     1       8.275  -6.911  27.520  0.00  0.00    +0.168 HD
ATOM     34  C   UNL     1       8.573  -5.050  26.648  0.00  0.00    +0.091 A 
ENDBRANCH  26  27
ENDBRANCH  24  26
ENDBRANCH  19  24
ENDBRANCH   3  18
TORSDOF 8
ENDMDL
MODEL 9
REMARK VINA RESULT:      -6.7      1.903      2.443
REMARK  Name = 
REMARK  9 active torsions:
REMARK  status: ('A' for Active; 'I' for Inactive)
REMARK    1  A    between atoms: C_1  and  C_2
REMARK    2  A    between atoms: C_2  and  C_3
REMARK    3  A    between atoms: C_3  and  C_4
REMARK    4  A    between atoms: C_7  and  N_8
REMARK    5  A    between atoms: C_9  and  C_11
REMARK    6  A    between atoms: C_16  and  N_17
REMARK    7  A    between atoms: N_17  and  C_18
REMARK    8  A    between atoms: C_18  and  C_19
REMARK    9  A    between atoms: C_27  and  C_28
REMARK                            x       y       z     vdW  Elec       q    Type
REMARK                         _______ _______ _______ _____ _____    ______ ____
ROOT
ATOM      1  N   UNL     1       6.649  -0.213  25.490  0.00  0.00    -0.281 N 
ATOM      2  H   UNL     1       6.945  -0.155  26.461  0.00  0.00    +0.155 HD
ATOM      3  C   UNL     1       6.518   0.992  24.812  0.00  0.00    +0.250 C 
ATOM      4  O   UNL     1       6.311   1.092  23.601  0.00  0.00    -0.270 OA
ENDROOT
BRANCH   1   8
ATOM      5  C   UNL     1       6.545  -4.161  23.842  0.00  0.00    -0.036 A 
ATOM      6  C   UNL     1       5.350  -3.529  24.258  0.00  0.00    +0.060 A 
ATOM      7  C   UNL     1       5.407  -2.191  24.755  0.00  0.00    +0.036 A 
ATOM      8  C   UNL     1       6.613  -1.488  24.856  0.00  0.00    +0.034 A 
ATOM      9  C   UNL     1       7.756  -2.102  24.343  0.00  0.00    +0.023 A 
ATOM     10  C   UNL     1       7.727  -3.409  23.850  0.00  0.00    +0.006 A 
BRANCH   6  11
ATOM     11  C   UNL     1       3.992  -4.200  24.242  0.00  0.00    +0.418 C 
ATOM     12  F   UNL     1       3.598  -4.520  22.975  0.00  0.00    -0.166 F 
ATOM     13  F   UNL     1       3.013  -3.385  24.730  0.00  0.00    -0.166 F 
ATOM     14  F   UNL     1       3.890  -5.357  24.949  0.00  0.00    -0.166 F 
ENDBRANCH   6  11
BRANCH   5  15
ATOM     15  C   UNL     1       6.655  -5.608  23.411  0.00  0.00    +0.035 C 
BRANCH  15  17
ATOM     16  C   UNL     1       6.129  -5.670  20.948  0.00  0.00    +0.004 C 
ATOM     17  C   UNL     1       7.223  -5.779  22.001  0.00  0.00    +0.001 C 
ENDBRANCH  15  17
ENDBRANCH   5  15
ENDBRANCH   1   8
BRANCH   3  18
ATOM     18  C   UNL     1       6.703   2.281  25.549  0.00  0.00    +0.058 A 
ATOM     19  C   UNL     1       7.370   3.429  25.074  0.00  0.00    +0.040 A 
ATOM     20  C   UNL     1       7.620   4.463  26.008  0.00  0.00    +0.024 A 
ATOM     21  C   UNL     1       7.144   4.417  27.322  0.00  0.00    +0.002 A 
ATOM     22  C   UNL     1       6.407   3.328  27.747  0.00  0.00    +0.001 A 
ATOM     23  C   UNL     1       6.200   2.267  26.872  0.00  0.00    +0.015 A 
BRANCH  19  24
ATOM     24  N   UNL     1       7.840   3.521  23.746  0.00  0.00    -0.339 N 
ATOM     25  H   UNL     1       7.353   2.833  23.165  0.00  0.00    +0.146 HD
BRANCH  24  26
ATOM     26  C   UNL     1       9.292   3.431  23.549  0.00  0.00    +0.138 C 
BRANCH  26  27
ATOM     27  C   UNL     1       9.668   2.003  23.271  0.00  0.00    -0.014 A 
ATOM     28  C   UNL     1       9.364   1.459  21.954  0.00  0.00    +0.012 A 
ATOM     29  C   UNL     1       9.684   0.201  21.631  0.00  0.00    +0.070 A 
ATOM     30  C   UNL     1      10.389  -0.652  22.620  0.00  0.00    +0.249 A 
ATOM     31  O   UNL     1      10.704  -1.803  22.354  0.00  0.00    -0.268 OA
ATOM     32  N   UNL     1      10.673  -0.058  23.827  0.00  0.00    -0.329 N 
ATOM     33  H   UNL     1      11.171  -0.640  24.488  0.00  0.00    +0.168 HD
ATOM     34  C   UNL     1      10.326   1.227  24.152  0.00  0.00    +0.091 A 
ENDBRANCH  26  27
ENDBRANCH  24  26
ENDBRANCH  19  24
ENDBRANCH   3  18
TORSDOF 8
ENDMDL
