MODEL 1
REMARK VINA RESULT:      -6.6      0.000      0.000
REMARK  Name = 
REMARK  9 active torsions:
REMARK  status: ('A' for Active; 'I' for Inactive)
REMARK    1  A    between atoms: C_1  and  O_2
REMARK    2  A    between atoms: O_2  and  C_3
REMARK    3  A    between atoms: C_4  and  C_21
REMARK    4  A    between atoms: C_9  and  C_10
REMARK    5  A    between atoms: C_10  and  N_12
REMARK    6  A    between atoms: N_12  and  C_13
REMARK    7  A    between atoms: N_12  and  C_14
REMARK    8  A    between atoms: C_14  and  C_15
REMARK    9  A    between atoms: C_15  and  O_16
REMARK                            x       y       z     vdW  Elec       q    Type
REMARK                         _______ _______ _______ _____ _____    ______ ____
ROOT
ATOM      1  C   UNL     1       9.058   0.973  24.233  0.00  0.00    +0.132 A 
ATOM      2  C   UNL     1       8.676   0.494  25.477  0.00  0.00    +0.047 A 
ATOM      3  C   UNL     1       7.957  -0.703  25.601  0.00  0.00    +0.013 A 
ATOM      4  C   UNL     1       7.643  -1.548  24.510  0.00  0.00    -0.008 A 
ATOM      5  C   UNL     1       8.028  -1.021  23.225  0.00  0.00    -0.002 A 
ATOM      6  C   UNL     1       7.711  -1.779  22.087  0.00  0.00    +0.009 A 
ATOM      7  C   UNL     1       7.219  -3.070  22.182  0.00  0.00    +0.001 A 
ATOM      8  C   UNL     1       6.976  -3.628  23.429  0.00  0.00    +0.011 A 
ATOM      9  C   UNL     1       7.029  -2.873  24.601  0.00  0.00    +0.011 A 
ATOM     10  C   UNL     1       8.741   0.227  23.092  0.00  0.00    +0.104 A 
ENDROOT
BRANCH  10  11
ATOM     11  C   UNL     1       9.186   0.714  21.719  0.00  0.00    +0.421 C 
ATOM     12  F   UNL     1       9.481  -0.324  20.877  0.00  0.00    -0.166 F 
ATOM     13  F   UNL     1      10.331   1.462  21.781  0.00  0.00    -0.166 F 
ATOM     14  F   UNL     1       8.309   1.487  21.018  0.00  0.00    -0.166 F 
ENDBRANCH  10  11
BRANCH   1  16
ATOM     15  C   UNL     1       9.119   3.346  24.339  0.00  0.00    +0.277 C 
ATOM     16  O   UNL     1       9.792   2.117  24.079  0.00  0.00    -0.495 OA
ENDBRANCH   1  16
BRANCH   9  17
ATOM     17  C   UNL     1       6.527  -3.553  25.908  0.00  0.00    +0.083 C 
ATOM     18  S   UNL     1       4.938  -3.289  26.449  0.00  0.00    -0.035 S 
BRANCH  17  19
ATOM     19  N   UNL     1       7.387  -4.384  26.702  0.00  0.00    -0.316 N 
ATOM     20  C   UNL     1       6.967  -5.546  27.501  0.00  0.00    +0.130 C 
BRANCH  19  21
ATOM     21  C   UNL     1       8.878  -4.281  26.637  0.00  0.00    +0.225 C 
BRANCH  21  22
ATOM     22  C   UNL     1       9.675  -4.945  25.508  0.00  0.00    +0.322 C 
ATOM     23  O   UNL     1      10.140  -4.309  24.564  0.00  0.00    -0.249 OA
BRANCH  22  24
ATOM     24  O   UNL     1       9.745  -6.294  25.555  0.00  0.00    -0.480 OA
ATOM     25  H   UNL     1       8.917  -6.707  25.220  0.00  0.00    +0.295 HD
ENDBRANCH  22  24
ENDBRANCH  21  22
ENDBRANCH  19  21
ENDBRANCH  17  19
ENDBRANCH   9  17
TORSDOF 7
ENDMDL
MODEL 2
REMARK VINA RESULT:      -6.6      1.779      2.331
REMARK  Name = 
REMARK  9 active torsions:
REMARK  status: ('A' for Active; 'I' for Inactive)
REMARK    1  A    between atoms: C_1  and  O_2
REMARK    2  A    between atoms: O_2  and  C_3
REMARK    3  A    between atoms: C_4  and  C_21
REMARK    4  A    between atoms: C_9  and  C_10
REMARK    5  A    between atoms: C_10  and  N_12
REMARK    6  A    between atoms: N_12  and  C_13
REMARK    7  A    between atoms: N_12  and  C_14
REMARK    8  A    between atoms: C_14  and  C_15
REMARK    9  A    between atoms: C_15  and  O_16
REMARK                            x       y       z     vdW  Elec       q    Type
REMARK                         _______ _______ _______ _____ _____    ______ ____
ROOT
ATOM      1  C   UNL     1       8.266   2.201  24.792  0.00  0.00    +0.132 A 
ATOM      2  C   UNL     1       7.260   1.374  25.268  0.00  0.00    +0.047 A 
ATOM      3  C   UNL     1       7.085   0.080  24.754  0.00  0.00    +0.013 A 
ATOM      4  C   UNL     1       7.945  -0.509  23.797  0.00  0.00    -0.008 A 
ATOM      5  C   UNL     1       8.968   0.376  23.300  0.00  0.00    -0.002 A 
ATOM      6  C   UNL     1       9.836  -0.119  22.313  0.00  0.00    +0.009 A 
ATOM      7  C   UNL     1       9.849  -1.457  21.955  0.00  0.00    +0.001 A 
ATOM      8  C   UNL     1       8.949  -2.338  22.538  0.00  0.00    +0.011 A 
ATOM      9  C   UNL     1       7.896  -1.898  23.341  0.00  0.00    +0.011 A 
ATOM     10  C   UNL     1       9.132   1.719  23.804  0.00  0.00    +0.104 A 
ENDROOT
BRANCH  10  11
ATOM     11  C   UNL     1      10.269   2.596  23.296  0.00  0.00    +0.421 C 
ATOM     12  F   UNL     1      10.540   2.371  21.974  0.00  0.00    -0.166 F 
ATOM     13  F   UNL     1      11.445   2.349  23.951  0.00  0.00    -0.166 F 
ATOM     14  F   UNL     1      10.102   3.946  23.387  0.00  0.00    -0.166 F 
ENDBRANCH  10  11
BRANCH   1  16
ATOM     15  C   UNL     1       7.495   3.970  26.178  0.00  0.00    +0.277 C 
ATOM     16  O   UNL     1       8.488   3.453  25.297  0.00  0.00    -0.495 OA
ENDBRANCH   1  16
BRANCH   9  17
ATOM     17  C   UNL     1       6.830  -2.953  23.757  0.00  0.00    +0.083 C 
ATOM     18  S   UNL     1       5.533  -3.309  22.719  0.00  0.00    -0.035 S 
BRANCH  17  19
ATOM     19  N   UNL     1       6.890  -3.623  25.026  0.00  0.00    -0.316 N 
ATOM     20  C   UNL     1       6.055  -3.326  26.200  0.00  0.00    +0.130 C 
BRANCH  19  21
ATOM     21  C   UNL     1       7.690  -4.870  25.231  0.00  0.00    +0.225 C 
BRANCH  21  22
ATOM     22  C   UNL     1       9.153  -4.814  25.689  0.00  0.00    +0.322 C 
ATOM     23  O   UNL     1      10.094  -4.837  24.898  0.00  0.00    -0.249 OA
BRANCH  22  24
ATOM     24  O   UNL     1       9.351  -4.847  27.025  0.00  0.00    -0.480 OA
ATOM     25  H   UNL     1       8.600  -5.283  27.488  0.00  0.00    +0.295 HD
ENDBRANCH  22  24
ENDBRANCH  21  22
ENDBRANCH  19  21
ENDBRANCH  17  19
ENDBRANCH   9  17
TORSDOF 7
ENDMDL
MODEL 3
REMARK VINA RESULT:      -6.5      3.624      6.446
REMARK  Name = 
REMARK  9 active torsions:
REMARK  status: ('A' for Active; 'I' for Inactive)
REMARK    1  A    between atoms: C_1  and  O_2
REMARK    2  A    between atoms: O_2  and  C_3
REMARK    3  A    between atoms: C_4  and  C_21
REMARK    4  A    between atoms: C_9  and  C_10
REMARK    5  A    between atoms: C_10  and  N_12
REMARK    6  A    between atoms: N_12  and  C_13
REMARK    7  A    between atoms: N_12  and  C_14
REMARK    8  A    between atoms: C_14  and  C_15
REMARK    9  A    between atoms: C_15  and  O_16
REMARK                            x       y       z     vdW  Elec       q    Type
REMARK                         _______ _______ _______ _____ _____    ______ ____
ROOT
ATOM      1  C   UNL     1       7.333  -4.264  23.464  0.00  0.00    +0.132 A 
ATOM      2  C   UNL     1       6.730  -3.297  22.674  0.00  0.00    +0.047 A 
ATOM      3  C   UNL     1       6.672  -1.958  23.086  0.00  0.00    +0.013 A 
ATOM      4  C   UNL     1       7.282  -1.473  24.268  0.00  0.00    -0.008 A 
ATOM      5  C   UNL     1       7.882  -2.497  25.086  0.00  0.00    -0.002 A 
ATOM      6  C   UNL     1       8.468  -2.102  26.299  0.00  0.00    +0.009 A 
ATOM      7  C   UNL     1       8.644  -0.768  26.627  0.00  0.00    +0.001 A 
ATOM      8  C   UNL     1       8.184   0.221  25.769  0.00  0.00    +0.011 A 
ATOM      9  C   UNL     1       7.379  -0.069  24.667  0.00  0.00    +0.011 A 
ATOM     10  C   UNL     1       7.915  -3.881  24.678  0.00  0.00    +0.104 A 
ENDROOT
BRANCH  10  11
ATOM     11  C   UNL     1       8.618  -4.919  25.544  0.00  0.00    +0.421 C 
ATOM     12  F   UNL     1       9.480  -5.695  24.817  0.00  0.00    -0.166 F 
ATOM     13  F   UNL     1       7.737  -5.798  26.115  0.00  0.00    -0.166 F 
ATOM     14  F   UNL     1       9.366  -4.457  26.585  0.00  0.00    -0.166 F 
ENDBRANCH  10  11
BRANCH   1  16
ATOM     15  C   UNL     1       6.985  -5.884  21.761  0.00  0.00    +0.277 C 
ATOM     16  O   UNL     1       7.439  -5.571  23.075  0.00  0.00    -0.495 OA
ENDBRANCH   1  16
BRANCH   9  17
ATOM     17  C   UNL     1       6.749   1.136  23.910  0.00  0.00    +0.083 C 
ATOM     18  S   UNL     1       5.343   1.878  24.510  0.00  0.00    -0.035 S 
BRANCH  17  19
ATOM     19  N   UNL     1       7.308   1.629  22.683  0.00  0.00    -0.316 N 
ATOM     20  C   UNL     1       6.982   2.911  22.039  0.00  0.00    +0.130 C 
BRANCH  19  21
ATOM     21  C   UNL     1       8.471   0.967  22.014  0.00  0.00    +0.225 C 
BRANCH  21  22
ATOM     22  C   UNL     1       9.914   1.385  22.323  0.00  0.00    +0.322 C 
ATOM     23  O   UNL     1      10.565   0.886  23.238  0.00  0.00    -0.249 OA
BRANCH  22  24
ATOM     24  O   UNL     1      10.394   2.417  21.594  0.00  0.00    -0.480 OA
ATOM     25  H   UNL     1       9.906   3.249  21.788  0.00  0.00    +0.295 HD
ENDBRANCH  22  24
ENDBRANCH  21  22
ENDBRANCH  19  21
ENDBRANCH  17  19
ENDBRANCH   9  17
TORSDOF 7
ENDMDL
MODEL 4
REMARK VINA RESULT:      -6.4      4.134      6.734
REMARK  Name = 
REMARK  9 active torsions:
REMARK  status: ('A' for Active; 'I' for Inactive)
REMARK    1  A    between atoms: C_1  and  O_2
REMARK    2  A    between atoms: O_2  and  C_3
REMARK    3  A    between atoms: C_4  and  C_21
REMARK    4  A    between atoms: C_9  and  C_10
REMARK    5  A    between atoms: C_10  and  N_12
REMARK    6  A    between atoms: N_12  and  C_13
REMARK    7  A    between atoms: N_12  and  C_14
REMARK    8  A    between atoms: C_14  and  C_15
REMARK    9  A    between atoms: C_15  and  O_16
REMARK                            x       y       z     vdW  Elec       q    Type
REMARK                         _______ _______ _______ _____ _____    ______ ____
ROOT
ATOM      1  C   UNL     1       6.312  -5.625  26.437  0.00  0.00    +0.132 A 
ATOM      2  C   UNL     1       7.226  -4.679  26.878  0.00  0.00    +0.047 A 
ATOM      3  C   UNL     1       7.580  -3.586  26.074  0.00  0.00    +0.013 A 
ATOM      4  C   UNL     1       6.990  -3.311  24.817  0.00  0.00    -0.008 A 
ATOM      5  C   UNL     1       6.061  -4.317  24.369  0.00  0.00    -0.002 A 
ATOM      6  C   UNL     1       5.466  -4.141  23.109  0.00  0.00    +0.009 A 
ATOM      7  C   UNL     1       5.604  -2.963  22.393  0.00  0.00    +0.001 A 
ATOM      8  C   UNL     1       6.394  -1.938  22.894  0.00  0.00    +0.011 A 
ATOM      9  C   UNL     1       7.213  -2.111  24.011  0.00  0.00    +0.011 A 
ATOM     10  C   UNL     1       5.719  -5.460  25.180  0.00  0.00    +0.104 A 
ENDROOT
BRANCH  10  11
ATOM     11  C   UNL     1       4.682  -6.465  24.693  0.00  0.00    +0.421 C 
ATOM     12  F   UNL     1       4.455  -7.455  25.610  0.00  0.00    -0.166 F 
ATOM     13  F   UNL     1       5.085  -7.114  23.557  0.00  0.00    -0.166 F 
ATOM     14  F   UNL     1       3.443  -5.984  24.392  0.00  0.00    -0.166 F 
ENDBRANCH  10  11
BRANCH   1  16
ATOM     15  C   UNL     1       5.644  -6.403  28.580  0.00  0.00    +0.277 C 
ATOM     16  O   UNL     1       5.918  -6.682  27.210  0.00  0.00    -0.495 OA
ENDBRANCH   1  16
BRANCH   9  17
ATOM     17  C   UNL     1       8.211  -0.964  24.345  0.00  0.00    +0.083 C 
ATOM     18  S   UNL     1       7.764   0.263  25.432  0.00  0.00    -0.035 S 
BRANCH  17  19
ATOM     19  N   UNL     1       9.507  -0.891  23.731  0.00  0.00    -0.316 N 
ATOM     20  C   UNL     1      10.317  -2.036  23.287  0.00  0.00    +0.130 C 
BRANCH  19  21
ATOM     21  C   UNL     1      10.100   0.403  23.273  0.00  0.00    +0.225 C 
BRANCH  21  22
ATOM     22  C   UNL     1       9.758   0.997  21.901  0.00  0.00    +0.322 C 
ATOM     23  O   UNL     1       9.171   0.356  21.031  0.00  0.00    -0.249 OA
BRANCH  22  24
ATOM     24  O   UNL     1      10.239   2.237  21.663  0.00  0.00    -0.480 OA
ATOM     25  H   UNL     1       9.690   2.924  22.103  0.00  0.00    +0.295 HD
ENDBRANCH  22  24
ENDBRANCH  21  22
ENDBRANCH  19  21
ENDBRANCH  17  19
ENDBRANCH   9  17
TORSDOF 7
ENDMDL
MODEL 5
REMARK VINA RESULT:      -6.4      2.361      3.066
REMARK  Name = 
REMARK  9 active torsions:
REMARK  status: ('A' for Active; 'I' for Inactive)
REMARK    1  A    between atoms: C_1  and  O_2
REMARK    2  A    between atoms: O_2  and  C_3
REMARK    3  A    between atoms: C_4  and  C_21
REMARK    4  A    between atoms: C_9  and  C_10
REMARK    5  A    between atoms: C_10  and  N_12
REMARK    6  A    between atoms: N_12  and  C_13
REMARK    7  A    between atoms: N_12  and  C_14
REMARK    8  A    between atoms: C_14  and  C_15
REMARK    9  A    between atoms: C_15  and  O_16
REMARK                            x       y       z     vdW  Elec       q    Type
REMARK                         _______ _______ _______ _____ _____    ______ ____
ROOT
ATOM      1  C   UNL     1       8.360   2.172  24.999  0.00  0.00    +0.132 A 
ATOM      2  C   UNL     1       7.501   1.299  25.650  0.00  0.00    +0.047 A 
ATOM      3  C   UNL     1       7.517  -0.075  25.370  0.00  0.00    +0.013 A 
ATOM      4  C   UNL     1       8.441  -0.687  24.489  0.00  0.00    -0.008 A 
ATOM      5  C   UNL     1       9.308   0.240  23.806  0.00  0.00    -0.002 A 
ATOM      6  C   UNL     1      10.224  -0.285  22.880  0.00  0.00    +0.009 A 
ATOM      7  C   UNL     1      10.434  -1.647  22.752  0.00  0.00    +0.001 A 
ATOM      8  C   UNL     1       9.690  -2.537  23.513  0.00  0.00    +0.011 A 
ATOM      9  C   UNL     1       8.596  -2.125  24.276  0.00  0.00    +0.011 A 
ATOM     10  C   UNL     1       9.272   1.659  24.070  0.00  0.00    +0.104 A 
ENDROOT
BRANCH  10  11
ATOM     11  C   UNL     1      10.253   2.593  23.373  0.00  0.00    +0.421 C 
ATOM     12  F   UNL     1      10.401   2.287  22.047  0.00  0.00    -0.166 F 
ATOM     13  F   UNL     1      11.513   2.510  23.903  0.00  0.00    -0.166 F 
ATOM     14  F   UNL     1       9.961   3.925  23.387  0.00  0.00    -0.166 F 
ENDBRANCH  10  11
BRANCH   1  16
ATOM     15  C   UNL     1       7.159   4.212  25.198  0.00  0.00    +0.277 C 
ATOM     16  O   UNL     1       8.397   3.511  25.276  0.00  0.00    -0.495 OA
ENDBRANCH   1  16
BRANCH   9  17
ATOM     17  C   UNL     1       7.711  -3.238  24.909  0.00  0.00    +0.083 C 
ATOM     18  S   UNL     1       8.116  -3.888  26.426  0.00  0.00    -0.035 S 
BRANCH  17  19
ATOM     19  N   UNL     1       6.563  -3.766  24.227  0.00  0.00    -0.316 N 
ATOM     20  C   UNL     1       5.514  -2.975  23.564  0.00  0.00    +0.130 C 
BRANCH  19  21
ATOM     21  C   UNL     1       6.413  -5.224  23.928  0.00  0.00    +0.225 C 
BRANCH  21  22
ATOM     22  C   UNL     1       6.359  -5.742  22.486  0.00  0.00    +0.322 C 
ATOM     23  O   UNL     1       7.296  -5.609  21.701  0.00  0.00    -0.249 OA
BRANCH  22  24
ATOM     24  O   UNL     1       5.175  -6.259  22.092  0.00  0.00    -0.480 OA
ATOM     25  H   UNL     1       5.214  -7.240  22.035  0.00  0.00    +0.295 HD
ENDBRANCH  22  24
ENDBRANCH  21  22
ENDBRANCH  19  21
ENDBRANCH  17  19
ENDBRANCH   9  17
TORSDOF 7
ENDMDL
MODEL 6
REMARK VINA RESULT:      -6.3      2.706      3.292
REMARK  Name = 
REMARK  9 active torsions:
REMARK  status: ('A' for Active; 'I' for Inactive)
REMARK    1  A    between atoms: C_1  and  O_2
REMARK    2  A    between atoms: O_2  and  C_3
REMARK    3  A    between atoms: C_4  and  C_21
REMARK    4  A    between atoms: C_9  and  C_10
REMARK    5  A    between atoms: C_10  and  N_12
REMARK    6  A    between atoms: N_12  and  C_13
REMARK    7  A    between atoms: N_12  and  C_14
REMARK    8  A    between atoms: C_14  and  C_15
REMARK    9  A    between atoms: C_15  and  O_16
REMARK                            x       y       z     vdW  Elec       q    Type
REMARK                         _______ _______ _______ _____ _____    ______ ____
ROOT
ATOM      1  C   UNL     1       6.760   1.464  23.678  0.00  0.00    +0.132 A 
ATOM      2  C   UNL     1       6.093   0.449  24.348  0.00  0.00    +0.047 A 
ATOM      3  C   UNL     1       6.628  -0.845  24.420  0.00  0.00    +0.013 A 
ATOM      4  C   UNL     1       7.898  -1.199  23.905  0.00  0.00    -0.008 A 
ATOM      5  C   UNL     1       8.563  -0.138  23.192  0.00  0.00    -0.002 A 
ATOM      6  C   UNL     1       9.810  -0.424  22.612  0.00  0.00    +0.009 A 
ATOM      7  C   UNL     1      10.479  -1.610  22.862  0.00  0.00    +0.001 A 
ATOM      8  C   UNL     1       9.892  -2.579  23.663  0.00  0.00    +0.011 A 
ATOM      9  C   UNL     1       8.564  -2.490  24.083  0.00  0.00    +0.011 A 
ATOM     10  C   UNL     1       8.000   1.187  23.091  0.00  0.00    +0.104 A 
ENDROOT
BRANCH  10  11
ATOM     11  C   UNL     1       8.770   2.296  22.383  0.00  0.00    +0.421 C 
ATOM     12  F   UNL     1       9.374   3.146  23.269  0.00  0.00    -0.166 F 
ATOM     13  F   UNL     1       7.953   3.089  21.624  0.00  0.00    -0.166 F 
ATOM     14  F   UNL     1       9.767   1.917  21.535  0.00  0.00    -0.166 F 
ENDBRANCH  10  11
BRANCH   1  16
ATOM     15  C   UNL     1       4.936   2.905  23.191  0.00  0.00    +0.277 C 
ATOM     16  O   UNL     1       6.285   2.745  23.621  0.00  0.00    -0.495 OA
ENDBRANCH   1  16
BRANCH   9  17
ATOM     17  C   UNL     1       7.956  -3.736  24.790  0.00  0.00    +0.083 C 
ATOM     18  S   UNL     1       8.449  -4.146  26.363  0.00  0.00    -0.035 S 
BRANCH  17  19
ATOM     19  N   UNL     1       7.000  -4.582  24.133  0.00  0.00    -0.316 N 
ATOM     20  C   UNL     1       5.612  -4.811  24.563  0.00  0.00    +0.130 C 
BRANCH  19  21
ATOM     21  C   UNL     1       7.256  -5.177  22.785  0.00  0.00    +0.225 C 
BRANCH  21  22
ATOM     22  C   UNL     1       6.197  -5.127  21.677  0.00  0.00    +0.322 C 
ATOM     23  O   UNL     1       5.796  -4.070  21.192  0.00  0.00    -0.249 OA
BRANCH  22  24
ATOM     24  O   UNL     1       5.648  -6.314  21.337  0.00  0.00    -0.480 OA
ATOM     25  H   UNL     1       5.452  -6.355  20.374  0.00  0.00    +0.295 HD
ENDBRANCH  22  24
ENDBRANCH  21  22
ENDBRANCH  19  21
ENDBRANCH  17  19
ENDBRANCH   9  17
TORSDOF 7
ENDMDL
MODEL 7
REMARK VINA RESULT:      -6.2      2.408      3.075
REMARK  Name = 
REMARK  9 active torsions:
REMARK  status: ('A' for Active; 'I' for Inactive)
REMARK    1  A    between atoms: C_1  and  O_2
REMARK    2  A    between atoms: O_2  and  C_3
REMARK    3  A    between atoms: C_4  and  C_21
REMARK    4  A    between atoms: C_9  and  C_10
REMARK    5  A    between atoms: C_10  and  N_12
REMARK    6  A    between atoms: N_12  and  C_13
REMARK    7  A    between atoms: N_12  and  C_14
REMARK    8  A    between atoms: C_14  and  C_15
REMARK    9  A    between atoms: C_15  and  O_16
REMARK                            x       y       z     vdW  Elec       q    Type
REMARK                         _______ _______ _______ _____ _____    ______ ____
ROOT
ATOM      1  C   UNL     1       7.689  -0.074  23.197  0.00  0.00    +0.132 A 
ATOM      2  C   UNL     1       6.437  -0.447  23.664  0.00  0.00    +0.047 A 
ATOM      3  C   UNL     1       6.232  -1.700  24.260  0.00  0.00    +0.013 A 
ATOM      4  C   UNL     1       7.268  -2.631  24.509  0.00  0.00    -0.008 A 
ATOM      5  C   UNL     1       8.555  -2.233  23.996  0.00  0.00    -0.002 A 
ATOM      6  C   UNL     1       9.627  -3.124  24.163  0.00  0.00    +0.009 A 
ATOM      7  C   UNL     1       9.521  -4.257  24.952  0.00  0.00    +0.001 A 
ATOM      8  C   UNL     1       8.312  -4.566  25.559  0.00  0.00    +0.011 A 
ATOM      9  C   UNL     1       7.135  -3.880  25.257  0.00  0.00    +0.011 A 
ATOM     10  C   UNL     1       8.762  -0.958  23.354  0.00  0.00    +0.104 A 
ENDROOT
BRANCH  10  11
ATOM     11  C   UNL     1      10.154  -0.552  22.884  0.00  0.00    +0.421 C 
ATOM     12  F   UNL     1      10.863  -1.617  22.398  0.00  0.00    -0.166 F 
ATOM     13  F   UNL     1      10.917  -0.049  23.904  0.00  0.00    -0.166 F 
ATOM     14  F   UNL     1      10.230   0.389  21.902  0.00  0.00    -0.166 F 
ENDBRANCH  10  11
BRANCH   1  16
ATOM     15  C   UNL     1       7.812   2.278  23.512  0.00  0.00    +0.277 C 
ATOM     16  O   UNL     1       7.931   1.154  22.645  0.00  0.00    -0.495 OA
ENDBRANCH   1  16
BRANCH   9  17
ATOM     17  C   UNL     1       5.809  -4.456  25.834  0.00  0.00    +0.083 C 
ATOM     18  S   UNL     1       5.252  -3.950  27.357  0.00  0.00    -0.035 S 
BRANCH  17  19
ATOM     19  N   UNL     1       5.045  -5.443  25.123  0.00  0.00    -0.316 N 
ATOM     20  C   UNL     1       4.587  -6.733  25.662  0.00  0.00    +0.130 C 
BRANCH  19  21
ATOM     21  C   UNL     1       4.437  -5.168  23.784  0.00  0.00    +0.225 C 
BRANCH  21  22
ATOM     22  C   UNL     1       5.267  -5.259  22.498  0.00  0.00    +0.322 C 
ATOM     23  O   UNL     1       5.477  -4.285  21.777  0.00  0.00    -0.249 OA
BRANCH  22  24
ATOM     24  O   UNL     1       5.664  -6.501  22.143  0.00  0.00    -0.480 OA
ATOM     25  H   UNL     1       5.958  -7.020  22.925  0.00  0.00    +0.295 HD
ENDBRANCH  22  24
ENDBRANCH  21  22
ENDBRANCH  19  21
ENDBRANCH  17  19
ENDBRANCH   9  17
TORSDOF 7
ENDMDL
MODEL 8
REMARK VINA RESULT:      -6.2      3.796      6.333
REMARK  Name = 
REMARK  9 active torsions:
REMARK  status: ('A' for Active; 'I' for Inactive)
REMARK    1  A    between atoms: C_1  and  O_2
REMARK    2  A    between atoms: O_2  and  C_3
REMARK    3  A    between atoms: C_4  and  C_21
REMARK    4  A    between atoms: C_9  and  C_10
REMARK    5  A    between atoms: C_10  and  N_12
REMARK    6  A    between atoms: N_12  and  C_13
REMARK    7  A    between atoms: N_12  and  C_14
REMARK    8  A    between atoms: C_14  and  C_15
REMARK    9  A    between atoms: C_15  and  O_16
REMARK                            x       y       z     vdW  Elec       q    Type
REMARK                         _______ _______ _______ _____ _____    ______ ____
ROOT
ATOM      1  C   UNL     1       6.752  -4.106  23.471  0.00  0.00    +0.132 A 
ATOM      2  C   UNL     1       6.529  -3.040  22.614  0.00  0.00    +0.047 A 
ATOM      3  C   UNL     1       6.798  -1.722  23.012  0.00  0.00    +0.013 A 
ATOM      4  C   UNL     1       7.385  -1.381  24.255  0.00  0.00    -0.008 A 
ATOM      5  C   UNL     1       7.587  -2.501  25.139  0.00  0.00    -0.002 A 
ATOM      6  C   UNL     1       8.124  -2.240  26.410  0.00  0.00    +0.009 A 
ATOM      7  C   UNL     1       8.623  -0.995  26.751  0.00  0.00    +0.001 A 
ATOM      8  C   UNL     1       8.551   0.052  25.843  0.00  0.00    +0.011 A 
ATOM      9  C   UNL     1       7.821  -0.045  24.657  0.00  0.00    +0.011 A 
ATOM     10  C   UNL     1       7.281  -3.855  24.743  0.00  0.00    +0.104 A 
ENDROOT
BRANCH  10  11
ATOM     11  C   UNL     1       7.572  -5.015  25.686  0.00  0.00    +0.421 C 
ATOM     12  F   UNL     1       7.810  -4.590  26.965  0.00  0.00    -0.166 F 
ATOM     13  F   UNL     1       8.697  -5.707  25.324  0.00  0.00    -0.166 F 
ATOM     14  F   UNL     1       6.608  -5.970  25.815  0.00  0.00    -0.166 F 
ENDBRANCH  10  11
BRANCH   1  16
ATOM     15  C   UNL     1       7.190  -5.848  21.916  0.00  0.00    +0.277 C 
ATOM     16  O   UNL     1       6.536  -5.405  23.101  0.00  0.00    -0.495 OA
ENDBRANCH   1  16
BRANCH   9  17
ATOM     17  C   UNL     1       7.634   1.260  23.829  0.00  0.00    +0.083 C 
ATOM     18  S   UNL     1       6.085   1.928  23.631  0.00  0.00    -0.035 S 
BRANCH  17  19
ATOM     19  N   UNL     1       8.743   1.910  23.190  0.00  0.00    -0.316 N 
ATOM     20  C   UNL     1       9.485   3.067  23.714  0.00  0.00    +0.130 C 
BRANCH  19  21
ATOM     21  C   UNL     1       9.417   1.336  21.984  0.00  0.00    +0.225 C 
BRANCH  21  22
ATOM     22  C   UNL     1       9.915  -0.114  21.962  0.00  0.00    +0.322 C 
ATOM     23  O   UNL     1      10.669  -0.567  22.822  0.00  0.00    -0.249 OA
BRANCH  22  24
ATOM     24  O   UNL     1       9.562  -0.839  20.878  0.00  0.00    -0.480 OA
ATOM     25  H   UNL     1       9.133  -0.276  20.195  0.00  0.00    +0.295 HD
ENDBRANCH  22  24
ENDBRANCH  21  22
ENDBRANCH  19  21
ENDBRANCH  17  19
ENDBRANCH   9  17
TORSDOF 7
ENDMDL
MODEL 9
REMARK VINA RESULT:      -6.1      2.874      4.129
REMARK  Name = 
REMARK  9 active torsions:
REMARK  status: ('A' for Active; 'I' for Inactive)
REMARK    1  A    between atoms: C_1  and  O_2
REMARK    2  A    between atoms: O_2  and  C_3
REMARK    3  A    between atoms: C_4  and  C_21
REMARK    4  A    between atoms: C_9  and  C_10
REMARK    5  A    between atoms: C_10  and  N_12
REMARK    6  A    between atoms: N_12  and  C_13
REMARK    7  A    between atoms: N_12  and  C_14
REMARK    8  A    between atoms: C_14  and  C_15
REMARK    9  A    between atoms: C_15  and  O_16
REMARK                            x       y       z     vdW  Elec       q    Type
REMARK                         _______ _______ _______ _____ _____    ______ ____
ROOT
ATOM      1  C   UNL     1      10.502   4.038  23.564  0.00  0.00    +0.132 A 
ATOM      2  C   UNL     1      11.174   2.838  23.743  0.00  0.00    +0.047 A 
ATOM      3  C   UNL     1      10.474   1.638  23.929  0.00  0.00    +0.013 A 
ATOM      4  C   UNL     1       9.063   1.533  23.866  0.00  0.00    -0.008 A 
ATOM      5  C   UNL     1       8.385   2.794  23.703  0.00  0.00    -0.002 A 
ATOM      6  C   UNL     1       6.981   2.780  23.677  0.00  0.00    +0.009 A 
ATOM      7  C   UNL     1       6.262   1.598  23.617  0.00  0.00    +0.001 A 
ATOM      8  C   UNL     1       6.928   0.381  23.636  0.00  0.00    +0.011 A 
ATOM      9  C   UNL     1       8.295   0.289  23.904  0.00  0.00    +0.011 A 
ATOM     10  C   UNL     1       9.103   4.035  23.543  0.00  0.00    +0.104 A 
ENDROOT
BRANCH  10  11
ATOM     11  C   UNL     1       8.344   5.336  23.308  0.00  0.00    +0.421 C 
ATOM     12  F   UNL     1       7.541   5.660  24.367  0.00  0.00    -0.166 F 
ATOM     13  F   UNL     1       7.503   5.256  22.231  0.00  0.00    -0.166 F 
ATOM     14  F   UNL     1       9.086   6.457  23.083  0.00  0.00    -0.166 F 
ENDBRANCH  10  11
BRANCH   1  16
ATOM     15  C   UNL     1      12.578   5.169  23.322  0.00  0.00    +0.277 C 
ATOM     16  O   UNL     1      11.154   5.220  23.343  0.00  0.00    -0.495 OA
ENDBRANCH   1  16
BRANCH   9  17
ATOM     17  C   UNL     1       8.884  -1.137  24.114  0.00  0.00    +0.083 C 
ATOM     18  S   UNL     1       9.772  -1.882  22.873  0.00  0.00    -0.035 S 
BRANCH  17  19
ATOM     19  N   UNL     1       8.669  -1.867  25.332  0.00  0.00    -0.316 N 
ATOM     20  C   UNL     1       8.578  -1.288  26.681  0.00  0.00    +0.130 C 
BRANCH  19  21
ATOM     21  C   UNL     1       8.299  -3.316  25.338  0.00  0.00    +0.225 C 
BRANCH  21  22
ATOM     22  C   UNL     1       9.314  -4.398  25.726  0.00  0.00    +0.322 C 
ATOM     23  O   UNL     1      10.032  -4.958  24.900  0.00  0.00    -0.249 OA
BRANCH  22  24
ATOM     24  O   UNL     1       9.297  -4.780  27.022  0.00  0.00    -0.480 OA
ATOM     25  H   UNL     1       8.508  -5.332  27.222  0.00  0.00    +0.295 HD
ENDBRANCH  22  24
ENDBRANCH  21  22
ENDBRANCH  19  21
ENDBRANCH  17  19
ENDBRANCH   9  17
TORSDOF 7
ENDMDL
