MODEL 1
REMARK VINA RESULT:      -6.2      0.000      0.000
REMARK  Name = 
REMARK  16 active torsions:
REMARK  status: ('A' for Active; 'I' for Inactive)
REMARK    1  A    between atoms: C_2  and  O_38
REMARK    2  A    between atoms: N_3  and  C_4
REMARK    3  A    between atoms: C_4  and  C_6
REMARK    4  A    between atoms: C_4  and  C_13
REMARK    5  A    between atoms: C_6  and  C_7
REMARK    6  A    between atoms: N_15  and  C_16
REMARK    7  A    between atoms: C_16  and  C_18
REMARK    8  A    between atoms: C_16  and  C_26
REMARK    9  A    between atoms: C_18  and  C_19
REMARK   10  A    between atoms: C_19  and  C_20
REMARK   11  A    between atoms: C_26  and  C_27
REMARK   12  A    between atoms: C_27  and  S_28
REMARK   13  A    between atoms: S_28  and  C_31
REMARK   14  A    between atoms: C_31  and  C_32
REMARK   15  A    between atoms: O_38  and  C_39
REMARK   16  A    between atoms: C_39  and  C_40
REMARK                            x       y       z     vdW  Elec       q    Type
REMARK                         _______ _______ _______ _____ _____    ______ ____
ROOT
ATOM      1  C   UNL     1       7.631  -3.386  26.104  0.00  0.00    +0.234 C 
ATOM      2  N   UNL     1       7.226  -2.247  26.741  0.00  0.00    -0.311 N 
ATOM      3  H   UNL     1       7.738  -2.105  27.607  0.00  0.00    +0.149 HD
ATOM      4  O   UNL     1       8.467  -4.098  26.669  0.00  0.00    -0.274 OA
ENDROOT
BRANCH   2   5
ATOM      5  C   UNL     1       6.400  -1.135  26.259  0.00  0.00    +0.075 C 
BRANCH   5   6
ATOM      6  C   UNL     1       7.213  -0.164  25.382  0.00  0.00    +0.027 C 
BRANCH   6   7
ATOM      7  C   UNL     1       6.539   0.257  24.069  0.00  0.00    +0.037 C 
BRANCH   7   8
ATOM      8  C   UNL     1       6.766   1.718  23.753  0.00  0.00    -0.047 A 
ATOM      9  C   UNL     1       7.245   2.598  24.735  0.00  0.00    +0.003 A 
ATOM     10  C   UNL     1       7.465   3.943  24.445  0.00  0.00    +0.000 A 
ATOM     11  C   UNL     1       7.203   4.431  23.165  0.00  0.00    +0.000 A 
ATOM     12  C   UNL     1       6.717   3.573  22.180  0.00  0.00    +0.000 A 
ATOM     13  C   UNL     1       6.498   2.218  22.472  0.00  0.00    +0.003 A 
ENDBRANCH   7   8
ENDBRANCH   6   7
ENDBRANCH   5   6
BRANCH   5  14
ATOM     14  C   UNL     1       5.723  -0.458  27.458  0.00  0.00    +0.045 C 
BRANCH  14  15
ATOM     15  C   UNL     1       4.371   0.173  27.124  0.00  0.00    +0.168 C 
BRANCH  15  16
ATOM     16  S   UNL     1       3.058  -1.007  27.398  0.00  0.00    -0.027 S 
ATOM     17  O   UNL     1       2.980  -1.820  26.198  0.00  0.00    -0.174 OA
ATOM     18  O   UNL     1       1.916  -0.249  27.875  0.00  0.00    -0.174 OA
BRANCH  16  19
ATOM     19  C   UNL     1       3.693  -2.010  28.744  0.00  0.00    +0.201 C 
BRANCH  19  20
ATOM     20  C   UNL     1       3.560  -3.462  28.371  0.00  0.00    -0.027 A 
ATOM     21  C   UNL     1       4.700  -4.252  28.171  0.00  0.00    +0.005 A 
ATOM     22  C   UNL     1       4.578  -5.610  27.873  0.00  0.00    +0.000 A 
ATOM     23  C   UNL     1       3.317  -6.192  27.769  0.00  0.00    +0.000 A 
ATOM     24  C   UNL     1       2.176  -5.415  27.961  0.00  0.00    +0.000 A 
ATOM     25  C   UNL     1       2.292  -4.057  28.262  0.00  0.00    +0.005 A 
ENDBRANCH  19  20
ENDBRANCH  16  19
ENDBRANCH  15  16
ENDBRANCH  14  15
ENDBRANCH   5  14
ENDBRANCH   2   5
BRANCH   1  26
ATOM     26  C   UNL     1       7.070  -3.764  24.724  0.00  0.00    +0.166 C 
BRANCH  26  29
ATOM     27  O   UNL     1       6.637  -2.748  22.118  0.00  0.00    -0.226 OA
ATOM     28  C   UNL     1       7.766  -2.787  22.581  0.00  0.00    +0.401 C 
ATOM     29  N   UNL     1       8.099  -3.385  23.756  0.00  0.00    -0.269 N 
ATOM     30  H   UNL     1       9.043  -3.226  24.086  0.00  0.00    +0.153 HD
BRANCH  28  31
ATOM     31  O   UNL     1       8.857  -2.208  22.032  0.00  0.00    -0.446 OA
BRANCH  31  32
ATOM     32  C   UNL     1       9.897  -1.859  22.959  0.00  0.00    +0.269 C 
BRANCH  32  33
ATOM     33  C   UNL     1      10.125  -0.364  22.982  0.00  0.00    -0.010 A 
ATOM     34  C   UNL     1      10.601   0.295  24.124  0.00  0.00    +0.007 A 
ATOM     35  C   UNL     1      10.776   1.680  24.124  0.00  0.00    +0.000 A 
ATOM     36  C   UNL     1      10.465   2.424  22.988  0.00  0.00    +0.000 A 
ATOM     37  C   UNL     1       9.961   1.786  21.858  0.00  0.00    +0.000 A 
ATOM     38  C   UNL     1       9.784   0.401  21.856  0.00  0.00    +0.007 A 
ENDBRANCH  32  33
ENDBRANCH  31  32
ENDBRANCH  28  31
ENDBRANCH  26  29
BRANCH  26  39
ATOM     39  C   UNL     1       6.756  -5.271  24.684  0.00  0.00    +0.067 C 
BRANCH  39  40
ATOM     40  C   UNL     1       5.292  -5.502  24.375  0.00  0.00    -0.045 A 
ATOM     41  C   UNL     1       4.782  -6.802  24.269  0.00  0.00    +0.004 A 
ATOM     42  C   UNL     1       3.405  -7.012  24.170  0.00  0.00    +0.000 A 
ATOM     43  C   UNL     1       2.530  -5.926  24.170  0.00  0.00    +0.000 A 
ATOM     44  C   UNL     1       3.032  -4.627  24.233  0.00  0.00    +0.000 A 
ATOM     45  C   UNL     1       4.407  -4.416  24.324  0.00  0.00    +0.004 A 
ENDBRANCH  39  40
ENDBRANCH  26  39
ENDBRANCH   1  26
TORSDOF 16
ENDMDL
MODEL 2
REMARK VINA RESULT:      -6.2      1.812      7.896
REMARK  Name = 
REMARK  16 active torsions:
REMARK  status: ('A' for Active; 'I' for Inactive)
REMARK    1  A    between atoms: C_2  and  O_38
REMARK    2  A    between atoms: N_3  and  C_4
REMARK    3  A    between atoms: C_4  and  C_6
REMARK    4  A    between atoms: C_4  and  C_13
REMARK    5  A    between atoms: C_6  and  C_7
REMARK    6  A    between atoms: N_15  and  C_16
REMARK    7  A    between atoms: C_16  and  C_18
REMARK    8  A    between atoms: C_16  and  C_26
REMARK    9  A    between atoms: C_18  and  C_19
REMARK   10  A    between atoms: C_19  and  C_20
REMARK   11  A    between atoms: C_26  and  C_27
REMARK   12  A    between atoms: C_27  and  S_28
REMARK   13  A    between atoms: S_28  and  C_31
REMARK   14  A    between atoms: C_31  and  C_32
REMARK   15  A    between atoms: O_38  and  C_39
REMARK   16  A    between atoms: C_39  and  C_40
REMARK                            x       y       z     vdW  Elec       q    Type
REMARK                         _______ _______ _______ _____ _____    ______ ____
ROOT
ATOM      1  C   UNL     1       7.261  -1.411  23.516  0.00  0.00    +0.234 C 
ATOM      2  N   UNL     1       6.990  -1.041  24.803  0.00  0.00    -0.311 N 
ATOM      3  H   UNL     1       6.152  -0.469  24.855  0.00  0.00    +0.149 HD
ATOM      4  O   UNL     1       6.536  -0.963  22.621  0.00  0.00    -0.274 OA
ENDROOT
BRANCH   2   5
ATOM      5  C   UNL     1       7.546  -1.534  26.067  0.00  0.00    +0.075 C 
BRANCH   5   6
ATOM      6  C   UNL     1       6.555  -2.459  26.800  0.00  0.00    +0.027 C 
BRANCH   6   7
ATOM      7  C   UNL     1       6.996  -3.923  26.931  0.00  0.00    +0.037 C 
BRANCH   7   8
ATOM      8  C   UNL     1       5.828  -4.851  27.177  0.00  0.00    -0.047 A 
ATOM      9  C   UNL     1       5.751  -6.094  26.531  0.00  0.00    +0.003 A 
ATOM     10  C   UNL     1       4.682  -6.956  26.762  0.00  0.00    +0.000 A 
ATOM     11  C   UNL     1       3.667  -6.585  27.642  0.00  0.00    +0.000 A 
ATOM     12  C   UNL     1       3.722  -5.350  28.286  0.00  0.00    +0.000 A 
ATOM     13  C   UNL     1       4.800  -4.483  28.055  0.00  0.00    +0.003 A 
ENDBRANCH   7   8
ENDBRANCH   6   7
ENDBRANCH   5   6
BRANCH   5  14
ATOM     14  C   UNL     1       8.009  -0.339  26.911  0.00  0.00    +0.045 C 
BRANCH  14  15
ATOM     15  C   UNL     1       6.864   0.415  27.587  0.00  0.00    +0.168 C 
BRANCH  15  16
ATOM     16  S   UNL     1       6.468   1.890  26.660  0.00  0.00    -0.027 S 
ATOM     17  O   UNL     1       6.391   2.973  27.624  0.00  0.00    -0.174 OA
ATOM     18  O   UNL     1       5.341   1.552  25.809  0.00  0.00    -0.174 OA
BRANCH  16  19
ATOM     19  C   UNL     1       7.922   2.123  25.634  0.00  0.00    +0.201 C 
BRANCH  19  20
ATOM     20  C   UNL     1       7.566   3.033  24.489  0.00  0.00    -0.027 A 
ATOM     21  C   UNL     1       7.910   4.391  24.526  0.00  0.00    +0.005 A 
ATOM     22  C   UNL     1       7.625   5.225  23.444  0.00  0.00    +0.000 A 
ATOM     23  C   UNL     1       6.990   4.712  22.316  0.00  0.00    +0.000 A 
ATOM     24  C   UNL     1       6.638   3.364  22.269  0.00  0.00    +0.000 A 
ATOM     25  C   UNL     1       6.925   2.525  23.347  0.00  0.00    +0.005 A 
ENDBRANCH  19  20
ENDBRANCH  16  19
ENDBRANCH  15  16
ENDBRANCH  14  15
ENDBRANCH   5  14
ENDBRANCH   2   5
BRANCH   1  26
ATOM     26  C   UNL     1       8.426  -2.360  23.193  0.00  0.00    +0.166 C 
BRANCH  26  29
ATOM     27  O   UNL     1       8.697  -4.965  24.265  0.00  0.00    -0.226 OA
ATOM     28  C   UNL     1       7.913  -4.757  23.353  0.00  0.00    +0.401 C 
ATOM     29  N   UNL     1       7.813  -3.583  22.674  0.00  0.00    -0.269 N 
ATOM     30  H   UNL     1       7.032  -3.502  22.035  0.00  0.00    +0.153 HD
BRANCH  28  31
ATOM     31  O   UNL     1       6.992  -5.634  22.898  0.00  0.00    -0.446 OA
BRANCH  31  32
ATOM     32  C   UNL     1       5.894  -5.051  22.179  0.00  0.00    +0.269 C 
BRANCH  32  33
ATOM     33  C   UNL     1       4.680  -4.901  23.069  0.00  0.00    -0.010 A 
ATOM     34  C   UNL     1       4.494  -3.775  23.883  0.00  0.00    +0.007 A 
ATOM     35  C   UNL     1       3.376  -3.677  24.714  0.00  0.00    +0.000 A 
ATOM     36  C   UNL     1       2.440  -4.707  24.751  0.00  0.00    +0.000 A 
ATOM     37  C   UNL     1       2.629  -5.846  23.972  0.00  0.00    +0.000 A 
ATOM     38  C   UNL     1       3.747  -5.946  23.141  0.00  0.00    +0.007 A 
ENDBRANCH  32  33
ENDBRANCH  31  32
ENDBRANCH  28  31
ENDBRANCH  26  29
BRANCH  26  39
ATOM     39  C   UNL     1       9.369  -1.700  22.171  0.00  0.00    +0.067 C 
BRANCH  39  40
ATOM     40  C   UNL     1       9.784  -0.322  22.642  0.00  0.00    -0.045 A 
ATOM     41  C   UNL     1      10.410  -0.152  23.883  0.00  0.00    +0.004 A 
ATOM     42  C   UNL     1      10.957   1.085  24.232  0.00  0.00    +0.000 A 
ATOM     43  C   UNL     1      10.877   2.159  23.346  0.00  0.00    +0.000 A 
ATOM     44  C   UNL     1      10.220   2.010  22.127  0.00  0.00    +0.000 A 
ATOM     45  C   UNL     1       9.667   0.778  21.780  0.00  0.00    +0.004 A 
ENDBRANCH  39  40
ENDBRANCH  26  39
ENDBRANCH   1  26
TORSDOF 16
ENDMDL
MODEL 3
REMARK VINA RESULT:      -6.0      1.445      6.036
REMARK  Name = 
REMARK  16 active torsions:
REMARK  status: ('A' for Active; 'I' for Inactive)
REMARK    1  A    between atoms: C_2  and  O_38
REMARK    2  A    between atoms: N_3  and  C_4
REMARK    3  A    between atoms: C_4  and  C_6
REMARK    4  A    between atoms: C_4  and  C_13
REMARK    5  A    between atoms: C_6  and  C_7
REMARK    6  A    between atoms: N_15  and  C_16
REMARK    7  A    between atoms: C_16  and  C_18
REMARK    8  A    between atoms: C_16  and  C_26
REMARK    9  A    between atoms: C_18  and  C_19
REMARK   10  A    between atoms: C_19  and  C_20
REMARK   11  A    between atoms: C_26  and  C_27
REMARK   12  A    between atoms: C_27  and  S_28
REMARK   13  A    between atoms: S_28  and  C_31
REMARK   14  A    between atoms: C_31  and  C_32
REMARK   15  A    between atoms: O_38  and  C_39
REMARK   16  A    between atoms: C_39  and  C_40
REMARK                            x       y       z     vdW  Elec       q    Type
REMARK                         _______ _______ _______ _____ _____    ______ ____
ROOT
ATOM      1  C   UNL     1       8.108  -4.750  24.856  0.00  0.00    +0.234 C 
ATOM      2  N   UNL     1       7.929  -4.436  26.174  0.00  0.00    -0.311 N 
ATOM      3  H   UNL     1       8.769  -4.618  26.716  0.00  0.00    +0.149 HD
ATOM      4  O   UNL     1       9.184  -5.261  24.525  0.00  0.00    -0.274 OA
ENDROOT
BRANCH   2   5
ATOM      5  C   UNL     1       6.859  -3.676  26.828  0.00  0.00    +0.075 C 
BRANCH   5   6
ATOM      6  C   UNL     1       5.484  -4.341  26.623  0.00  0.00    +0.027 C 
BRANCH   6   7
ATOM      7  C   UNL     1       5.059  -5.325  27.720  0.00  0.00    +0.037 C 
BRANCH   7   8
ATOM      8  C   UNL     1       3.570  -5.585  27.710  0.00  0.00    -0.047 A 
ATOM      9  C   UNL     1       2.675  -4.611  27.241  0.00  0.00    +0.003 A 
ATOM     10  C   UNL     1       1.303  -4.850  27.221  0.00  0.00    +0.000 A 
ATOM     11  C   UNL     1       0.802  -6.069  27.676  0.00  0.00    +0.000 A 
ATOM     12  C   UNL     1       1.675  -7.044  28.155  0.00  0.00    +0.000 A 
ATOM     13  C   UNL     1       3.057  -6.804  28.173  0.00  0.00    +0.003 A 
ENDBRANCH   7   8
ENDBRANCH   6   7
ENDBRANCH   5   6
BRANCH   5  14
ATOM     14  C   UNL     1       6.914  -2.220  26.350  0.00  0.00    +0.045 C 
BRANCH  14  15
ATOM     15  C   UNL     1       5.572  -1.494  26.437  0.00  0.00    +0.168 C 
BRANCH  15  16
ATOM     16  S   UNL     1       5.810   0.265  26.234  0.00  0.00    -0.027 S 
ATOM     17  O   UNL     1       6.192   0.781  27.537  0.00  0.00    -0.174 OA
ATOM     18  O   UNL     1       4.638   0.763  25.537  0.00  0.00    -0.174 OA
BRANCH  16  19
ATOM     19  C   UNL     1       7.224   0.356  25.133  0.00  0.00    +0.201 C 
BRANCH  19  20
ATOM     20  C   UNL     1       7.126   1.619  24.321  0.00  0.00    -0.027 A 
ATOM     21  C   UNL     1       6.646   1.583  23.005  0.00  0.00    +0.005 A 
ATOM     22  C   UNL     1       6.509   2.760  22.267  0.00  0.00    +0.000 A 
ATOM     23  C   UNL     1       6.852   3.984  22.836  0.00  0.00    +0.000 A 
ATOM     24  C   UNL     1       7.334   4.032  24.142  0.00  0.00    +0.000 A 
ATOM     25  C   UNL     1       7.470   2.858  24.886  0.00  0.00    +0.005 A 
ENDBRANCH  19  20
ENDBRANCH  16  19
ENDBRANCH  15  16
ENDBRANCH  14  15
ENDBRANCH   5  14
ENDBRANCH   2   5
BRANCH   1  26
ATOM     26  C   UNL     1       7.010  -4.471  23.818  0.00  0.00    +0.166 C 
BRANCH  26  29
ATOM     27  O   UNL     1       6.180  -1.937  22.869  0.00  0.00    -0.226 OA
ATOM     28  C   UNL     1       7.232  -2.421  22.483  0.00  0.00    +0.401 C 
ATOM     29  N   UNL     1       7.649  -3.686  22.762  0.00  0.00    -0.269 N 
ATOM     30  H   UNL     1       8.598  -3.912  22.494  0.00  0.00    +0.153 HD
BRANCH  28  31
ATOM     31  O   UNL     1       8.171  -1.775  21.757  0.00  0.00    -0.446 OA
BRANCH  31  32
ATOM     32  C   UNL     1       9.485  -1.755  22.336  0.00  0.00    +0.269 C 
BRANCH  32  33
ATOM     33  C   UNL     1       9.892  -0.348  22.711  0.00  0.00    -0.010 A 
ATOM     34  C   UNL     1       9.794   0.718  21.804  0.00  0.00    +0.007 A 
ATOM     35  C   UNL     1      10.203   2.002  22.170  0.00  0.00    +0.000 A 
ATOM     36  C   UNL     1      10.727   2.233  23.439  0.00  0.00    +0.000 A 
ATOM     37  C   UNL     1      10.860   1.178  24.338  0.00  0.00    +0.000 A 
ATOM     38  C   UNL     1      10.453  -0.107  23.974  0.00  0.00    +0.007 A 
ENDBRANCH  32  33
ENDBRANCH  31  32
ENDBRANCH  28  31
ENDBRANCH  26  29
BRANCH  26  39
ATOM     39  C   UNL     1       6.437  -5.801  23.293  0.00  0.00    +0.067 C 
BRANCH  39  40
ATOM     40  C   UNL     1       4.976  -5.935  23.667  0.00  0.00    -0.045 A 
ATOM     41  C   UNL     1       4.040  -4.990  23.232  0.00  0.00    +0.004 A 
ATOM     42  C   UNL     1       2.674  -5.214  23.418  0.00  0.00    +0.000 A 
ATOM     43  C   UNL     1       2.237  -6.381  24.044  0.00  0.00    +0.000 A 
ATOM     44  C   UNL     1       3.163  -7.308  24.517  0.00  0.00    +0.000 A 
ATOM     45  C   UNL     1       4.528  -7.081  24.338  0.00  0.00    +0.004 A 
ENDBRANCH  39  40
ENDBRANCH  26  39
ENDBRANCH   1  26
TORSDOF 16
ENDMDL
MODEL 4
REMARK VINA RESULT:      -6.0      1.982      8.107
REMARK  Name = 
REMARK  16 active torsions:
REMARK  status: ('A' for Active; 'I' for Inactive)
REMARK    1  A    between atoms: C_2  and  O_38
REMARK    2  A    between atoms: N_3  and  C_4
REMARK    3  A    between atoms: C_4  and  C_6
REMARK    4  A    between atoms: C_4  and  C_13
REMARK    5  A    between atoms: C_6  and  C_7
REMARK    6  A    between atoms: N_15  and  C_16
REMARK    7  A    between atoms: C_16  and  C_18
REMARK    8  A    between atoms: C_16  and  C_26
REMARK    9  A    between atoms: C_18  and  C_19
REMARK   10  A    between atoms: C_19  and  C_20
REMARK   11  A    between atoms: C_26  and  C_27
REMARK   12  A    between atoms: C_27  and  S_28
REMARK   13  A    between atoms: S_28  and  C_31
REMARK   14  A    between atoms: C_31  and  C_32
REMARK   15  A    between atoms: O_38  and  C_39
REMARK   16  A    between atoms: C_39  and  C_40
REMARK                            x       y       z     vdW  Elec       q    Type
REMARK                         _______ _______ _______ _____ _____    ______ ____
ROOT
ATOM      1  C   UNL     1       7.008  -1.559  23.164  0.00  0.00    +0.234 C 
ATOM      2  N   UNL     1       6.684  -0.800  24.252  0.00  0.00    -0.311 N 
ATOM      3  H   UNL     1       5.710  -0.512  24.227  0.00  0.00    +0.149 HD
ATOM      4  O   UNL     1       6.144  -1.724  22.297  0.00  0.00    -0.274 OA
ENDROOT
BRANCH   2   5
ATOM      5  C   UNL     1       7.419  -0.575  25.502  0.00  0.00    +0.075 C 
BRANCH   5   6
ATOM      6  C   UNL     1       6.687  -1.193  26.709  0.00  0.00    +0.027 C 
BRANCH   6   7
ATOM      7  C   UNL     1       5.481  -2.076  26.365  0.00  0.00    +0.037 C 
BRANCH   7   8
ATOM      8  C   UNL     1       5.496  -3.385  27.123  0.00  0.00    -0.047 A 
ATOM      9  C   UNL     1       6.527  -4.315  26.927  0.00  0.00    +0.003 A 
ATOM     10  C   UNL     1       6.549  -5.517  27.630  0.00  0.00    +0.000 A 
ATOM     11  C   UNL     1       5.534  -5.811  28.539  0.00  0.00    +0.000 A 
ATOM     12  C   UNL     1       4.495  -4.903  28.738  0.00  0.00    +0.000 A 
ATOM     13  C   UNL     1       4.475  -3.691  28.032  0.00  0.00    +0.003 A 
ENDBRANCH   7   8
ENDBRANCH   6   7
ENDBRANCH   5   6
BRANCH   5  14
ATOM     14  C   UNL     1       7.698   0.925  25.656  0.00  0.00    +0.045 C 
BRANCH  14  15
ATOM     15  C   UNL     1       6.474   1.737  26.080  0.00  0.00    +0.168 C 
BRANCH  15  16
ATOM     16  S   UNL     1       5.695   2.467  24.647  0.00  0.00    -0.027 S 
ATOM     17  O   UNL     1       4.323   1.994  24.640  0.00  0.00    -0.174 OA
ATOM     18  O   UNL     1       6.585   2.226  23.526  0.00  0.00    -0.174 OA
BRANCH  16  19
ATOM     19  C   UNL     1       5.707   4.220  25.032  0.00  0.00    +0.201 C 
BRANCH  19  20
ATOM     20  C   UNL     1       6.942   4.839  24.434  0.00  0.00    -0.027 A 
ATOM     21  C   UNL     1       6.887   5.469  23.184  0.00  0.00    +0.005 A 
ATOM     22  C   UNL     1       8.020   6.086  22.650  0.00  0.00    +0.000 A 
ATOM     23  C   UNL     1       9.218   6.078  23.359  0.00  0.00    +0.000 A 
ATOM     24  C   UNL     1       9.286   5.452  24.602  0.00  0.00    +0.000 A 
ATOM     25  C   UNL     1       8.155   4.836  25.142  0.00  0.00    +0.005 A 
ENDBRANCH  19  20
ENDBRANCH  16  19
ENDBRANCH  15  16
ENDBRANCH  14  15
ENDBRANCH   5  14
ENDBRANCH   2   5
BRANCH   1  26
ATOM     26  C   UNL     1       8.401  -2.193  23.025  0.00  0.00    +0.166 C 
BRANCH  26  29
ATOM     27  O   UNL     1       8.907  -4.356  24.779  0.00  0.00    -0.226 OA
ATOM     28  C   UNL     1       8.331  -4.548  23.720  0.00  0.00    +0.401 C 
ATOM     29  N   UNL     1       8.169  -3.611  22.748  0.00  0.00    -0.269 N 
ATOM     30  H   UNL     1       7.557  -3.863  21.983  0.00  0.00    +0.153 HD
BRANCH  28  31
ATOM     31  O   UNL     1       7.724  -5.699  23.357  0.00  0.00    -0.446 OA
BRANCH  31  32
ATOM     32  C   UNL     1       6.491  -5.541  22.639  0.00  0.00    +0.269 C 
BRANCH  32  33
ATOM     33  C   UNL     1       5.307  -5.564  23.579  0.00  0.00    -0.010 A 
ATOM     34  C   UNL     1       5.033  -6.669  24.398  0.00  0.00    +0.007 A 
ATOM     35  C   UNL     1       3.917  -6.671  25.237  0.00  0.00    +0.000 A 
ATOM     36  C   UNL     1       3.055  -5.577  25.257  0.00  0.00    +0.000 A 
ATOM     37  C   UNL     1       3.297  -4.487  24.426  0.00  0.00    +0.000 A 
ATOM     38  C   UNL     1       4.412  -4.483  23.585  0.00  0.00    +0.007 A 
ENDBRANCH  32  33
ENDBRANCH  31  32
ENDBRANCH  28  31
ENDBRANCH  26  29
BRANCH  26  39
ATOM     39  C   UNL     1       9.183  -1.496  21.895  0.00  0.00    +0.067 C 
BRANCH  39  40
ATOM     40  C   UNL     1       9.773  -0.191  22.383  0.00  0.00    -0.045 A 
ATOM     41  C   UNL     1       9.439   1.019  21.762  0.00  0.00    +0.004 A 
ATOM     42  C   UNL     1       9.836   2.233  22.326  0.00  0.00    +0.000 A 
ATOM     43  C   UNL     1      10.572   2.246  23.511  0.00  0.00    +0.000 A 
ATOM     44  C   UNL     1      10.943   1.047  24.113  0.00  0.00    +0.000 A 
ATOM     45  C   UNL     1      10.555  -0.167  23.547  0.00  0.00    +0.004 A 
ENDBRANCH  39  40
ENDBRANCH  26  39
ENDBRANCH   1  26
TORSDOF 16
ENDMDL
MODEL 5
REMARK VINA RESULT:      -5.9      1.256      2.061
REMARK  Name = 
REMARK  16 active torsions:
REMARK  status: ('A' for Active; 'I' for Inactive)
REMARK    1  A    between atoms: C_2  and  O_38
REMARK    2  A    between atoms: N_3  and  C_4
REMARK    3  A    between atoms: C_4  and  C_6
REMARK    4  A    between atoms: C_4  and  C_13
REMARK    5  A    between atoms: C_6  and  C_7
REMARK    6  A    between atoms: N_15  and  C_16
REMARK    7  A    between atoms: C_16  and  C_18
REMARK    8  A    between atoms: C_16  and  C_26
REMARK    9  A    between atoms: C_18  and  C_19
REMARK   10  A    between atoms: C_19  and  C_20
REMARK   11  A    between atoms: C_26  and  C_27
REMARK   12  A    between atoms: C_27  and  S_28
REMARK   13  A    between atoms: S_28  and  C_31
REMARK   14  A    between atoms: C_31  and  C_32
REMARK   15  A    between atoms: O_38  and  C_39
REMARK   16  A    between atoms: C_39  and  C_40
REMARK                            x       y       z     vdW  Elec       q    Type
REMARK                         _______ _______ _______ _____ _____    ______ ____
ROOT
ATOM      1  C   UNL     1       7.975  -1.771  26.132  0.00  0.00    +0.234 C 
ATOM      2  N   UNL     1       7.217  -0.636  26.088  0.00  0.00    -0.311 N 
ATOM      3  H   UNL     1       7.607   0.093  26.679  0.00  0.00    +0.149 HD
ATOM      4  O   UNL     1       8.941  -1.792  26.903  0.00  0.00    -0.274 OA
ENDROOT
BRANCH   2   5
ATOM      5  C   UNL     1       6.141  -0.252  25.168  0.00  0.00    +0.075 C 
BRANCH   5   6
ATOM      6  C   UNL     1       6.666   0.623  24.014  0.00  0.00    +0.027 C 
BRANCH   6   7
ATOM      7  C   UNL     1       5.902   1.933  23.782  0.00  0.00    +0.037 C 
BRANCH   7   8
ATOM      8  C   UNL     1       6.794   3.147  23.916  0.00  0.00    -0.047 A 
ATOM      9  C   UNL     1       6.939   4.051  22.854  0.00  0.00    +0.003 A 
ATOM     10  C   UNL     1       7.753   5.176  22.977  0.00  0.00    +0.000 A 
ATOM     11  C   UNL     1       8.440   5.410  24.167  0.00  0.00    +0.000 A 
ATOM     12  C   UNL     1       8.316   4.516  25.229  0.00  0.00    +0.000 A 
ATOM     13  C   UNL     1       7.494   3.386  25.106  0.00  0.00    +0.003 A 
ENDBRANCH   7   8
ENDBRANCH   6   7
ENDBRANCH   5   6
BRANCH   5  14
ATOM     14  C   UNL     1       5.009   0.405  25.969  0.00  0.00    +0.045 C 
BRANCH  14  15
ATOM     15  C   UNL     1       5.214   0.347  27.483  0.00  0.00    +0.168 C 
BRANCH  15  16
ATOM     16  S   UNL     1       4.044  -0.784  28.219  0.00  0.00    -0.027 S 
ATOM     17  O   UNL     1       2.782  -0.575  27.532  0.00  0.00    -0.174 OA
ATOM     18  O   UNL     1       4.160  -0.621  29.656  0.00  0.00    -0.174 OA
BRANCH  16  19
ATOM     19  C   UNL     1       4.697  -2.392  27.763  0.00  0.00    +0.201 C 
BRANCH  19  20
ATOM     20  C   UNL     1       3.648  -3.139  26.983  0.00  0.00    -0.027 A 
ATOM     21  C   UNL     1       3.593  -3.037  25.587  0.00  0.00    +0.005 A 
ATOM     22  C   UNL     1       2.652  -3.768  24.859  0.00  0.00    +0.000 A 
ATOM     23  C   UNL     1       1.755  -4.604  25.519  0.00  0.00    +0.000 A 
ATOM     24  C   UNL     1       1.798  -4.710  26.908  0.00  0.00    +0.000 A 
ATOM     25  C   UNL     1       2.739  -3.985  27.640  0.00  0.00    +0.005 A 
ENDBRANCH  19  20
ENDBRANCH  16  19
ENDBRANCH  15  16
ENDBRANCH  14  15
ENDBRANCH   5  14
ENDBRANCH   2   5
BRANCH   1  26
ATOM     26  C   UNL     1       7.641  -2.982  25.247  0.00  0.00    +0.166 C 
BRANCH  26  29
ATOM     27  O   UNL     1       7.190  -2.402  22.514  0.00  0.00    -0.226 OA
ATOM     28  C   UNL     1       8.328  -2.563  22.926  0.00  0.00    +0.401 C 
ATOM     29  N   UNL     1       8.643  -2.985  24.180  0.00  0.00    -0.269 N 
ATOM     30  H   UNL     1       9.622  -2.945  24.432  0.00  0.00    +0.153 HD
BRANCH  28  31
ATOM     31  O   UNL     1       9.456  -2.307  22.228  0.00  0.00    -0.446 OA
BRANCH  31  32
ATOM     32  C   UNL     1       9.444  -1.089  21.468  0.00  0.00    +0.269 C 
BRANCH  32  33
ATOM     33  C   UNL     1       9.888   0.084  22.312  0.00  0.00    -0.010 A 
ATOM     34  C   UNL     1       9.776   1.406  21.859  0.00  0.00    +0.007 A 
ATOM     35  C   UNL     1      10.220   2.467  22.651  0.00  0.00    +0.000 A 
ATOM     36  C   UNL     1      10.793   2.219  23.896  0.00  0.00    +0.000 A 
ATOM     37  C   UNL     1      10.939   0.909  24.344  0.00  0.00    +0.000 A 
ATOM     38  C   UNL     1      10.497  -0.154  23.554  0.00  0.00    +0.007 A 
ENDBRANCH  32  33
ENDBRANCH  31  32
ENDBRANCH  28  31
ENDBRANCH  26  29
BRANCH  26  39
ATOM     39  C   UNL     1       7.680  -4.272  26.089  0.00  0.00    +0.067 C 
BRANCH  39  40
ATOM     40  C   UNL     1       6.642  -5.259  25.599  0.00  0.00    -0.045 A 
ATOM     41  C   UNL     1       5.881  -6.003  26.509  0.00  0.00    +0.004 A 
ATOM     42  C   UNL     1       4.803  -6.770  26.063  0.00  0.00    +0.000 A 
ATOM     43  C   UNL     1       4.481  -6.802  24.707  0.00  0.00    +0.000 A 
ATOM     44  C   UNL     1       5.258  -6.097  23.790  0.00  0.00    +0.000 A 
ATOM     45  C   UNL     1       6.340  -5.337  24.232  0.00  0.00    +0.004 A 
ENDBRANCH  39  40
ENDBRANCH  26  39
ENDBRANCH   1  26
TORSDOF 16
ENDMDL
MODEL 6
REMARK VINA RESULT:      -5.7      2.274      8.215
REMARK  Name = 
REMARK  16 active torsions:
REMARK  status: ('A' for Active; 'I' for Inactive)
REMARK    1  A    between atoms: C_2  and  O_38
REMARK    2  A    between atoms: N_3  and  C_4
REMARK    3  A    between atoms: C_4  and  C_6
REMARK    4  A    between atoms: C_4  and  C_13
REMARK    5  A    between atoms: C_6  and  C_7
REMARK    6  A    between atoms: N_15  and  C_16
REMARK    7  A    between atoms: C_16  and  C_18
REMARK    8  A    between atoms: C_16  and  C_26
REMARK    9  A    between atoms: C_18  and  C_19
REMARK   10  A    between atoms: C_19  and  C_20
REMARK   11  A    between atoms: C_26  and  C_27
REMARK   12  A    between atoms: C_27  and  S_28
REMARK   13  A    between atoms: S_28  and  C_31
REMARK   14  A    between atoms: C_31  and  C_32
REMARK   15  A    between atoms: O_38  and  C_39
REMARK   16  A    between atoms: C_39  and  C_40
REMARK                            x       y       z     vdW  Elec       q    Type
REMARK                         _______ _______ _______ _____ _____    ______ ____
ROOT
ATOM      1  C   UNL     1       6.897  -1.282  23.222  0.00  0.00    +0.234 C 
ATOM      2  N   UNL     1       6.334  -0.247  23.913  0.00  0.00    -0.311 N 
ATOM      3  H   UNL     1       5.441   0.025  23.511  0.00  0.00    +0.149 HD
ATOM      4  O   UNL     1       6.318  -1.682  22.206  0.00  0.00    -0.274 OA
ENDROOT
BRANCH   2   5
ATOM      5  C   UNL     1       6.681   0.318  25.221  0.00  0.00    +0.075 C 
BRANCH   5   6
ATOM      6  C   UNL     1       5.715  -0.164  26.321  0.00  0.00    +0.027 C 
BRANCH   6   7
ATOM      7  C   UNL     1       5.905  -1.618  26.772  0.00  0.00    +0.037 C 
BRANCH   7   8
ATOM      8  C   UNL     1       4.641  -2.434  26.620  0.00  0.00    -0.047 A 
ATOM      9  C   UNL     1       4.161  -2.782  25.350  0.00  0.00    +0.003 A 
ATOM     10  C   UNL     1       3.001  -3.542  25.206  0.00  0.00    +0.000 A 
ATOM     11  C   UNL     1       2.300  -3.960  26.335  0.00  0.00    +0.000 A 
ATOM     12  C   UNL     1       2.757  -3.614  27.606  0.00  0.00    +0.000 A 
ATOM     13  C   UNL     1       3.926  -2.852  27.750  0.00  0.00    +0.003 A 
ENDBRANCH   7   8
ENDBRANCH   6   7
ENDBRANCH   5   6
BRANCH   5  14
ATOM     14  C   UNL     1       6.761   1.845  25.102  0.00  0.00    +0.045 C 
BRANCH  14  15
ATOM     15  C   UNL     1       5.427   2.505  24.756  0.00  0.00    +0.168 C 
BRANCH  15  16
ATOM     16  S   UNL     1       5.546   3.345  23.184  0.00  0.00    -0.027 S 
ATOM     17  O   UNL     1       4.291   3.106  22.494  0.00  0.00    -0.174 OA
ATOM     18  O   UNL     1       6.817   2.954  22.602  0.00  0.00    -0.174 OA
BRANCH  16  19
ATOM     19  C   UNL     1       5.632   5.074  23.657  0.00  0.00    +0.201 C 
BRANCH  19  20
ATOM     20  C   UNL     1       7.071   5.438  23.909  0.00  0.00    -0.027 A 
ATOM     21  C   UNL     1       7.657   5.199  25.159  0.00  0.00    +0.005 A 
ATOM     22  C   UNL     1       9.004   5.490  25.379  0.00  0.00    +0.000 A 
ATOM     23  C   UNL     1       9.778   6.025  24.352  0.00  0.00    +0.000 A 
ATOM     24  C   UNL     1       9.206   6.270  23.106  0.00  0.00    +0.000 A 
ATOM     25  C   UNL     1       7.860   5.978  22.880  0.00  0.00    +0.005 A 
ENDBRANCH  19  20
ENDBRANCH  16  19
ENDBRANCH  15  16
ENDBRANCH  14  15
ENDBRANCH   5  14
ENDBRANCH   2   5
BRANCH   1  26
ATOM     26  C   UNL     1       8.205  -1.933  23.697  0.00  0.00    +0.166 C 
BRANCH  26  29
ATOM     27  O   UNL     1       9.992  -3.938  24.592  0.00  0.00    -0.226 OA
ATOM     28  C   UNL     1       8.822  -4.213  24.372  0.00  0.00    +0.401 C 
ATOM     29  N   UNL     1       7.923  -3.365  23.805  0.00  0.00    -0.269 N 
ATOM     30  H   UNL     1       6.959  -3.672  23.805  0.00  0.00    +0.153 HD
BRANCH  28  31
ATOM     31  O   UNL     1       8.219  -5.379  24.693  0.00  0.00    -0.446 OA
BRANCH  31  32
ATOM     32  C   UNL     1       6.785  -5.365  24.624  0.00  0.00    +0.269 C 
BRANCH  32  33
ATOM     33  C   UNL     1       6.172  -5.796  25.937  0.00  0.00    -0.010 A 
ATOM     34  C   UNL     1       4.995  -6.556  25.991  0.00  0.00    +0.007 A 
ATOM     35  C   UNL     1       4.438  -6.917  27.219  0.00  0.00    +0.000 A 
ATOM     36  C   UNL     1       5.042  -6.512  28.407  0.00  0.00    +0.000 A 
ATOM     37  C   UNL     1       6.194  -5.730  28.368  0.00  0.00    +0.000 A 
ATOM     38  C   UNL     1       6.752  -5.367  27.141  0.00  0.00    +0.007 A 
ENDBRANCH  32  33
ENDBRANCH  31  32
ENDBRANCH  28  31
ENDBRANCH  26  29
BRANCH  26  39
ATOM     39  C   UNL     1       9.333  -1.635  22.691  0.00  0.00    +0.067 C 
BRANCH  39  40
ATOM     40  C   UNL     1       9.833  -0.216  22.858  0.00  0.00    -0.045 A 
ATOM     41  C   UNL     1       9.766   0.693  21.794  0.00  0.00    +0.004 A 
ATOM     42  C   UNL     1      10.053   2.044  22.004  0.00  0.00    +0.000 A 
ATOM     43  C   UNL     1      10.412   2.493  23.274  0.00  0.00    +0.000 A 
ATOM     44  C   UNL     1      10.521   1.589  24.328  0.00  0.00    +0.000 A 
ATOM     45  C   UNL     1      10.243   0.239  24.119  0.00  0.00    +0.004 A 
ENDBRANCH  39  40
ENDBRANCH  26  39
ENDBRANCH   1  26
TORSDOF 16
ENDMDL
MODEL 7
REMARK VINA RESULT:      -5.7      2.367      6.303
REMARK  Name = 
REMARK  16 active torsions:
REMARK  status: ('A' for Active; 'I' for Inactive)
REMARK    1  A    between atoms: C_2  and  O_38
REMARK    2  A    between atoms: N_3  and  C_4
REMARK    3  A    between atoms: C_4  and  C_6
REMARK    4  A    between atoms: C_4  and  C_13
REMARK    5  A    between atoms: C_6  and  C_7
REMARK    6  A    between atoms: N_15  and  C_16
REMARK    7  A    between atoms: C_16  and  C_18
REMARK    8  A    between atoms: C_16  and  C_26
REMARK    9  A    between atoms: C_18  and  C_19
REMARK   10  A    between atoms: C_19  and  C_20
REMARK   11  A    between atoms: C_26  and  C_27
REMARK   12  A    between atoms: C_27  and  S_28
REMARK   13  A    between atoms: S_28  and  C_31
REMARK   14  A    between atoms: C_31  and  C_32
REMARK   15  A    between atoms: O_38  and  C_39
REMARK   16  A    between atoms: C_39  and  C_40
REMARK                            x       y       z     vdW  Elec       q    Type
REMARK                         _______ _______ _______ _____ _____    ______ ____
ROOT
ATOM      1  C   UNL     1       9.105  -0.869  25.214  0.00  0.00    +0.234 C 
ATOM      2  N   UNL     1       8.601  -1.232  26.430  0.00  0.00    -0.311 N 
ATOM      3  H   UNL     1       9.134  -0.819  27.190  0.00  0.00    +0.149 HD
ATOM      4  O   UNL     1      10.134  -0.185  25.196  0.00  0.00    -0.274 OA
ENDROOT
BRANCH   2   5
ATOM      5  C   UNL     1       7.329  -1.876  26.773  0.00  0.00    +0.075 C 
BRANCH   5   6
ATOM      6  C   UNL     1       7.313  -3.360  26.360  0.00  0.00    +0.027 C 
BRANCH   6   7
ATOM      7  C   UNL     1       6.205  -4.209  26.996  0.00  0.00    +0.037 C 
BRANCH   7   8
ATOM      8  C   UNL     1       5.296  -4.832  25.960  0.00  0.00    -0.047 A 
ATOM      9  C   UNL     1       5.314  -6.215  25.729  0.00  0.00    +0.003 A 
ATOM     10  C   UNL     1       4.472  -6.794  24.783  0.00  0.00    +0.000 A 
ATOM     11  C   UNL     1       3.600  -5.994  24.046  0.00  0.00    +0.000 A 
ATOM     12  C   UNL     1       3.576  -4.616  24.254  0.00  0.00    +0.000 A 
ATOM     13  C   UNL     1       4.422  -4.034  25.210  0.00  0.00    +0.003 A 
ENDBRANCH   7   8
ENDBRANCH   6   7
ENDBRANCH   5   6
BRANCH   5  14
ATOM     14  C   UNL     1       6.177  -1.060  26.172  0.00  0.00    +0.045 C 
BRANCH  14  15
ATOM     15  C   UNL     1       5.321  -0.344  27.217  0.00  0.00    +0.168 C 
BRANCH  15  16
ATOM     16  S   UNL     1       6.000   1.271  27.565  0.00  0.00    -0.027 S 
ATOM     17  O   UNL     1       7.188   1.052  28.372  0.00  0.00    -0.174 OA
ATOM     18  O   UNL     1       4.899   2.087  28.045  0.00  0.00    -0.174 OA
BRANCH  16  19
ATOM     19  C   UNL     1       6.496   1.859  25.943  0.00  0.00    +0.201 C 
BRANCH  19  20
ATOM     20  C   UNL     1       6.374   3.358  25.913  0.00  0.00    -0.027 A 
ATOM     21  C   UNL     1       5.357   3.975  25.172  0.00  0.00    +0.005 A 
ATOM     22  C   UNL     1       5.213   5.363  25.182  0.00  0.00    +0.000 A 
ATOM     23  C   UNL     1       6.086   6.149  25.930  0.00  0.00    +0.000 A 
ATOM     24  C   UNL     1       7.104   5.548  26.667  0.00  0.00    +0.000 A 
ATOM     25  C   UNL     1       7.250   4.160  26.663  0.00  0.00    +0.005 A 
ENDBRANCH  19  20
ENDBRANCH  16  19
ENDBRANCH  15  16
ENDBRANCH  14  15
ENDBRANCH   5  14
ENDBRANCH   2   5
BRANCH   1  26
ATOM     26  C   UNL     1       8.411  -1.291  23.910  0.00  0.00    +0.166 C 
BRANCH  26  29
ATOM     27  O   UNL     1       6.459   0.446  22.822  0.00  0.00    -0.226 OA
ATOM     28  C   UNL     1       7.645   0.647  22.609  0.00  0.00    +0.401 C 
ATOM     29  N   UNL     1       8.647  -0.203  22.961  0.00  0.00    -0.269 N 
ATOM     30  H   UNL     1       9.590   0.147  22.847  0.00  0.00    +0.153 HD
BRANCH  28  31
ATOM     31  O   UNL     1       8.160   1.756  22.035  0.00  0.00    -0.446 OA
BRANCH  31  32
ATOM     32  C   UNL     1       7.283   2.893  22.003  0.00  0.00    +0.269 C 
BRANCH  32  33
ATOM     33  C   UNL     1       7.944   4.107  22.617  0.00  0.00    -0.010 A 
ATOM     34  C   UNL     1       7.510   5.409  22.332  0.00  0.00    +0.007 A 
ATOM     35  C   UNL     1       8.157   6.512  22.893  0.00  0.00    +0.000 A 
ATOM     36  C   UNL     1       9.252   6.327  23.732  0.00  0.00    +0.000 A 
ATOM     37  C   UNL     1       9.714   5.041  23.998  0.00  0.00    +0.000 A 
ATOM     38  C   UNL     1       9.069   3.937  23.437  0.00  0.00    +0.007 A 
ENDBRANCH  32  33
ENDBRANCH  31  32
ENDBRANCH  28  31
ENDBRANCH  26  29
BRANCH  26  39
ATOM     39  C   UNL     1       8.991  -2.631  23.419  0.00  0.00    +0.067 C 
BRANCH  39  40
ATOM     40  C   UNL     1       7.888  -3.531  22.901  0.00  0.00    -0.045 A 
ATOM     41  C   UNL     1       6.853  -3.009  22.117  0.00  0.00    +0.004 A 
ATOM     42  C   UNL     1       5.945  -3.866  21.489  0.00  0.00    +0.000 A 
ATOM     43  C   UNL     1       6.064  -5.246  21.646  0.00  0.00    +0.000 A 
ATOM     44  C   UNL     1       7.067  -5.772  22.458  0.00  0.00    +0.000 A 
ATOM     45  C   UNL     1       7.969  -4.917  23.092  0.00  0.00    +0.004 A 
ENDBRANCH  39  40
ENDBRANCH  26  39
ENDBRANCH   1  26
TORSDOF 16
ENDMDL
MODEL 8
REMARK VINA RESULT:      -5.7      2.554      8.150
REMARK  Name = 
REMARK  16 active torsions:
REMARK  status: ('A' for Active; 'I' for Inactive)
REMARK    1  A    between atoms: C_2  and  O_38
REMARK    2  A    between atoms: N_3  and  C_4
REMARK    3  A    between atoms: C_4  and  C_6
REMARK    4  A    between atoms: C_4  and  C_13
REMARK    5  A    between atoms: C_6  and  C_7
REMARK    6  A    between atoms: N_15  and  C_16
REMARK    7  A    between atoms: C_16  and  C_18
REMARK    8  A    between atoms: C_16  and  C_26
REMARK    9  A    between atoms: C_18  and  C_19
REMARK   10  A    between atoms: C_19  and  C_20
REMARK   11  A    between atoms: C_26  and  C_27
REMARK   12  A    between atoms: C_27  and  S_28
REMARK   13  A    between atoms: S_28  and  C_31
REMARK   14  A    between atoms: C_31  and  C_32
REMARK   15  A    between atoms: O_38  and  C_39
REMARK   16  A    between atoms: C_39  and  C_40
REMARK                            x       y       z     vdW  Elec       q    Type
REMARK                         _______ _______ _______ _____ _____    ______ ____
ROOT
ATOM      1  C   UNL     1       8.501  -1.912  25.865  0.00  0.00    +0.234 C 
ATOM      2  N   UNL     1       9.154  -1.688  24.686  0.00  0.00    -0.311 N 
ATOM      3  H   UNL     1       9.816  -2.432  24.482  0.00  0.00    +0.149 HD
ATOM      4  O   UNL     1       8.835  -2.895  26.533  0.00  0.00    -0.274 OA
ENDROOT
BRANCH   2   5
ATOM      5  C   UNL     1       8.870  -0.730  23.613  0.00  0.00    +0.075 C 
BRANCH   5   6
ATOM      6  C   UNL     1       8.083  -1.384  22.462  0.00  0.00    +0.027 C 
BRANCH   6   7
ATOM      7  C   UNL     1       6.775  -2.076  22.869  0.00  0.00    +0.037 C 
BRANCH   7   8
ATOM      8  C   UNL     1       6.783  -3.552  22.540  0.00  0.00    -0.047 A 
ATOM      9  C   UNL     1       6.086  -4.042  21.426  0.00  0.00    +0.003 A 
ATOM     10  C   UNL     1       6.099  -5.400  21.114  0.00  0.00    +0.000 A 
ATOM     11  C   UNL     1       6.806  -6.292  21.918  0.00  0.00    +0.000 A 
ATOM     12  C   UNL     1       7.496  -5.824  23.036  0.00  0.00    +0.000 A 
ATOM     13  C   UNL     1       7.485  -4.456  23.348  0.00  0.00    +0.003 A 
ENDBRANCH   7   8
ENDBRANCH   6   7
ENDBRANCH   5   6
BRANCH   5  14
ATOM     14  C   UNL     1      10.184  -0.077  23.164  0.00  0.00    +0.045 C 
BRANCH  14  15
ATOM     15  C   UNL     1      10.719   0.965  24.146  0.00  0.00    +0.168 C 
BRANCH  15  16
ATOM     16  S   UNL     1      10.079   2.582  23.736  0.00  0.00    -0.027 S 
ATOM     17  O   UNL     1      11.227   3.406  23.403  0.00  0.00    -0.174 OA
ATOM     18  O   UNL     1       9.168   2.948  24.805  0.00  0.00    -0.174 OA
BRANCH  16  19
ATOM     19  C   UNL     1       9.129   2.273  22.245  0.00  0.00    +0.201 C 
BRANCH  19  20
ATOM     20  C   UNL     1       7.766   2.890  22.402  0.00  0.00    -0.027 A 
ATOM     21  C   UNL     1       6.639   2.084  22.611  0.00  0.00    +0.005 A 
ATOM     22  C   UNL     1       5.382   2.658  22.805  0.00  0.00    +0.000 A 
ATOM     23  C   UNL     1       5.237   4.042  22.789  0.00  0.00    +0.000 A 
ATOM     24  C   UNL     1       6.349   4.855  22.577  0.00  0.00    +0.000 A 
ATOM     25  C   UNL     1       7.609   4.286  22.386  0.00  0.00    +0.005 A 
ENDBRANCH  19  20
ENDBRANCH  16  19
ENDBRANCH  15  16
ENDBRANCH  14  15
ENDBRANCH   5  14
ENDBRANCH   2   5
BRANCH   1  26
ATOM     26  C   UNL     1       7.381  -0.973  26.340  0.00  0.00    +0.166 C 
BRANCH  26  29
ATOM     27  O   UNL     1       4.648  -0.980  25.601  0.00  0.00    -0.226 OA
ATOM     28  C   UNL     1       5.082  -1.839  26.353  0.00  0.00    +0.401 C 
ATOM     29  N   UNL     1       6.335  -1.842  26.882  0.00  0.00    -0.269 N 
ATOM     30  H   UNL     1       6.608  -2.680  27.379  0.00  0.00    +0.153 HD
BRANCH  28  31
ATOM     31  O   UNL     1       4.412  -2.944  26.747  0.00  0.00    -0.446 OA
BRANCH  31  32
ATOM     32  C   UNL     1       5.107  -4.185  26.550  0.00  0.00    +0.269 C 
BRANCH  32  33
ATOM     33  C   UNL     1       4.463  -5.000  25.451  0.00  0.00    -0.010 A 
ATOM     34  C   UNL     1       4.652  -6.386  25.351  0.00  0.00    +0.007 A 
ATOM     35  C   UNL     1       4.065  -7.109  24.310  0.00  0.00    +0.000 A 
ATOM     36  C   UNL     1       3.297  -6.454  23.350  0.00  0.00    +0.000 A 
ATOM     37  C   UNL     1       3.128  -5.073  23.420  0.00  0.00    +0.000 A 
ATOM     38  C   UNL     1       3.714  -4.349  24.459  0.00  0.00    +0.007 A 
ENDBRANCH  32  33
ENDBRANCH  31  32
ENDBRANCH  28  31
ENDBRANCH  26  29
BRANCH  26  39
ATOM     39  C   UNL     1       7.931   0.006  27.394  0.00  0.00    +0.067 C 
BRANCH  39  40
ATOM     40  C   UNL     1       7.026   1.212  27.524  0.00  0.00    -0.045 A 
ATOM     41  C   UNL     1       6.810   1.810  28.772  0.00  0.00    +0.004 A 
ATOM     42  C   UNL     1       6.129   3.026  28.861  0.00  0.00    +0.000 A 
ATOM     43  C   UNL     1       5.656   3.649  27.707  0.00  0.00    +0.000 A 
ATOM     44  C   UNL     1       5.830   3.041  26.466  0.00  0.00    +0.000 A 
ATOM     45  C   UNL     1       6.503   1.823  26.375  0.00  0.00    +0.004 A 
ENDBRANCH  39  40
ENDBRANCH  26  39
ENDBRANCH   1  26
TORSDOF 16
ENDMDL
MODEL 9
REMARK VINA RESULT:      -5.6      1.914      8.191
REMARK  Name = 
REMARK  16 active torsions:
REMARK  status: ('A' for Active; 'I' for Inactive)
REMARK    1  A    between atoms: C_2  and  O_38
REMARK    2  A    between atoms: N_3  and  C_4
REMARK    3  A    between atoms: C_4  and  C_6
REMARK    4  A    between atoms: C_4  and  C_13
REMARK    5  A    between atoms: C_6  and  C_7
REMARK    6  A    between atoms: N_15  and  C_16
REMARK    7  A    between atoms: C_16  and  C_18
REMARK    8  A    between atoms: C_16  and  C_26
REMARK    9  A    between atoms: C_18  and  C_19
REMARK   10  A    between atoms: C_19  and  C_20
REMARK   11  A    between atoms: C_26  and  C_27
REMARK   12  A    between atoms: C_27  and  S_28
REMARK   13  A    between atoms: S_28  and  C_31
REMARK   14  A    between atoms: C_31  and  C_32
REMARK   15  A    between atoms: O_38  and  C_39
REMARK   16  A    between atoms: C_39  and  C_40
REMARK                            x       y       z     vdW  Elec       q    Type
REMARK                         _______ _______ _______ _____ _____    ______ ____
ROOT
ATOM      1  C   UNL     1       7.222  -1.715  23.658  0.00  0.00    +0.234 C 
ATOM      2  N   UNL     1       6.291  -1.085  24.433  0.00  0.00    -0.311 N 
ATOM      3  H   UNL     1       5.418  -0.952  23.930  0.00  0.00    +0.149 HD
ATOM      4  O   UNL     1       6.926  -1.961  22.484  0.00  0.00    -0.274 OA
ENDROOT
BRANCH   2   5
ATOM      5  C   UNL     1       6.280  -0.824  25.876  0.00  0.00    +0.075 C 
BRANCH   5   6
ATOM      6  C   UNL     1       5.121  -1.558  26.577  0.00  0.00    +0.027 C 
BRANCH   6   7
ATOM      7  C   UNL     1       4.221  -2.395  25.658  0.00  0.00    +0.037 C 
BRANCH   7   8
ATOM      8  C   UNL     1       3.324  -3.331  26.434  0.00  0.00    -0.047 A 
ATOM      9  C   UNL     1       3.641  -3.703  27.749  0.00  0.00    +0.003 A 
ATOM     10  C   UNL     1       2.811  -4.558  28.471  0.00  0.00    +0.000 A 
ATOM     11  C   UNL     1       1.651  -5.060  27.885  0.00  0.00    +0.000 A 
ATOM     12  C   UNL     1       1.325  -4.709  26.576  0.00  0.00    +0.000 A 
ATOM     13  C   UNL     1       2.158  -3.846  25.850  0.00  0.00    +0.003 A 
ENDBRANCH   7   8
ENDBRANCH   6   7
ENDBRANCH   5   6
BRANCH   5  14
ATOM     14  C   UNL     1       6.276   0.692  26.111  0.00  0.00    +0.045 C 
BRANCH  14  15
ATOM     15  C   UNL     1       4.912   1.345  25.887  0.00  0.00    +0.168 C 
BRANCH  15  16
ATOM     16  S   UNL     1       5.067   2.722  24.760  0.00  0.00    -0.027 S 
ATOM     17  O   UNL     1       5.056   3.923  25.575  0.00  0.00    -0.174 OA
ATOM     18  O   UNL     1       4.086   2.509  23.711  0.00  0.00    -0.174 OA
BRANCH  16  19
ATOM     19  C   UNL     1       6.710   2.497  24.073  0.00  0.00    +0.201 C 
BRANCH  19  20
ATOM     20  C   UNL     1       7.270   3.844  23.704  0.00  0.00    -0.027 A 
ATOM     21  C   UNL     1       8.191   4.486  24.543  0.00  0.00    +0.005 A 
ATOM     22  C   UNL     1       8.748   5.712  24.178  0.00  0.00    +0.000 A 
ATOM     23  C   UNL     1       8.388   6.312  22.974  0.00  0.00    +0.000 A 
ATOM     24  C   UNL     1       7.470   5.686  22.134  0.00  0.00    +0.000 A 
ATOM     25  C   UNL     1       6.912   4.457  22.492  0.00  0.00    +0.005 A 
ENDBRANCH  19  20
ENDBRANCH  16  19
ENDBRANCH  15  16
ENDBRANCH  14  15
ENDBRANCH   5  14
ENDBRANCH   2   5
BRANCH   1  26
ATOM     26  C   UNL     1       8.592  -2.113  24.230  0.00  0.00    +0.166 C 
BRANCH  26  29
ATOM     27  O   UNL     1       8.575  -3.374  26.764  0.00  0.00    -0.226 OA
ATOM     28  C   UNL     1       8.385  -4.030  25.752  0.00  0.00    +0.401 C 
ATOM     29  N   UNL     1       8.515  -3.552  24.485  0.00  0.00    -0.269 N 
ATOM     30  H   UNL     1       8.198  -4.162  23.743  0.00  0.00    +0.153 HD
BRANCH  28  31
ATOM     31  O   UNL     1       7.972  -5.317  25.719  0.00  0.00    -0.446 OA
BRANCH  31  32
ATOM     32  C   UNL     1       6.859  -5.625  26.572  0.00  0.00    +0.269 C 
BRANCH  32  33
ATOM     33  C   UNL     1       5.658  -6.058  25.762  0.00  0.00    -0.010 A 
ATOM     34  C   UNL     1       4.702  -6.947  26.273  0.00  0.00    +0.007 A 
ATOM     35  C   UNL     1       3.617  -7.350  25.492  0.00  0.00    +0.000 A 
ATOM     36  C   UNL     1       3.482  -6.881  24.188  0.00  0.00    +0.000 A 
ATOM     37  C   UNL     1       4.442  -6.023  23.656  0.00  0.00    +0.000 A 
ATOM     38  C   UNL     1       5.528  -5.619  24.435  0.00  0.00    +0.007 A 
ENDBRANCH  32  33
ENDBRANCH  31  32
ENDBRANCH  28  31
ENDBRANCH  26  29
BRANCH  26  39
ATOM     39  C   UNL     1       9.702  -1.756  23.224  0.00  0.00    +0.067 C 
BRANCH  39  40
ATOM     40  C   UNL     1       9.879  -0.255  23.137  0.00  0.00    -0.045 A 
ATOM     41  C   UNL     1      10.407   0.464  24.217  0.00  0.00    +0.004 A 
ATOM     42  C   UNL     1      10.741   1.812  24.069  0.00  0.00    +0.000 A 
ATOM     43  C   UNL     1      10.546   2.450  22.845  0.00  0.00    +0.000 A 
ATOM     44  C   UNL     1       9.983   1.753  21.778  0.00  0.00    +0.000 A 
ATOM     45  C   UNL     1       9.641   0.410  21.926  0.00  0.00    +0.004 A 
ENDBRANCH  39  40
ENDBRANCH  26  39
ENDBRANCH   1  26
TORSDOF 16
ENDMDL
