MODEL 1
REMARK VINA RESULT:      -6.6      0.000      0.000
REMARK  Name = 
REMARK  5 active torsions:
REMARK  status: ('A' for Active; 'I' for Inactive)
REMARK    1  A    between atoms: C_4  and  O_6
REMARK    2  A    between atoms: C_7  and  C_9
REMARK    3  A    between atoms: C_9  and  O_10
REMARK    4  A    between atoms: C_12  and  N_14
REMARK    5  A    between atoms: C_18  and  N_19
REMARK                            x       y       z     vdW  Elec       q    Type
REMARK                         _______ _______ _______ _____ _____    ______ ____
ROOT
ATOM      1  N   UNL     1       8.506  -1.791  24.424  0.00  0.00    -0.285 N 
ATOM      2  C   UNL     1       8.160  -2.836  25.241  0.00  0.00    +0.169 A 
ATOM      3  C   UNL     1       9.108  -3.815  24.989  0.00  0.00    +0.147 A 
ATOM      4  C   UNL     1       8.983  -5.019  25.703  0.00  0.00    +0.149 A 
ATOM      5  N   UNL     1       7.982  -5.139  26.600  0.00  0.00    -0.201 NA
ATOM      6  C   UNL     1       7.135  -4.099  26.735  0.00  0.00    +0.226 A 
ATOM      7 CL   UNL     1       5.881  -4.318  27.881  0.00  0.00    -0.041 Cl
ATOM      8  N   UNL     1      10.024  -3.380  24.055  0.00  0.00    -0.231 NA
ATOM      9  N   UNL     1       7.132  -2.905  26.102  0.00  0.00    -0.198 NA
ATOM     10  C   UNL     1       9.635  -2.161  23.744  0.00  0.00    +0.203 A 
ENDROOT
BRANCH   1  13
ATOM     11  C   UNL     1       8.407   0.625  25.083  0.00  0.00    +0.246 C 
ATOM     12  F   UNL     1       9.284   0.230  26.033  0.00  0.00    -0.238 F 
ATOM     13  C   UNL     1       7.782  -0.541  24.320  0.00  0.00    +0.259 C 
ATOM     14  O   UNL     1       7.699  -0.154  22.923  0.00  0.00    -0.345 OA
ATOM     15  C   UNL     1       8.162   1.210  22.823  0.00  0.00    +0.178 C 
ATOM     16  C   UNL     1       9.116   1.409  23.993  0.00  0.00    +0.184 C 
BRANCH  16  17
ATOM     17  O   UNL     1       9.308   2.788  24.289  0.00  0.00    -0.386 OA
ATOM     18  H   UNL     1      10.219   3.055  24.084  0.00  0.00    +0.210 HD
ENDBRANCH  16  17
BRANCH  15  19
ATOM     19  C   UNL     1       8.797   1.460  21.458  0.00  0.00    +0.190 C 
BRANCH  19  20
ATOM     20  O   UNL     1      10.017   2.184  21.589  0.00  0.00    -0.392 OA
ATOM     21  H   UNL     1       9.803   3.117  21.414  0.00  0.00    +0.210 HD
ENDBRANCH  19  20
ENDBRANCH  15  19
ENDBRANCH   1  13
BRANCH   4  22
ATOM     22  N   UNL     1       9.857  -6.086  25.541  0.00  0.00    -0.341 N 
ATOM     23  H   UNL     1      10.823  -5.829  25.694  0.00  0.00    +0.144 HD
ATOM     24  H   UNL     1       9.646  -6.667  24.736  0.00  0.00    +0.144 HD
ENDBRANCH   4  22
TORSDOF 5
ENDMDL
MODEL 2
REMARK VINA RESULT:      -6.4      3.828      6.239
REMARK  Name = 
REMARK  5 active torsions:
REMARK  status: ('A' for Active; 'I' for Inactive)
REMARK    1  A    between atoms: C_4  and  O_6
REMARK    2  A    between atoms: C_7  and  C_9
REMARK    3  A    between atoms: C_9  and  O_10
REMARK    4  A    between atoms: C_12  and  N_14
REMARK    5  A    between atoms: C_18  and  N_19
REMARK                            x       y       z     vdW  Elec       q    Type
REMARK                         _______ _______ _______ _____ _____    ______ ____
ROOT
ATOM      1  N   UNL     1       8.434  -1.285  23.611  0.00  0.00    -0.285 N 
ATOM      2  C   UNL     1       8.144  -0.027  23.151  0.00  0.00    +0.169 A 
ATOM      3  C   UNL     1       9.361   0.490  22.736  0.00  0.00    +0.147 A 
ATOM      4  C   UNL     1       9.353   1.797  22.216  0.00  0.00    +0.149 A 
ATOM      5  N   UNL     1       8.174   2.449  22.124  0.00  0.00    -0.201 NA
ATOM      6  C   UNL     1       7.073   1.815  22.570  0.00  0.00    +0.226 A 
ATOM      7 CL   UNL     1       5.612   2.700  22.435  0.00  0.00    -0.041 Cl
ATOM      8  N   UNL     1      10.371  -0.429  22.919  0.00  0.00    -0.231 NA
ATOM      9  N   UNL     1       6.948   0.580  23.105  0.00  0.00    -0.198 NA
ATOM     10  C   UNL     1       9.778  -1.483  23.439  0.00  0.00    +0.203 A 
ENDROOT
BRANCH   1  13
ATOM     11  C   UNL     1       6.911  -3.231  23.189  0.00  0.00    +0.246 C 
ATOM     12  F   UNL     1       7.088  -2.875  21.896  0.00  0.00    -0.238 F 
ATOM     13  C   UNL     1       7.470  -2.207  24.175  0.00  0.00    +0.259 C 
ATOM     14  O   UNL     1       8.094  -2.942  25.260  0.00  0.00    -0.345 OA
ATOM     15  C   UNL     1       7.866  -4.347  25.019  0.00  0.00    +0.178 C 
ATOM     16  C   UNL     1       7.700  -4.487  23.512  0.00  0.00    +0.184 C 
BRANCH  16  17
ATOM     17  O   UNL     1       7.045  -5.701  23.162  0.00  0.00    -0.386 OA
ATOM     18  H   UNL     1       6.383  -5.935  23.834  0.00  0.00    +0.210 HD
ENDBRANCH  16  17
BRANCH  15  19
ATOM     19  C   UNL     1       9.007  -5.181  25.596  0.00  0.00    +0.190 C 
BRANCH  19  20
ATOM     20  O   UNL     1       9.707  -5.870  24.563  0.00  0.00    -0.392 OA
ATOM     21  H   UNL     1      10.633  -5.933  24.854  0.00  0.00    +0.210 HD
ENDBRANCH  19  20
ENDBRANCH  15  19
ENDBRANCH   1  13
BRANCH   4  22
ATOM     22  N   UNL     1      10.501   2.440  21.774  0.00  0.00    -0.341 N 
ATOM     23  H   UNL     1      11.348   1.940  22.012  0.00  0.00    +0.144 HD
ATOM     24  H   UNL     1      10.489   3.444  21.925  0.00  0.00    +0.144 HD
ENDBRANCH   4  22
TORSDOF 5
ENDMDL
MODEL 3
REMARK VINA RESULT:      -6.2      2.408      2.963
REMARK  Name = 
REMARK  5 active torsions:
REMARK  status: ('A' for Active; 'I' for Inactive)
REMARK    1  A    between atoms: C_4  and  O_6
REMARK    2  A    between atoms: C_7  and  C_9
REMARK    3  A    between atoms: C_9  and  O_10
REMARK    4  A    between atoms: C_12  and  N_14
REMARK    5  A    between atoms: C_18  and  N_19
REMARK                            x       y       z     vdW  Elec       q    Type
REMARK                         _______ _______ _______ _____ _____    ______ ____
ROOT
ATOM      1  N   UNL     1       8.018  -1.113  23.526  0.00  0.00    -0.285 N 
ATOM      2  C   UNL     1       8.165  -2.431  23.873  0.00  0.00    +0.169 A 
ATOM      3  C   UNL     1       7.044  -3.062  23.356  0.00  0.00    +0.147 A 
ATOM      4  C   UNL     1       6.936  -4.446  23.579  0.00  0.00    +0.149 A 
ATOM      5  N   UNL     1       7.929  -5.074  24.244  0.00  0.00    -0.201 NA
ATOM      6  C   UNL     1       8.956  -4.324  24.687  0.00  0.00    +0.226 A 
ATOM      7 CL   UNL     1      10.177  -5.179  25.532  0.00  0.00    -0.041 Cl
ATOM      8  N   UNL     1       6.237  -2.163  22.695  0.00  0.00    -0.231 NA
ATOM      9  N   UNL     1       9.170  -2.996  24.559  0.00  0.00    -0.198 NA
ATOM     10  C   UNL     1       6.855  -1.006  22.811  0.00  0.00    +0.203 A 
ENDROOT
BRANCH   1  13
ATOM     11  C   UNL     1       9.971   0.279  22.795  0.00  0.00    +0.246 C 
ATOM     12  F   UNL     1      10.116  -0.705  21.879  0.00  0.00    -0.238 F 
ATOM     13  C   UNL     1       8.942  -0.053  23.874  0.00  0.00    +0.259 C 
ATOM     14  O   UNL     1       8.192   1.160  24.149  0.00  0.00    -0.345 OA
ATOM     15  C   UNL     1       8.772   2.217  23.355  0.00  0.00    +0.178 C 
ATOM     16  C   UNL     1       9.405   1.531  22.151  0.00  0.00    +0.184 C 
BRANCH  16  17
ATOM     17  O   UNL     1      10.374   2.360  21.520  0.00  0.00    -0.386 OA
ATOM     18  H   UNL     1      10.862   1.858  20.846  0.00  0.00    +0.210 HD
ENDBRANCH  16  17
BRANCH  15  19
ATOM     19  C   UNL     1       7.714   3.254  22.990  0.00  0.00    +0.190 C 
BRANCH  19  20
ATOM     20  O   UNL     1       8.298   4.360  22.306  0.00  0.00    -0.392 OA
ATOM     21  H   UNL     1       7.587   5.012  22.180  0.00  0.00    +0.210 HD
ENDBRANCH  19  20
ENDBRANCH  15  19
ENDBRANCH   1  13
BRANCH   4  22
ATOM     22  N   UNL     1       5.862  -5.201  23.127  0.00  0.00    -0.341 N 
ATOM     23  H   UNL     1       6.094  -6.177  23.000  0.00  0.00    +0.144 HD
ATOM     24  H   UNL     1       5.323  -4.746  22.397  0.00  0.00    +0.144 HD
ENDBRANCH   4  22
TORSDOF 5
ENDMDL
MODEL 4
REMARK VINA RESULT:      -6.1      3.798      6.337
REMARK  Name = 
REMARK  5 active torsions:
REMARK  status: ('A' for Active; 'I' for Inactive)
REMARK    1  A    between atoms: C_4  and  O_6
REMARK    2  A    between atoms: C_7  and  C_9
REMARK    3  A    between atoms: C_9  and  O_10
REMARK    4  A    between atoms: C_12  and  N_14
REMARK    5  A    between atoms: C_18  and  N_19
REMARK                            x       y       z     vdW  Elec       q    Type
REMARK                         _______ _______ _______ _____ _____    ______ ____
ROOT
ATOM      1  N   UNL     1       7.821  -1.607  24.991  0.00  0.00    -0.285 N 
ATOM      2  C   UNL     1       7.948  -0.392  24.368  0.00  0.00    +0.169 A 
ATOM      3  C   UNL     1       7.950   0.537  25.397  0.00  0.00    +0.147 A 
ATOM      4  C   UNL     1       8.064   1.889  25.031  0.00  0.00    +0.149 A 
ATOM      5  N   UNL     1       8.194   2.197  23.722  0.00  0.00    -0.201 NA
ATOM      6  C   UNL     1       8.173   1.182  22.837  0.00  0.00    +0.226 A 
ATOM      7 CL   UNL     1       8.332   1.640  21.194  0.00  0.00    -0.041 Cl
ATOM      8  N   UNL     1       7.844  -0.087  26.620  0.00  0.00    -0.231 NA
ATOM      9  N   UNL     1       8.051  -0.146  23.053  0.00  0.00    -0.198 NA
ATOM     10  C   UNL     1       7.775  -1.372  26.339  0.00  0.00    +0.203 A 
ENDROOT
BRANCH   1  13
ATOM     11  C   UNL     1       9.070  -3.639  24.221  0.00  0.00    +0.246 C 
ATOM     12  F   UNL     1      10.148  -2.846  24.417  0.00  0.00    -0.238 F 
ATOM     13  C   UNL     1       7.745  -2.885  24.314  0.00  0.00    +0.259 C 
ATOM     14  O   UNL     1       6.805  -3.740  25.016  0.00  0.00    -0.345 OA
ATOM     15  C   UNL     1       7.470  -4.995  25.273  0.00  0.00    +0.178 C 
ATOM     16  C   UNL     1       8.957  -4.672  25.327  0.00  0.00    +0.184 C 
BRANCH  16  17
ATOM     17  O   UNL     1       9.757  -5.833  25.134  0.00  0.00    -0.386 OA
ATOM     18  H   UNL     1       9.342  -6.605  25.552  0.00  0.00    +0.210 HD
ENDBRANCH  16  17
BRANCH  15  19
ATOM     19  C   UNL     1       6.930  -5.635  26.549  0.00  0.00    +0.190 C 
BRANCH  19  20
ATOM     20  O   UNL     1       7.978  -5.865  27.487  0.00  0.00    -0.392 OA
ATOM     21  H   UNL     1       8.594  -6.488  27.064  0.00  0.00    +0.210 HD
ENDBRANCH  19  20
ENDBRANCH  15  19
ENDBRANCH   1  13
BRANCH   4  22
ATOM     22  N   UNL     1       8.069   2.924  25.957  0.00  0.00    -0.341 N 
ATOM     23  H   UNL     1       7.153   3.109  26.344  0.00  0.00    +0.144 HD
ATOM     24  H   UNL     1       8.630   3.721  25.674  0.00  0.00    +0.144 HD
ENDBRANCH   4  22
TORSDOF 5
ENDMDL
MODEL 5
REMARK VINA RESULT:      -6.0      3.859      5.991
REMARK  Name = 
REMARK  5 active torsions:
REMARK  status: ('A' for Active; 'I' for Inactive)
REMARK    1  A    between atoms: C_4  and  O_6
REMARK    2  A    between atoms: C_7  and  C_9
REMARK    3  A    between atoms: C_9  and  O_10
REMARK    4  A    between atoms: C_12  and  N_14
REMARK    5  A    between atoms: C_18  and  N_19
REMARK                            x       y       z     vdW  Elec       q    Type
REMARK                         _______ _______ _______ _____ _____    ______ ____
ROOT
ATOM      1  N   UNL     1       8.329  -1.668  23.076  0.00  0.00    -0.285 N 
ATOM      2  C   UNL     1       8.461  -0.365  23.479  0.00  0.00    +0.169 A 
ATOM      3  C   UNL     1       9.217   0.240  22.487  0.00  0.00    +0.147 A 
ATOM      4  C   UNL     1       9.513   1.604  22.656  0.00  0.00    +0.149 A 
ATOM      5  N   UNL     1       9.025   2.242  23.740  0.00  0.00    -0.201 NA
ATOM      6  C   UNL     1       8.304   1.519  24.620  0.00  0.00    +0.226 A 
ATOM      7 CL   UNL     1       7.723   2.385  25.978  0.00  0.00    -0.041 Cl
ATOM      8  N   UNL     1       9.529  -0.661  21.492  0.00  0.00    -0.231 NA
ATOM      9  N   UNL     1       7.968   0.211  24.587  0.00  0.00    -0.198 NA
ATOM     10  C   UNL     1       8.975  -1.792  21.875  0.00  0.00    +0.203 A 
ENDROOT
BRANCH   1  13
ATOM     11  C   UNL     1       6.110  -2.664  23.683  0.00  0.00    +0.246 C 
ATOM     12  F   UNL     1       5.643  -1.474  23.244  0.00  0.00    -0.238 F 
ATOM     13  C   UNL     1       7.631  -2.701  23.814  0.00  0.00    +0.259 C 
ATOM     14  O   UNL     1       8.078  -4.002  23.350  0.00  0.00    -0.345 OA
ATOM     15  C   UNL     1       6.901  -4.774  23.028  0.00  0.00    +0.178 C 
ATOM     16  C   UNL     1       5.825  -3.758  22.670  0.00  0.00    +0.184 C 
BRANCH  16  17
ATOM     17  O   UNL     1       4.520  -4.318  22.759  0.00  0.00    -0.386 OA
ATOM     18  H   UNL     1       3.861  -3.621  22.914  0.00  0.00    +0.210 HD
ENDBRANCH  16  17
BRANCH  15  19
ATOM     19  C   UNL     1       7.205  -5.771  21.913  0.00  0.00    +0.190 C 
BRANCH  19  20
ATOM     20  O   UNL     1       6.038  -6.507  21.556  0.00  0.00    -0.392 OA
ATOM     21  H   UNL     1       5.340  -6.233  22.176  0.00  0.00    +0.210 HD
ENDBRANCH  19  20
ENDBRANCH  15  19
ENDBRANCH   1  13
BRANCH   4  22
ATOM     22  N   UNL     1      10.269   2.330  21.746  0.00  0.00    -0.341 N 
ATOM     23  H   UNL     1      11.236   2.428  22.028  0.00  0.00    +0.144 HD
ATOM     24  H   UNL     1       9.796   3.154  21.389  0.00  0.00    +0.144 HD
ENDBRANCH   4  22
TORSDOF 5
ENDMDL
MODEL 6
REMARK VINA RESULT:      -6.0      2.331      2.897
REMARK  Name = 
REMARK  5 active torsions:
REMARK  status: ('A' for Active; 'I' for Inactive)
REMARK    1  A    between atoms: C_4  and  O_6
REMARK    2  A    between atoms: C_7  and  C_9
REMARK    3  A    between atoms: C_9  and  O_10
REMARK    4  A    between atoms: C_12  and  N_14
REMARK    5  A    between atoms: C_18  and  N_19
REMARK                            x       y       z     vdW  Elec       q    Type
REMARK                         _______ _______ _______ _____ _____    ______ ____
ROOT
ATOM      1  N   UNL     1       8.931  -1.099  23.915  0.00  0.00    -0.285 N 
ATOM      2  C   UNL     1       8.405  -2.365  23.901  0.00  0.00    +0.169 A 
ATOM      3  C   UNL     1       8.222  -2.689  25.236  0.00  0.00    +0.147 A 
ATOM      4  C   UNL     1       7.691  -3.961  25.514  0.00  0.00    +0.149 A 
ATOM      5  N   UNL     1       7.367  -4.767  24.480  0.00  0.00    -0.201 NA
ATOM      6  C   UNL     1       7.604  -4.312  23.234  0.00  0.00    +0.226 A 
ATOM      7 CL   UNL     1       7.181  -5.385  21.969  0.00  0.00    -0.041 Cl
ATOM      8  N   UNL     1       8.608  -1.647  26.050  0.00  0.00    -0.231 NA
ATOM      9  N   UNL     1       8.124  -3.130  22.835  0.00  0.00    -0.198 NA
ATOM     10  C   UNL     1       9.021  -0.708  25.224  0.00  0.00    +0.203 A 
ENDROOT
BRANCH   1  13
ATOM     11  C   UNL     1       8.222   0.562  22.176  0.00  0.00    +0.246 C 
ATOM     12  F   UNL     1       6.983   0.228  22.601  0.00  0.00    -0.238 F 
ATOM     13  C   UNL     1       9.314  -0.344  22.739  0.00  0.00    +0.259 C 
ATOM     14  O   UNL     1      10.454   0.495  23.065  0.00  0.00    -0.345 OA
ATOM     15  C   UNL     1      10.133   1.840  22.649  0.00  0.00    +0.178 C 
ATOM     16  C   UNL     1       8.614   1.935  22.692  0.00  0.00    +0.184 C 
BRANCH  16  17
ATOM     17  O   UNL     1       8.130   3.019  21.908  0.00  0.00    -0.386 OA
ATOM     18  H   UNL     1       7.471   3.531  22.406  0.00  0.00    +0.210 HD
ENDBRANCH  16  17
BRANCH  15  19
ATOM     19  C   UNL     1      10.841   2.858  23.538  0.00  0.00    +0.190 C 
BRANCH  19  20
ATOM     20  O   UNL     1      10.584   4.188  23.095  0.00  0.00    -0.392 OA
ATOM     21  H   UNL     1      11.325   4.732  23.415  0.00  0.00    +0.210 HD
ENDBRANCH  19  20
ENDBRANCH  15  19
ENDBRANCH   1  13
BRANCH   4  22
ATOM     22  N   UNL     1       7.466  -4.419  26.805  0.00  0.00    -0.341 N 
ATOM     23  H   UNL     1       8.274  -4.315  27.405  0.00  0.00    +0.144 HD
ATOM     24  H   UNL     1       6.962  -5.299  26.843  0.00  0.00    +0.144 HD
ENDBRANCH   4  22
TORSDOF 5
ENDMDL
MODEL 7
REMARK VINA RESULT:      -6.0      4.147      6.725
REMARK  Name = 
REMARK  5 active torsions:
REMARK  status: ('A' for Active; 'I' for Inactive)
REMARK    1  A    between atoms: C_4  and  O_6
REMARK    2  A    between atoms: C_7  and  C_9
REMARK    3  A    between atoms: C_9  and  O_10
REMARK    4  A    between atoms: C_12  and  N_14
REMARK    5  A    between atoms: C_18  and  N_19
REMARK                            x       y       z     vdW  Elec       q    Type
REMARK                         _______ _______ _______ _____ _____    ______ ____
ROOT
ATOM      1  N   UNL     1       6.566  -2.678  24.654  0.00  0.00    -0.285 N 
ATOM      2  C   UNL     1       7.072  -1.650  23.903  0.00  0.00    +0.169 A 
ATOM      3  C   UNL     1       6.226  -0.580  24.146  0.00  0.00    +0.147 A 
ATOM      4  C   UNL     1       6.517   0.625  23.482  0.00  0.00    +0.149 A 
ATOM      5  N   UNL     1       7.604   0.677  22.683  0.00  0.00    -0.201 NA
ATOM      6  C   UNL     1       8.332  -0.448  22.544  0.00  0.00    +0.226 A 
ATOM      7 CL   UNL     1       9.691  -0.319  21.510  0.00  0.00    -0.041 Cl
ATOM      8  N   UNL     1       5.235  -0.932  25.036  0.00  0.00    -0.231 NA
ATOM      9  N   UNL     1       8.152  -1.664  23.104  0.00  0.00    -0.198 NA
ATOM     10  C   UNL     1       5.474  -2.195  25.324  0.00  0.00    +0.203 A 
ENDROOT
BRANCH   1  13
ATOM     11  C   UNL     1       7.993  -4.309  25.914  0.00  0.00    +0.246 C 
ATOM     12  F   UNL     1       8.446  -3.190  26.521  0.00  0.00    -0.238 F 
ATOM     13  C   UNL     1       7.109  -4.020  24.702  0.00  0.00    +0.259 C 
ATOM     14  O   UNL     1       6.016  -4.975  24.721  0.00  0.00    -0.345 OA
ATOM     15  C   UNL     1       6.244  -5.872  25.829  0.00  0.00    +0.178 C 
ATOM     16  C   UNL     1       7.069  -5.083  26.837  0.00  0.00    +0.184 C 
BRANCH  16  17
ATOM     17  O   UNL     1       7.737  -5.938  27.758  0.00  0.00    -0.386 OA
ATOM     18  H   UNL     1       8.642  -6.121  27.457  0.00  0.00    +0.210 HD
ENDBRANCH  16  17
BRANCH  15  19
ATOM     19  C   UNL     1       4.918  -6.385  26.383  0.00  0.00    +0.190 C 
BRANCH  19  20
ATOM     20  O   UNL     1       5.133  -7.316  27.441  0.00  0.00    -0.392 OA
ATOM     21  H   UNL     1       6.003  -7.721  27.277  0.00  0.00    +0.210 HD
ENDBRANCH  19  20
ENDBRANCH  15  19
ENDBRANCH   1  13
BRANCH   4  22
ATOM     22  N   UNL     1       5.747   1.771  23.627  0.00  0.00    -0.341 N 
ATOM     23  H   UNL     1       5.890   2.437  22.878  0.00  0.00    +0.144 HD
ATOM     24  H   UNL     1       5.722   2.128  24.576  0.00  0.00    +0.144 HD
ENDBRANCH   4  22
TORSDOF 5
ENDMDL
MODEL 8
REMARK VINA RESULT:      -5.9      4.367      6.444
REMARK  Name = 
REMARK  5 active torsions:
REMARK  status: ('A' for Active; 'I' for Inactive)
REMARK    1  A    between atoms: C_4  and  O_6
REMARK    2  A    between atoms: C_7  and  C_9
REMARK    3  A    between atoms: C_9  and  O_10
REMARK    4  A    between atoms: C_12  and  N_14
REMARK    5  A    between atoms: C_18  and  N_19
REMARK                            x       y       z     vdW  Elec       q    Type
REMARK                         _______ _______ _______ _____ _____    ______ ____
ROOT
ATOM      1  N   UNL     1       6.457  -2.688  23.898  0.00  0.00    -0.285 N 
ATOM      2  C   UNL     1       7.339  -1.655  23.711  0.00  0.00    +0.169 A 
ATOM      3  C   UNL     1       7.886  -1.423  24.964  0.00  0.00    +0.147 A 
ATOM      4  C   UNL     1       8.835  -0.391  25.061  0.00  0.00    +0.149 A 
ATOM      5  N   UNL     1       9.175   0.284  23.942  0.00  0.00    -0.201 NA
ATOM      6  C   UNL     1       8.555  -0.056  22.795  0.00  0.00    +0.226 A 
ATOM      7 CL   UNL     1       9.023   0.844  21.415  0.00  0.00    -0.041 Cl
ATOM      8  N   UNL     1       7.369  -2.299  25.893  0.00  0.00    -0.231 NA
ATOM      9  N   UNL     1       7.620  -1.005  22.571  0.00  0.00    -0.198 NA
ATOM     10  C   UNL     1       6.521  -3.047  25.217  0.00  0.00    +0.203 A 
ENDROOT
BRANCH   1  13
ATOM     11  C   UNL     1       6.313  -4.311  21.993  0.00  0.00    +0.246 C 
ATOM     12  F   UNL     1       7.662  -4.245  22.053  0.00  0.00    -0.238 F 
ATOM     13  C   UNL     1       5.622  -3.265  22.865  0.00  0.00    +0.259 C 
ATOM     14  O   UNL     1       4.473  -3.903  23.484  0.00  0.00    -0.345 OA
ATOM     15  C   UNL     1       4.393  -5.248  22.964  0.00  0.00    +0.178 C 
ATOM     16  C   UNL     1       5.815  -5.624  22.569  0.00  0.00    +0.184 C 
BRANCH  16  17
ATOM     17  O   UNL     1       5.838  -6.715  21.655  0.00  0.00    -0.386 OA
ATOM     18  H   UNL     1       5.050  -6.698  21.087  0.00  0.00    +0.210 HD
ENDBRANCH  16  17
BRANCH  15  19
ATOM     19  C   UNL     1       3.770  -6.184  23.997  0.00  0.00    +0.190 C 
BRANCH  19  20
ATOM     20  O   UNL     1       4.385  -7.469  23.955  0.00  0.00    -0.392 OA
ATOM     21  H   UNL     1       4.262  -7.803  23.049  0.00  0.00    +0.210 HD
ENDBRANCH  19  20
ENDBRANCH  15  19
ENDBRANCH   1  13
BRANCH   4  22
ATOM     22  N   UNL     1       9.454  -0.045  26.255  0.00  0.00    -0.341 N 
ATOM     23  H   UNL     1       9.417  -0.784  26.945  0.00  0.00    +0.144 HD
ATOM     24  H   UNL     1       9.244   0.898  26.564  0.00  0.00    +0.144 HD
ENDBRANCH   4  22
TORSDOF 5
ENDMDL
MODEL 9
REMARK VINA RESULT:      -5.9      4.673      6.965
REMARK  Name = 
REMARK  5 active torsions:
REMARK  status: ('A' for Active; 'I' for Inactive)
REMARK    1  A    between atoms: C_4  and  O_6
REMARK    2  A    between atoms: C_7  and  C_9
REMARK    3  A    between atoms: C_9  and  O_10
REMARK    4  A    between atoms: C_12  and  N_14
REMARK    5  A    between atoms: C_18  and  N_19
REMARK                            x       y       z     vdW  Elec       q    Type
REMARK                         _______ _______ _______ _____ _____    ______ ____
ROOT
ATOM      1  N   UNL     1       9.155   1.447  23.170  0.00  0.00    -0.285 N 
ATOM      2  C   UNL     1       9.752   2.660  23.396  0.00  0.00    +0.169 A 
ATOM      3  C   UNL     1       8.771   3.434  23.995  0.00  0.00    +0.147 A 
ATOM      4  C   UNL     1       9.121   4.753  24.333  0.00  0.00    +0.149 A 
ATOM      5  N   UNL     1      10.381   5.172  24.086  0.00  0.00    -0.201 NA
ATOM      6  C   UNL     1      11.224   4.302  23.496  0.00  0.00    +0.226 A 
ATOM      7 CL   UNL     1      12.803   4.898  23.201  0.00  0.00    -0.041 Cl
ATOM      8  N   UNL     1       7.607   2.715  24.151  0.00  0.00    -0.231 NA
ATOM      9  N   UNL     1      11.011   3.027  23.106  0.00  0.00    -0.198 NA
ATOM     10  C   UNL     1       7.876   1.526  23.651  0.00  0.00    +0.203 A 
ENDROOT
BRANCH   1  13
ATOM     11  C   UNL     1      10.527  -0.627  23.483  0.00  0.00    +0.246 C 
ATOM     12  F   UNL     1      10.809  -0.060  24.678  0.00  0.00    -0.238 F 
ATOM     13  C   UNL     1       9.790   0.312  22.532  0.00  0.00    +0.259 C 
ATOM     14  O   UNL     1       8.781  -0.470  21.840  0.00  0.00    -0.345 OA
ATOM     15  C   UNL     1       8.931  -1.842  22.265  0.00  0.00    +0.178 C 
ATOM     16  C   UNL     1       9.554  -1.779  23.653  0.00  0.00    +0.184 C 
BRANCH  16  17
ATOM     17  O   UNL     1      10.160  -3.015  24.016  0.00  0.00    -0.386 OA
ATOM     18  H   UNL     1      10.423  -3.002  24.951  0.00  0.00    +0.210 HD
ENDBRANCH  16  17
BRANCH  15  19
ATOM     19  C   UNL     1       7.588  -2.565  22.222  0.00  0.00    +0.190 C 
BRANCH  19  20
ATOM     20  O   UNL     1       7.729  -3.926  22.621  0.00  0.00    -0.392 OA
ATOM     21  H   UNL     1       7.867  -4.439  21.806  0.00  0.00    +0.210 HD
ENDBRANCH  19  20
ENDBRANCH  15  19
ENDBRANCH   1  13
BRANCH   4  22
ATOM     22  N   UNL     1       8.234   5.640  24.928  0.00  0.00    -0.341 N 
ATOM     23  H   UNL     1       8.305   6.577  24.553  0.00  0.00    +0.144 HD
ATOM     24  H   UNL     1       8.172   5.539  25.936  0.00  0.00    +0.144 HD
ENDBRANCH   4  22
TORSDOF 5
ENDMDL
