MODEL 1
REMARK VINA RESULT:      -4.6      0.000      0.000
REMARK  Name = 
REMARK  9 active torsions:
REMARK  status: ('A' for Active; 'I' for Inactive)
REMARK    1  A    between atoms: N_1  and  C_2
REMARK    2  A    between atoms: C_2  and  C_4
REMARK    3  A    between atoms: C_2  and  C_12
REMARK    4  A    between atoms: C_4  and  C_5
REMARK    5  A    between atoms: C_5  and  C_6
REMARK    6  A    between atoms: C_6  and  C_7
REMARK    7  A    between atoms: C_7  and  N_8
REMARK    8  A    between atoms: C_9  and  O_10
REMARK    9  A    between atoms: C_12  and  O_13
REMARK                            x       y       z     vdW  Elec       q    Type
REMARK                         _______ _______ _______ _____ _____    ______ ____
ROOT
ATOM      1  C   UNK     1       8.845  -3.247  25.885  0.00  0.00    +0.030 C 
ENDROOT
BRANCH   1   2
ATOM      2  C   UNK     1       9.098  -4.701  26.304  0.00  0.00    +0.161 C 
BRANCH   2   3
ATOM      3  N   UNK     1       9.932  -5.437  25.306  0.00  0.00    -0.318 NA
ATOM      4  H   UNK     1       9.789  -6.444  25.445  0.00  0.00    +0.119 HD
ATOM      5  H   UNK     1       9.536  -5.258  24.378  0.00  0.00    +0.119 HD
ENDBRANCH   2   3
BRANCH   2   6
ATOM      6  C   UNK     1       7.759  -5.449  26.459  0.00  0.00    +0.322 C 
ATOM      7  O   UNK     1       6.896  -5.538  25.601  0.00  0.00    -0.249 OA
BRANCH   6   8
ATOM      8  O   UNK     1       7.643  -5.996  27.697  0.00  0.00    -0.480 OA
ATOM      9  H   UNK     1       7.823  -6.963  27.575  0.00  0.00    +0.295 HD
ENDBRANCH   6   8
ENDBRANCH   2   6
ENDBRANCH   1   2
BRANCH   1  10
ATOM     10  C   UNK     1       9.048  -3.007  24.386  0.00  0.00    +0.004 C 
BRANCH  10  11
ATOM     11  C   UNK     1       7.729  -2.687  23.678  0.00  0.00    +0.019 C 
BRANCH  11  12
ATOM     12  C   UNK     1       7.603  -3.477  22.377  0.00  0.00    +0.107 C 
BRANCH  12  13
ATOM     13  N   UNK     1       7.249  -4.861  22.615  0.00  0.00    -0.281 N 
ATOM     14  H   UNK     1       7.685  -5.323  23.397  0.00  0.00    +0.152 HD
ATOM     15  C   UNK     1       6.450  -5.544  21.747  0.00  0.00    +0.398 C 
ATOM     16  O   UNK     1       5.961  -5.092  20.726  0.00  0.00    -0.227 OA
BRANCH  15  17
ATOM     17  O   UNK     1       6.250  -6.806  22.153  0.00  0.00    -0.466 OA
ATOM     18  H   UNK     1       7.064  -7.220  22.476  0.00  0.00    +0.297 HD
ENDBRANCH  15  17
ENDBRANCH  12  13
ENDBRANCH  11  12
ENDBRANCH  10  11
ENDBRANCH   1  10
TORSDOF 9
ENDMDL
MODEL 2
REMARK VINA RESULT:      -4.6      3.904      4.519
REMARK  Name = 
REMARK  9 active torsions:
REMARK  status: ('A' for Active; 'I' for Inactive)
REMARK    1  A    between atoms: N_1  and  C_2
REMARK    2  A    between atoms: C_2  and  C_4
REMARK    3  A    between atoms: C_2  and  C_12
REMARK    4  A    between atoms: C_4  and  C_5
REMARK    5  A    between atoms: C_5  and  C_6
REMARK    6  A    between atoms: C_6  and  C_7
REMARK    7  A    between atoms: C_7  and  N_8
REMARK    8  A    between atoms: C_9  and  O_10
REMARK    9  A    between atoms: C_12  and  O_13
REMARK                            x       y       z     vdW  Elec       q    Type
REMARK                         _______ _______ _______ _____ _____    ______ ____
ROOT
ATOM      1  C   UNK     1       8.567  -3.950  24.497  0.00  0.00    +0.030 C 
ENDROOT
BRANCH   1   2
ATOM      2  C   UNK     1       8.884  -4.599  25.851  0.00  0.00    +0.161 C 
BRANCH   2   3
ATOM      3  N   UNK     1      10.027  -5.557  25.761  0.00  0.00    -0.318 NA
ATOM      4  H   UNK     1      10.305  -5.638  24.776  0.00  0.00    +0.119 HD
ATOM      5  H   UNK     1      10.838  -5.117  26.209  0.00  0.00    +0.119 HD
ENDBRANCH   2   3
BRANCH   2   6
ATOM      6  C   UNK     1       7.653  -5.364  26.374  0.00  0.00    +0.322 C 
ATOM      7  O   UNK     1       6.570  -5.428  25.814  0.00  0.00    -0.249 OA
BRANCH   6   8
ATOM      8  O   UNK     1       7.915  -5.959  27.567  0.00  0.00    -0.480 OA
ATOM      9  H   UNK     1       7.075  -6.419  27.821  0.00  0.00    +0.295 HD
ENDBRANCH   6   8
ENDBRANCH   2   6
ENDBRANCH   1   2
BRANCH   1  10
ATOM     10  C   UNK     1       9.524  -2.811  24.134  0.00  0.00    +0.004 C 
BRANCH  10  11
ATOM     11  C   UNK     1       9.107  -2.109  22.839  0.00  0.00    +0.019 C 
BRANCH  11  12
ATOM     12  C   UNK     1      10.242  -1.240  22.300  0.00  0.00    +0.107 C 
BRANCH  12  13
ATOM     13  N   UNK     1       9.748  -0.070  21.606  0.00  0.00    -0.281 N 
ATOM     14  H   UNK     1       9.347  -0.207  20.692  0.00  0.00    +0.152 HD
ATOM     15  C   UNK     1       9.923   1.181  22.120  0.00  0.00    +0.398 C 
ATOM     16  O   UNK     1      10.482   1.445  23.170  0.00  0.00    -0.227 OA
BRANCH  15  17
ATOM     17  O   UNK     1       9.393   2.118  21.322  0.00  0.00    -0.466 OA
ATOM     18  H   UNK     1       9.063   2.881  21.821  0.00  0.00    +0.297 HD
ENDBRANCH  15  17
ENDBRANCH  12  13
ENDBRANCH  11  12
ENDBRANCH  10  11
ENDBRANCH   1  10
TORSDOF 9
ENDMDL
MODEL 3
REMARK VINA RESULT:      -4.5      7.676      8.738
REMARK  Name = 
REMARK  9 active torsions:
REMARK  status: ('A' for Active; 'I' for Inactive)
REMARK    1  A    between atoms: N_1  and  C_2
REMARK    2  A    between atoms: C_2  and  C_4
REMARK    3  A    between atoms: C_2  and  C_12
REMARK    4  A    between atoms: C_4  and  C_5
REMARK    5  A    between atoms: C_5  and  C_6
REMARK    6  A    between atoms: C_6  and  C_7
REMARK    7  A    between atoms: C_7  and  N_8
REMARK    8  A    between atoms: C_9  and  O_10
REMARK    9  A    between atoms: C_12  and  O_13
REMARK                            x       y       z     vdW  Elec       q    Type
REMARK                         _______ _______ _______ _____ _____    ______ ____
ROOT
ATOM      1  C   UNK     1       9.647   0.959  21.844  0.00  0.00    +0.030 C 
ENDROOT
BRANCH   1   2
ATOM      2  C   UNK     1      10.259  -0.347  22.368  0.00  0.00    +0.161 C 
BRANCH   2   3
ATOM      3  N   UNK     1       9.989  -1.500  21.456  0.00  0.00    -0.318 NA
ATOM      4  H   UNK     1       9.322  -1.194  20.737  0.00  0.00    +0.119 HD
ATOM      5  H   UNK     1      10.848  -1.687  20.929  0.00  0.00    +0.119 HD
ENDBRANCH   2   3
BRANCH   2   6
ATOM      6  C   UNK     1       9.680  -0.684  23.756  0.00  0.00    +0.322 C 
ATOM      7  O   UNK     1      10.169  -0.354  24.825  0.00  0.00    -0.249 OA
BRANCH   6   8
ATOM      8  O   UNK     1       8.546  -1.424  23.648  0.00  0.00    -0.480 OA
ATOM      9  H   UNK     1       8.222  -1.275  22.724  0.00  0.00    +0.295 HD
ENDBRANCH   6   8
ENDBRANCH   2   6
ENDBRANCH   1   2
BRANCH   1  10
ATOM     10  C   UNK     1      10.419   2.207  22.283  0.00  0.00    +0.004 C 
BRANCH  10  11
ATOM     11  C   UNK     1       9.597   3.078  23.236  0.00  0.00    +0.019 C 
BRANCH  11  12
ATOM     12  C   UNK     1      10.383   4.318  23.658  0.00  0.00    +0.107 C 
BRANCH  12  13
ATOM     13  N   UNK     1      11.768   4.251  23.238  0.00  0.00    -0.281 N 
ATOM     14  H   UNK     1      12.069   3.414  22.765  0.00  0.00    +0.152 HD
ATOM     15  C   UNK     1      12.654   5.230  23.574  0.00  0.00    +0.398 C 
ATOM     16  O   UNK     1      12.397   6.227  24.227  0.00  0.00    -0.227 OA
BRANCH  15  17
ATOM     17  O   UNK     1      13.877   4.973  23.089  0.00  0.00    -0.466 OA
ATOM     18  H   UNK     1      14.357   5.782  22.854  0.00  0.00    +0.297 HD
ENDBRANCH  15  17
ENDBRANCH  12  13
ENDBRANCH  11  12
ENDBRANCH  10  11
ENDBRANCH   1  10
TORSDOF 9
ENDMDL
MODEL 4
REMARK VINA RESULT:      -4.4      1.759      2.115
REMARK  Name = 
REMARK  9 active torsions:
REMARK  status: ('A' for Active; 'I' for Inactive)
REMARK    1  A    between atoms: N_1  and  C_2
REMARK    2  A    between atoms: C_2  and  C_4
REMARK    3  A    between atoms: C_2  and  C_12
REMARK    4  A    between atoms: C_4  and  C_5
REMARK    5  A    between atoms: C_5  and  C_6
REMARK    6  A    between atoms: C_6  and  C_7
REMARK    7  A    between atoms: C_7  and  N_8
REMARK    8  A    between atoms: C_9  and  O_10
REMARK    9  A    between atoms: C_12  and  O_13
REMARK                            x       y       z     vdW  Elec       q    Type
REMARK                         _______ _______ _______ _____ _____    ______ ____
ROOT
ATOM      1  C   UNK     1       8.397  -4.007  24.320  0.00  0.00    +0.030 C 
ENDROOT
BRANCH   1   2
ATOM      2  C   UNK     1       9.129  -4.545  25.557  0.00  0.00    +0.161 C 
BRANCH   2   3
ATOM      3  N   UNK     1       9.862  -5.814  25.268  0.00  0.00    -0.318 NA
ATOM      4  H   UNK     1       9.189  -6.590  25.292  0.00  0.00    +0.119 HD
ATOM      5  H   UNK     1      10.165  -5.783  24.289  0.00  0.00    +0.119 HD
ENDBRANCH   2   3
BRANCH   2   6
ATOM      6  C   UNK     1       8.122  -4.817  26.692  0.00  0.00    +0.322 C 
ATOM      7  O   UNK     1       7.419  -3.976  27.230  0.00  0.00    -0.249 OA
BRANCH   6   8
ATOM      8  O   UNK     1       8.122  -6.129  27.043  0.00  0.00    -0.480 OA
ATOM      9  H   UNK     1       7.740  -6.609  26.265  0.00  0.00    +0.295 HD
ENDBRANCH   6   8
ENDBRANCH   2   6
ENDBRANCH   1   2
BRANCH   1  10
ATOM     10  C   UNK     1       7.853  -5.113  23.411  0.00  0.00    +0.004 C 
BRANCH  10  11
ATOM     11  C   UNK     1       7.180  -4.542  22.161  0.00  0.00    +0.019 C 
BRANCH  11  12
ATOM     12  C   UNK     1       6.278  -5.585  21.502  0.00  0.00    +0.107 C 
BRANCH  12  13
ATOM     13  N   UNK     1       5.733  -6.517  22.467  0.00  0.00    -0.281 N 
ATOM     14  H   UNK     1       6.258  -7.358  22.648  0.00  0.00    +0.152 HD
ATOM     15  C   UNK     1       4.502  -6.321  23.019  0.00  0.00    +0.398 C 
ATOM     16  O   UNK     1       3.759  -5.384  22.783  0.00  0.00    -0.227 OA
BRANCH  15  17
ATOM     17  O   UNK     1       4.190  -7.298  23.882  0.00  0.00    -0.466 OA
ATOM     18  H   UNK     1       4.696  -7.235  24.706  0.00  0.00    +0.297 HD
ENDBRANCH  15  17
ENDBRANCH  12  13
ENDBRANCH  11  12
ENDBRANCH  10  11
ENDBRANCH   1  10
TORSDOF 9
ENDMDL
MODEL 5
REMARK VINA RESULT:      -4.4      3.052      3.570
REMARK  Name = 
REMARK  9 active torsions:
REMARK  status: ('A' for Active; 'I' for Inactive)
REMARK    1  A    between atoms: N_1  and  C_2
REMARK    2  A    between atoms: C_2  and  C_4
REMARK    3  A    between atoms: C_2  and  C_12
REMARK    4  A    between atoms: C_4  and  C_5
REMARK    5  A    between atoms: C_5  and  C_6
REMARK    6  A    between atoms: C_6  and  C_7
REMARK    7  A    between atoms: C_7  and  N_8
REMARK    8  A    between atoms: C_9  and  O_10
REMARK    9  A    between atoms: C_12  and  O_13
REMARK                            x       y       z     vdW  Elec       q    Type
REMARK                         _______ _______ _______ _____ _____    ______ ____
ROOT
ATOM      1  C   UNK     1       7.108  -4.229  25.223  0.00  0.00    +0.030 C 
ENDROOT
BRANCH   1   2
ATOM      2  C   UNK     1       8.124  -5.302  25.637  0.00  0.00    +0.161 C 
BRANCH   2   3
ATOM      3  N   UNK     1       8.118  -5.543  27.111  0.00  0.00    -0.318 NA
ATOM      4  H   UNK     1       9.057  -5.344  27.475  0.00  0.00    +0.119 HD
ATOM      5  H   UNK     1       7.530  -4.822  27.542  0.00  0.00    +0.119 HD
ENDBRANCH   2   3
BRANCH   2   6
ATOM      6  C   UNK     1       9.546  -4.874  25.223  0.00  0.00    +0.322 C 
ATOM      7  O   UNK     1       9.816  -3.946  24.478  0.00  0.00    -0.249 OA
BRANCH   6   8
ATOM      8  O   UNK     1      10.484  -5.681  25.785  0.00  0.00    -0.480 OA
ATOM      9  H   UNK     1      11.130  -5.877  25.060  0.00  0.00    +0.295 HD
ENDBRANCH   6   8
ENDBRANCH   2   6
ENDBRANCH   1   2
BRANCH   1  10
ATOM     10  C   UNK     1       6.301  -4.608  23.979  0.00  0.00    +0.004 C 
BRANCH  10  11
ATOM     11  C   UNK     1       6.072  -3.405  23.061  0.00  0.00    +0.019 C 
BRANCH  11  12
ATOM     12  C   UNK     1       7.069  -2.289  23.366  0.00  0.00    +0.107 C 
BRANCH  12  13
ATOM     13  N   UNK     1       8.258  -2.382  22.545  0.00  0.00    -0.281 N 
ATOM     14  H   UNK     1       8.652  -3.298  22.402  0.00  0.00    +0.152 HD
ATOM     15  C   UNK     1       8.884  -1.263  22.082  0.00  0.00    +0.398 C 
ATOM     16  O   UNK     1       8.532  -0.115  22.289  0.00  0.00    -0.227 OA
BRANCH  15  17
ATOM     17  O   UNK     1       9.961  -1.573  21.346  0.00  0.00    -0.466 OA
ATOM     18  H   UNK     1       9.921  -2.479  21.002  0.00  0.00    +0.297 HD
ENDBRANCH  15  17
ENDBRANCH  12  13
ENDBRANCH  11  12
ENDBRANCH  10  11
ENDBRANCH   1  10
TORSDOF 9
ENDMDL
MODEL 6
REMARK VINA RESULT:      -4.4      5.646      6.575
REMARK  Name = 
REMARK  9 active torsions:
REMARK  status: ('A' for Active; 'I' for Inactive)
REMARK    1  A    between atoms: N_1  and  C_2
REMARK    2  A    between atoms: C_2  and  C_4
REMARK    3  A    between atoms: C_2  and  C_12
REMARK    4  A    between atoms: C_4  and  C_5
REMARK    5  A    between atoms: C_5  and  C_6
REMARK    6  A    between atoms: C_6  and  C_7
REMARK    7  A    between atoms: C_7  and  N_8
REMARK    8  A    between atoms: C_9  and  O_10
REMARK    9  A    between atoms: C_12  and  O_13
REMARK                            x       y       z     vdW  Elec       q    Type
REMARK                         _______ _______ _______ _____ _____    ______ ____
ROOT
ATOM      1  C   UNK     1       7.829  -0.990  22.994  0.00  0.00    +0.030 C 
ENDROOT
BRANCH   1   2
ATOM      2  C   UNK     1       8.698  -1.549  24.129  0.00  0.00    +0.161 C 
BRANCH   2   3
ATOM      3  N   UNK     1       9.234  -0.468  25.010  0.00  0.00    -0.318 NA
ATOM      4  H   UNK     1      10.108  -0.118  24.598  0.00  0.00    +0.119 HD
ATOM      5  H   UNK     1       8.596   0.332  24.945  0.00  0.00    +0.119 HD
ENDBRANCH   2   3
BRANCH   2   6
ATOM      6  C   UNK     1       9.890  -2.334  23.547  0.00  0.00    +0.322 C 
ATOM      7  O   UNK     1      10.605  -1.958  22.631  0.00  0.00    -0.249 OA
BRANCH   6   8
ATOM      8  O   UNK     1      10.046  -3.528  24.177  0.00  0.00    -0.480 OA
ATOM      9  H   UNK     1       9.141  -3.931  24.203  0.00  0.00    +0.295 HD
ENDBRANCH   6   8
ENDBRANCH   2   6
ENDBRANCH   1   2
BRANCH   1  10
ATOM     10  C   UNK     1       7.372   0.451  23.236  0.00  0.00    +0.004 C 
BRANCH  10  11
ATOM     11  C   UNK     1       7.744   1.370  22.070  0.00  0.00    +0.019 C 
BRANCH  11  12
ATOM     12  C   UNK     1       9.196   1.154  21.648  0.00  0.00    +0.107 C 
BRANCH  12  13
ATOM     13  N   UNK     1       9.993   2.351  21.815  0.00  0.00    -0.281 N 
ATOM     14  H   UNK     1      10.162   2.914  20.996  0.00  0.00    +0.152 HD
ATOM     15  C   UNK     1      10.588   2.642  23.007  0.00  0.00    +0.398 C 
ATOM     16  O   UNK     1      10.517   1.966  24.019  0.00  0.00    -0.227 OA
BRANCH  15  17
ATOM     17  O   UNK     1      11.277   3.790  22.945  0.00  0.00    -0.466 OA
ATOM     18  H   UNK     1      11.975   3.836  23.616  0.00  0.00    +0.297 HD
ENDBRANCH  15  17
ENDBRANCH  12  13
ENDBRANCH  11  12
ENDBRANCH  10  11
ENDBRANCH   1  10
TORSDOF 9
ENDMDL
MODEL 7
REMARK VINA RESULT:      -4.3      1.956      2.117
REMARK  Name = 
REMARK  9 active torsions:
REMARK  status: ('A' for Active; 'I' for Inactive)
REMARK    1  A    between atoms: N_1  and  C_2
REMARK    2  A    between atoms: C_2  and  C_4
REMARK    3  A    between atoms: C_2  and  C_12
REMARK    4  A    between atoms: C_4  and  C_5
REMARK    5  A    between atoms: C_5  and  C_6
REMARK    6  A    between atoms: C_6  and  C_7
REMARK    7  A    between atoms: C_7  and  N_8
REMARK    8  A    between atoms: C_9  and  O_10
REMARK    9  A    between atoms: C_12  and  O_13
REMARK                            x       y       z     vdW  Elec       q    Type
REMARK                         _______ _______ _______ _____ _____    ______ ____
ROOT
ATOM      1  C   UNK     1       7.216  -3.697  26.056  0.00  0.00    +0.030 C 
ENDROOT
BRANCH   1   2
ATOM      2  C   UNK     1       7.579  -5.187  26.007  0.00  0.00    +0.161 C 
BRANCH   2   3
ATOM      3  N   UNK     1       7.974  -5.713  27.349  0.00  0.00    -0.318 NA
ATOM      4  H   UNK     1       8.965  -5.980  27.313  0.00  0.00    +0.119 HD
ATOM      5  H   UNK     1       7.955  -4.928  28.009  0.00  0.00    +0.119 HD
ENDBRANCH   2   3
BRANCH   2   6
ATOM      6  C   UNK     1       8.754  -5.416  25.035  0.00  0.00    +0.322 C 
ATOM      7  O   UNK     1       8.673  -5.414  23.817  0.00  0.00    -0.249 OA
BRANCH   6   8
ATOM      8  O   UNK     1       9.912  -5.642  25.709  0.00  0.00    -0.480 OA
ATOM      9  H   UNK     1      10.546  -4.956  25.378  0.00  0.00    +0.295 HD
ENDBRANCH   6   8
ENDBRANCH   2   6
ENDBRANCH   1   2
BRANCH   1  10
ATOM     10  C   UNK     1       5.937  -3.362  25.284  0.00  0.00    +0.004 C 
BRANCH  10  11
ATOM     11  C   UNK     1       6.227  -2.511  24.045  0.00  0.00    +0.019 C 
BRANCH  11  12
ATOM     12  C   UNK     1       5.619  -3.145  22.794  0.00  0.00    +0.107 C 
BRANCH  12  13
ATOM     13  N   UNK     1       6.243  -4.410  22.469  0.00  0.00    -0.281 N 
ATOM     14  H   UNK     1       7.225  -4.398  22.243  0.00  0.00    +0.152 HD
ATOM     15  C   UNK     1       5.506  -5.552  22.359  0.00  0.00    +0.398 C 
ATOM     16  O   UNK     1       4.301  -5.638  22.519  0.00  0.00    -0.227 OA
BRANCH  15  17
ATOM     17  O   UNK     1       6.277  -6.605  22.051  0.00  0.00    -0.466 OA
ATOM     18  H   UNK     1       6.579  -6.581  21.131  0.00  0.00    +0.297 HD
ENDBRANCH  15  17
ENDBRANCH  12  13
ENDBRANCH  11  12
ENDBRANCH  10  11
ENDBRANCH   1  10
TORSDOF 9
ENDMDL
MODEL 8
REMARK VINA RESULT:      -4.3      3.183      4.483
REMARK  Name = 
REMARK  9 active torsions:
REMARK  status: ('A' for Active; 'I' for Inactive)
REMARK    1  A    between atoms: N_1  and  C_2
REMARK    2  A    between atoms: C_2  and  C_4
REMARK    3  A    between atoms: C_2  and  C_12
REMARK    4  A    between atoms: C_4  and  C_5
REMARK    5  A    between atoms: C_5  and  C_6
REMARK    6  A    between atoms: C_6  and  C_7
REMARK    7  A    between atoms: C_7  and  N_8
REMARK    8  A    between atoms: C_9  and  O_10
REMARK    9  A    between atoms: C_12  and  O_13
REMARK                            x       y       z     vdW  Elec       q    Type
REMARK                         _______ _______ _______ _____ _____    ______ ____
ROOT
ATOM      1  C   UNK     1       7.042  -4.013  25.677  0.00  0.00    +0.030 C 
ENDROOT
BRANCH   1   2
ATOM      2  C   UNK     1       8.041  -5.176  25.733  0.00  0.00    +0.161 C 
BRANCH   2   3
ATOM      3  N   UNK     1       8.330  -5.603  27.136  0.00  0.00    -0.318 NA
ATOM      4  H   UNK     1       9.344  -5.725  27.234  0.00  0.00    +0.119 HD
ATOM      5  H   UNK     1       8.117  -4.811  27.752  0.00  0.00    +0.119 HD
ENDBRANCH   2   3
BRANCH   2   6
ATOM      6  C   UNK     1       9.371  -4.765  25.071  0.00  0.00    +0.322 C 
ATOM      7  O   UNK     1       9.516  -3.833  24.295  0.00  0.00    -0.249 OA
BRANCH   6   8
ATOM      8  O   UNK     1      10.382  -5.591  25.446  0.00  0.00    -0.480 OA
ATOM      9  H   UNK     1      10.029  -6.509  25.326  0.00  0.00    +0.295 HD
ENDBRANCH   6   8
ENDBRANCH   2   6
ENDBRANCH   1   2
BRANCH   1  10
ATOM     10  C   UNK     1       5.883  -4.258  24.707  0.00  0.00    +0.004 C 
BRANCH  10  11
ATOM     11  C   UNK     1       5.566  -5.748  24.564  0.00  0.00    +0.019 C 
BRANCH  11  12
ATOM     12  C   UNK     1       4.451  -6.163  25.522  0.00  0.00    +0.107 C 
BRANCH  12  13
ATOM     13  N   UNK     1       4.921  -7.084  26.536  0.00  0.00    -0.281 N 
ATOM     14  H   UNK     1       5.043  -8.047  26.267  0.00  0.00    +0.152 HD
ATOM     15  C   UNK     1       5.079  -6.685  27.830  0.00  0.00    +0.398 C 
ATOM     16  O   UNK     1       4.861  -5.567  28.260  0.00  0.00    -0.227 OA
BRANCH  15  17
ATOM     17  O   UNK     1       5.520  -7.690  28.602  0.00  0.00    -0.466 OA
ATOM     18  H   UNK     1       6.317  -8.106  28.241  0.00  0.00    +0.297 HD
ENDBRANCH  15  17
ENDBRANCH  12  13
ENDBRANCH  11  12
ENDBRANCH  10  11
ENDBRANCH   1  10
TORSDOF 9
ENDMDL
MODEL 9
REMARK VINA RESULT:      -4.3      4.836      6.331
REMARK  Name = 
REMARK  9 active torsions:
REMARK  status: ('A' for Active; 'I' for Inactive)
REMARK    1  A    between atoms: N_1  and  C_2
REMARK    2  A    between atoms: C_2  and  C_4
REMARK    3  A    between atoms: C_2  and  C_12
REMARK    4  A    between atoms: C_4  and  C_5
REMARK    5  A    between atoms: C_5  and  C_6
REMARK    6  A    between atoms: C_6  and  C_7
REMARK    7  A    between atoms: C_7  and  N_8
REMARK    8  A    between atoms: C_9  and  O_10
REMARK    9  A    between atoms: C_12  and  O_13
REMARK                            x       y       z     vdW  Elec       q    Type
REMARK                         _______ _______ _______ _____ _____    ______ ____
ROOT
ATOM      1  C   UNK     1       9.770   1.484  24.470  0.00  0.00    +0.030 C 
ENDROOT
BRANCH   1   2
ATOM      2  C   UNK     1      10.452   1.951  23.177  0.00  0.00    +0.161 C 
BRANCH   2   3
ATOM      3  N   UNK     1      10.505   3.441  23.076  0.00  0.00    -0.318 NA
ATOM      4  H   UNK     1      11.305   3.775  23.627  0.00  0.00    +0.119 HD
ATOM      5  H   UNK     1      10.756   3.679  22.111  0.00  0.00    +0.119 HD
ENDBRANCH   2   3
BRANCH   2   6
ATOM      6  C   UNK     1       9.692   1.411  21.950  0.00  0.00    +0.322 C 
ATOM      7  O   UNK     1       9.797   0.284  21.493  0.00  0.00    -0.249 OA
BRANCH   6   8
ATOM      8  O   UNK     1       8.884   2.364  21.415  0.00  0.00    -0.480 OA
ATOM      9  H   UNK     1       8.004   2.238  21.853  0.00  0.00    +0.295 HD
ENDBRANCH   6   8
ENDBRANCH   2   6
ENDBRANCH   1   2
BRANCH   1  10
ATOM     10  C   UNK     1      10.296   0.140  24.979  0.00  0.00    +0.004 C 
BRANCH  10  11
ATOM     11  C   UNK     1       9.160  -0.850  25.251  0.00  0.00    +0.019 C 
BRANCH  11  12
ATOM     12  C   UNK     1       8.987  -1.816  24.080  0.00  0.00    +0.107 C 
BRANCH  12  13
ATOM     13  N   UNK     1       9.814  -2.996  24.224  0.00  0.00    -0.281 N 
ATOM     14  H   UNK     1      10.704  -2.999  23.752  0.00  0.00    +0.152 HD
ATOM     15  C   UNK     1       9.355  -4.103  24.874  0.00  0.00    +0.398 C 
ATOM     16  O   UNK     1       8.256  -4.220  25.388  0.00  0.00    -0.227 OA
BRANCH  15  17
ATOM     17  O   UNK     1      10.275  -5.078  24.892  0.00  0.00    -0.466 OA
ATOM     18  H   UNK     1      10.739  -5.129  25.741  0.00  0.00    +0.297 HD
ENDBRANCH  15  17
ENDBRANCH  12  13
ENDBRANCH  11  12
ENDBRANCH  10  11
ENDBRANCH   1  10
TORSDOF 9
ENDMDL
