MODEL 1
REMARK VINA RESULT:      -7.8      0.000      0.000
REMARK  Name = 
REMARK  12 active torsions:
REMARK  status: ('A' for Active; 'I' for Inactive)
REMARK    1  A    between atoms: C_1  and  C_2
REMARK    2  A    between atoms: C_2  and  O_3
REMARK    3  A    between atoms: O_3  and  C_4
REMARK    4  A    between atoms: N_8  and  C_9
REMARK    5  A    between atoms: C_9  and  C_10
REMARK    6  A    between atoms: C_13  and  C_16
REMARK    7  A    between atoms: C_21  and  C_22
REMARK    8  A    between atoms: C_28  and  C_32
REMARK    9  A    between atoms: C_32  and  O_34
REMARK   10  A    between atoms: O_34  and  C_35
REMARK   11  A    between atoms: C_35  and  C_36
REMARK   12  A    between atoms: C_37  and  C_38
REMARK                            x       y       z     vdW  Elec       q    Type
REMARK                         _______ _______ _______ _____ _____    ______ ____
ROOT
ATOM      1  C   UNL     1       7.226   3.643  26.776  0.00  0.00    +0.299 A 
ATOM      2  N   UNL     1       6.533   3.226  25.656  0.00  0.00    -0.289 N 
ATOM      3  C   UNL     1       6.969   3.986  24.585  0.00  0.00    +0.086 A 
ATOM      4  C   UNL     1       6.721   4.040  23.186  0.00  0.00    +0.085 A 
ATOM      5  C   UNL     1       7.335   5.082  22.451  0.00  0.00    +0.017 A 
ATOM      6  C   UNL     1       8.155   6.028  23.068  0.00  0.00    +0.003 A 
ATOM      7  C   UNL     1       8.409   5.951  24.437  0.00  0.00    +0.030 A 
ATOM      8  C   UNL     1       7.823   4.926  25.188  0.00  0.00    +0.094 A 
ATOM      9  N   UNL     1       7.975   4.689  26.533  0.00  0.00    -0.195 NA
ENDROOT
BRANCH   4  10
ATOM     10  C   UNL     1       5.980   2.978  22.463  0.00  0.00    +0.342 C 
ATOM     11  O   UNL     1       4.796   3.091  22.180  0.00  0.00    -0.245 OA
BRANCH  10  12
ATOM     12  O   UNL     1       6.736   1.863  22.262  0.00  0.00    -0.453 OA
BRANCH  12  13
ATOM     13  C   UNL     1       7.918   2.046  21.458  0.00  0.00    +0.310 C 
BRANCH  13  14
ATOM     14  C   UNL     1       9.037   1.172  21.928  0.00  0.00    +0.187 A 
ATOM     15  O   UNL     1       9.029  -0.122  21.456  0.00  0.00    -0.392 OA
ATOM     16  C   UNL     1       9.943  -0.740  22.284  0.00  0.00    +0.521 A 
ATOM     17  O   UNL     1      10.109  -1.954  22.319  0.00  0.00    -0.202 OA
ATOM     18  O   UNL     1      10.649   0.131  23.080  0.00  0.00    -0.396 OA
ATOM     19  C   UNL     1       9.935   1.296  22.886  0.00  0.00    +0.151 A 
ATOM     20  C   UNL     1      10.178   2.349  23.895  0.00  0.00    +0.090 C 
ENDBRANCH  13  14
ENDBRANCH  12  13
ENDBRANCH  10  12
ENDBRANCH   4  10
BRANCH   1  21
ATOM     21  O   UNL     1       7.083   3.066  27.964  0.00  0.00    -0.464 OA
BRANCH  21  23
ATOM     22  C   UNL     1       5.130   3.687  29.216  0.00  0.00    +0.048 C 
ATOM     23  C   UNL     1       6.606   3.949  28.981  0.00  0.00    +0.229 C 
ENDBRANCH  21  23
ENDBRANCH   1  21
BRANCH   2  24
ATOM     24  C   UNL     1       5.409   2.290  25.734  0.00  0.00    +0.162 C 
BRANCH  24  25
ATOM     25  C   UNL     1       5.852   0.844  25.612  0.00  0.00    -0.028 A 
ATOM     26  C   UNL     1       4.973  -0.221  25.795  0.00  0.00    +0.006 A 
ATOM     27  C   UNL     1       5.300  -1.507  25.350  0.00  0.00    +0.009 A 
ATOM     28  C   UNL     1       6.496  -1.750  24.671  0.00  0.00    -0.017 A 
ATOM     29  C   UNL     1       7.491  -0.782  24.882  0.00  0.00    +0.009 A 
ATOM     30  C   UNL     1       7.171   0.524  25.297  0.00  0.00    +0.006 A 
BRANCH  28  31
ATOM     31  C   UNL     1       6.616  -2.845  23.640  0.00  0.00    -0.007 A 
ATOM     32  C   UNL     1       7.133  -4.147  23.920  0.00  0.00    +0.028 A 
ATOM     33  C   UNL     1       7.073  -5.190  22.964  0.00  0.00    +0.012 A 
ATOM     34  C   UNL     1       6.460  -5.001  21.737  0.00  0.00    +0.001 A 
ATOM     35  C   UNL     1       5.955  -3.748  21.431  0.00  0.00    +0.001 A 
ATOM     36  C   UNL     1       6.077  -2.684  22.344  0.00  0.00    +0.009 A 
BRANCH  32  37
ATOM     37  C   UNL     1       7.658  -4.591  25.228  0.00  0.00    +0.183 A 
ATOM     38  N   UNL     1       6.882  -5.321  26.045  0.00  0.00    -0.271 N 
ATOM     39  H   UNL     1       5.931  -5.619  25.926  0.00  0.00    +0.174 HD
ATOM     40  C   UNL     1       7.568  -5.484  27.185  0.00  0.00    +0.440 A 
ATOM     41  O   UNL     1       7.139  -5.998  28.205  0.00  0.00    -0.221 OA
ATOM     42  O   UNL     1       8.809  -4.931  27.027  0.00  0.00    -0.295 OA
ATOM     43  N   UNL     1       8.808  -4.310  25.739  0.00  0.00    -0.054 NA
ENDBRANCH  32  37
ENDBRANCH  28  31
ENDBRANCH  24  25
ENDBRANCH   2  24
TORSDOF 10
ENDMDL
MODEL 2
REMARK VINA RESULT:      -7.8      2.436      3.522
REMARK  Name = 
REMARK  12 active torsions:
REMARK  status: ('A' for Active; 'I' for Inactive)
REMARK    1  A    between atoms: C_1  and  C_2
REMARK    2  A    between atoms: C_2  and  O_3
REMARK    3  A    between atoms: O_3  and  C_4
REMARK    4  A    between atoms: N_8  and  C_9
REMARK    5  A    between atoms: C_9  and  C_10
REMARK    6  A    between atoms: C_13  and  C_16
REMARK    7  A    between atoms: C_21  and  C_22
REMARK    8  A    between atoms: C_28  and  C_32
REMARK    9  A    between atoms: C_32  and  O_34
REMARK   10  A    between atoms: O_34  and  C_35
REMARK   11  A    between atoms: C_35  and  C_36
REMARK   12  A    between atoms: C_37  and  C_38
REMARK                            x       y       z     vdW  Elec       q    Type
REMARK                         _______ _______ _______ _____ _____    ______ ____
ROOT
ATOM      1  C   UNL     1       5.133   1.900  26.469  0.00  0.00    +0.299 A 
ATOM      2  N   UNL     1       6.228   1.888  25.626  0.00  0.00    -0.289 N 
ATOM      3  C   UNL     1       5.865   2.535  24.458  0.00  0.00    +0.086 A 
ATOM      4  C   UNL     1       6.500   2.909  23.243  0.00  0.00    +0.085 A 
ATOM      5  C   UNL     1       5.697   3.495  22.236  0.00  0.00    +0.017 A 
ATOM      6  C   UNL     1       4.329   3.701  22.418  0.00  0.00    +0.003 A 
ATOM      7  C   UNL     1       3.721   3.351  23.624  0.00  0.00    +0.030 A 
ATOM      8  C   UNL     1       4.492   2.778  24.642  0.00  0.00    +0.094 A 
ATOM      9  N   UNL     1       4.067   2.390  25.888  0.00  0.00    -0.195 NA
ENDROOT
BRANCH   4  10
ATOM     10  C   UNL     1       7.971   2.847  23.056  0.00  0.00    +0.342 C 
ATOM     11  O   UNL     1       8.746   3.406  23.817  0.00  0.00    -0.245 OA
BRANCH  10  12
ATOM     12  O   UNL     1       8.320   2.201  21.907  0.00  0.00    -0.453 OA
BRANCH  12  13
ATOM     13  C   UNL     1       9.700   1.795  21.814  0.00  0.00    +0.310 C 
BRANCH  13  14
ATOM     14  C   UNL     1       9.889   0.395  22.306  0.00  0.00    +0.187 A 
ATOM     15  O   UNL     1       9.240  -0.587  21.590  0.00  0.00    -0.392 OA
ATOM     16  C   UNL     1       9.330  -1.672  22.438  0.00  0.00    +0.521 A 
ATOM     17  O   UNL     1       8.720  -2.720  22.259  0.00  0.00    -0.202 OA
ATOM     18  O   UNL     1      10.161  -1.469  23.514  0.00  0.00    -0.396 OA
ATOM     19  C   UNL     1      10.374  -0.109  23.425  0.00  0.00    +0.151 A 
ATOM     20  C   UNL     1      10.907   0.520  24.652  0.00  0.00    +0.090 C 
ENDBRANCH  13  14
ENDBRANCH  12  13
ENDBRANCH  10  12
ENDBRANCH   4  10
BRANCH   1  21
ATOM     21  O   UNL     1       5.174   1.409  27.704  0.00  0.00    -0.464 OA
BRANCH  21  23
ATOM     22  C   UNL     1       4.715  -0.930  27.993  0.00  0.00    +0.048 C 
ATOM     23  C   UNL     1       4.134   0.471  27.986  0.00  0.00    +0.229 C 
ENDBRANCH  21  23
ENDBRANCH   1  21
BRANCH   2  24
ATOM     24  C   UNL     1       7.437   1.116  25.923  0.00  0.00    +0.162 C 
BRANCH  24  25
ATOM     25  C   UNL     1       7.311  -0.337  25.505  0.00  0.00    -0.028 A 
ATOM     26  C   UNL     1       8.036  -1.353  26.122  0.00  0.00    +0.006 A 
ATOM     27  C   UNL     1       7.665  -2.695  25.972  0.00  0.00    +0.009 A 
ATOM     28  C   UNL     1       6.532  -3.048  25.236  0.00  0.00    -0.017 A 
ATOM     29  C   UNL     1       6.105  -2.071  24.322  0.00  0.00    +0.009 A 
ATOM     30  C   UNL     1       6.444  -0.715  24.483  0.00  0.00    +0.006 A 
BRANCH  28  31
ATOM     31  C   UNL     1       5.729  -4.284  25.558  0.00  0.00    -0.007 A 
ATOM     32  C   UNL     1       5.619  -5.411  24.687  0.00  0.00    +0.028 A 
ATOM     33  C   UNL     1       4.992  -6.610  25.103  0.00  0.00    +0.012 A 
ATOM     34  C   UNL     1       4.507  -6.755  26.391  0.00  0.00    +0.001 A 
ATOM     35  C   UNL     1       4.591  -5.679  27.259  0.00  0.00    +0.001 A 
ATOM     36  C   UNL     1       5.144  -4.456  26.832  0.00  0.00    +0.009 A 
BRANCH  32  37
ATOM     37  C   UNL     1       6.230  -5.512  23.346  0.00  0.00    +0.183 A 
ATOM     38  N   UNL     1       5.483  -5.283  22.254  0.00  0.00    -0.271 N 
ATOM     39  H   UNL     1       4.507  -5.062  22.182  0.00  0.00    +0.174 HD
ATOM     40  C   UNL     1       6.258  -5.549  21.193  0.00  0.00    +0.440 A 
ATOM     41  O   UNL     1       5.890  -5.564  20.030  0.00  0.00    -0.221 OA
ATOM     42  O   UNL     1       7.515  -5.851  21.640  0.00  0.00    -0.295 OA
ATOM     43  N   UNL     1       7.439  -5.862  23.068  0.00  0.00    -0.054 NA
ENDBRANCH  32  37
ENDBRANCH  28  31
ENDBRANCH  24  25
ENDBRANCH   2  24
TORSDOF 10
ENDMDL
MODEL 3
REMARK VINA RESULT:      -7.6      2.288      8.322
REMARK  Name = 
REMARK  12 active torsions:
REMARK  status: ('A' for Active; 'I' for Inactive)
REMARK    1  A    between atoms: C_1  and  C_2
REMARK    2  A    between atoms: C_2  and  O_3
REMARK    3  A    between atoms: O_3  and  C_4
REMARK    4  A    between atoms: N_8  and  C_9
REMARK    5  A    between atoms: C_9  and  C_10
REMARK    6  A    between atoms: C_13  and  C_16
REMARK    7  A    between atoms: C_21  and  C_22
REMARK    8  A    between atoms: C_28  and  C_32
REMARK    9  A    between atoms: C_32  and  O_34
REMARK   10  A    between atoms: O_34  and  C_35
REMARK   11  A    between atoms: C_35  and  C_36
REMARK   12  A    between atoms: C_37  and  C_38
REMARK                            x       y       z     vdW  Elec       q    Type
REMARK                         _______ _______ _______ _____ _____    ______ ____
ROOT
ATOM      1  C   UNL     1       8.827  -2.678  23.506  0.00  0.00    +0.299 A 
ATOM      2  N   UNL     1       7.633  -2.231  24.040  0.00  0.00    -0.289 N 
ATOM      3  C   UNL     1       7.361  -2.998  25.160  0.00  0.00    +0.086 A 
ATOM      4  C   UNL     1       6.361  -3.034  26.169  0.00  0.00    +0.085 A 
ATOM      5  C   UNL     1       6.418  -4.089  27.110  0.00  0.00    +0.017 A 
ATOM      6  C   UNL     1       7.414  -5.065  27.057  0.00  0.00    +0.003 A 
ATOM      7  C   UNL     1       8.403  -5.006  26.075  0.00  0.00    +0.030 A 
ATOM      8  C   UNL     1       8.378  -3.968  25.136  0.00  0.00    +0.094 A 
ATOM      9  N   UNL     1       9.273  -3.745  24.119  0.00  0.00    -0.195 NA
ENDROOT
BRANCH   4  10
ATOM     10  C   UNL     1       5.372  -1.944  26.357  0.00  0.00    +0.342 C 
ATOM     11  O   UNL     1       4.297  -1.937  25.777  0.00  0.00    -0.245 OA
BRANCH  10  12
ATOM     12  O   UNL     1       5.850  -0.940  27.145  0.00  0.00    -0.453 OA
BRANCH  12  13
ATOM     13  C   UNL     1       4.855  -0.089  27.746  0.00  0.00    +0.310 C 
BRANCH  13  14
ATOM     14  C   UNL     1       4.732   1.208  27.013  0.00  0.00    +0.187 A 
ATOM     15  O   UNL     1       3.894   1.203  25.920  0.00  0.00    -0.392 OA
ATOM     16  C   UNL     1       4.231   2.384  25.290  0.00  0.00    +0.521 A 
ATOM     17  O   UNL     1       3.839   2.687  24.169  0.00  0.00    -0.202 OA
ATOM     18  O   UNL     1       5.058   3.193  26.032  0.00  0.00    -0.396 OA
ATOM     19  C   UNL     1       5.426   2.330  27.044  0.00  0.00    +0.151 A 
ATOM     20  C   UNL     1       6.621   2.741  27.810  0.00  0.00    +0.090 C 
ENDBRANCH  13  14
ENDBRANCH  12  13
ENDBRANCH  10  12
ENDBRANCH   4  10
BRANCH   1  21
ATOM     21  O   UNL     1       9.401  -2.105  22.454  0.00  0.00    -0.464 OA
BRANCH  21  23
ATOM     22  C   UNL     1      10.126   0.118  21.908  0.00  0.00    +0.048 C 
ATOM     23  C   UNL     1      10.349  -1.092  22.795  0.00  0.00    +0.229 C 
ENDBRANCH  21  23
ENDBRANCH   1  21
BRANCH   2  24
ATOM     24  C   UNL     1       6.780  -1.261  23.349  0.00  0.00    +0.162 C 
BRANCH  24  25
ATOM     25  C   UNL     1       7.128   0.172  23.708  0.00  0.00    -0.028 A 
ATOM     26  C   UNL     1       7.856   0.495  24.852  0.00  0.00    +0.006 A 
ATOM     27  C   UNL     1       8.457   1.752  24.990  0.00  0.00    +0.009 A 
ATOM     28  C   UNL     1       8.382   2.700  23.967  0.00  0.00    -0.017 A 
ATOM     29  C   UNL     1       7.328   2.496  23.062  0.00  0.00    +0.009 A 
ATOM     30  C   UNL     1       6.739   1.230  22.891  0.00  0.00    +0.006 A 
BRANCH  28  31
ATOM     31  C   UNL     1       9.472   3.720  23.749  0.00  0.00    -0.007 A 
ATOM     32  C   UNL     1       9.348   5.101  24.090  0.00  0.00    +0.028 A 
ATOM     33  C   UNL     1      10.453   5.984  24.019  0.00  0.00    +0.012 A 
ATOM     34  C   UNL     1      11.712   5.529  23.667  0.00  0.00    +0.001 A 
ATOM     35  C   UNL     1      11.865   4.196  23.323  0.00  0.00    +0.001 A 
ATOM     36  C   UNL     1      10.758   3.326  23.316  0.00  0.00    +0.009 A 
BRANCH  32  37
ATOM     37  C   UNL     1       8.138   5.732  24.656  0.00  0.00    +0.183 A 
ATOM     38  N   UNL     1       7.906   5.663  25.977  0.00  0.00    -0.271 N 
ATOM     39  H   UNL     1       8.435   5.204  26.696  0.00  0.00    +0.174 HD
ATOM     40  C   UNL     1       6.704   6.217  26.188  0.00  0.00    +0.440 A 
ATOM     41  O   UNL     1       6.106   6.233  27.251  0.00  0.00    -0.221 OA
ATOM     42  O   UNL     1       6.242   6.713  25.000  0.00  0.00    -0.295 OA
ATOM     43  N   UNL     1       7.197   6.328  24.008  0.00  0.00    -0.054 NA
ENDBRANCH  32  37
ENDBRANCH  28  31
ENDBRANCH  24  25
ENDBRANCH   2  24
TORSDOF 10
ENDMDL
MODEL 4
REMARK VINA RESULT:      -7.5      3.080      8.743
REMARK  Name = 
REMARK  12 active torsions:
REMARK  status: ('A' for Active; 'I' for Inactive)
REMARK    1  A    between atoms: C_1  and  C_2
REMARK    2  A    between atoms: C_2  and  O_3
REMARK    3  A    between atoms: O_3  and  C_4
REMARK    4  A    between atoms: N_8  and  C_9
REMARK    5  A    between atoms: C_9  and  C_10
REMARK    6  A    between atoms: C_13  and  C_16
REMARK    7  A    between atoms: C_21  and  C_22
REMARK    8  A    between atoms: C_28  and  C_32
REMARK    9  A    between atoms: C_32  and  O_34
REMARK   10  A    between atoms: O_34  and  C_35
REMARK   11  A    between atoms: C_35  and  C_36
REMARK   12  A    between atoms: C_37  and  C_38
REMARK                            x       y       z     vdW  Elec       q    Type
REMARK                         _______ _______ _______ _____ _____    ______ ____
ROOT
ATOM      1  C   UNL     1       8.909  -2.683  23.496  0.00  0.00    +0.299 A 
ATOM      2  N   UNL     1       7.704  -2.266  24.029  0.00  0.00    -0.289 N 
ATOM      3  C   UNL     1       7.470  -3.010  25.172  0.00  0.00    +0.086 A 
ATOM      4  C   UNL     1       6.481  -3.055  26.191  0.00  0.00    +0.085 A 
ATOM      5  C   UNL     1       6.586  -4.080  27.161  0.00  0.00    +0.017 A 
ATOM      6  C   UNL     1       7.617  -5.019  27.126  0.00  0.00    +0.003 A 
ATOM      7  C   UNL     1       8.596  -4.950  26.134  0.00  0.00    +0.030 A 
ATOM      8  C   UNL     1       8.523  -3.942  25.167  0.00  0.00    +0.094 A 
ATOM      9  N   UNL     1       9.401  -3.714  24.135  0.00  0.00    -0.195 NA
ENDROOT
BRANCH   4  10
ATOM     10  C   UNL     1       5.452  -1.999  26.357  0.00  0.00    +0.342 C 
ATOM     11  O   UNL     1       5.570  -1.102  27.180  0.00  0.00    -0.245 OA
BRANCH  10  12
ATOM     12  O   UNL     1       4.355  -2.217  25.579  0.00  0.00    -0.453 OA
BRANCH  12  13
ATOM     13  C   UNL     1       3.615  -3.420  25.866  0.00  0.00    +0.310 C 
BRANCH  13  14
ATOM     14  C   UNL     1       3.183  -4.106  24.609  0.00  0.00    +0.187 A 
ATOM     15  O   UNL     1       1.823  -4.205  24.415  0.00  0.00    -0.392 OA
ATOM     16  C   UNL     1       1.742  -5.131  23.395  0.00  0.00    +0.521 A 
ATOM     17  O   UNL     1       0.690  -5.643  23.031  0.00  0.00    -0.202 OA
ATOM     18  O   UNL     1       2.954  -5.436  22.824  0.00  0.00    -0.396 OA
ATOM     19  C   UNL     1       3.820  -4.847  23.723  0.00  0.00    +0.151 A 
ATOM     20  C   UNL     1       5.220  -5.313  23.635  0.00  0.00    +0.090 C 
ENDBRANCH  13  14
ENDBRANCH  12  13
ENDBRANCH  10  12
ENDBRANCH   4  10
BRANCH   1  21
ATOM     21  O   UNL     1       9.453  -2.119  22.423  0.00  0.00    -0.464 OA
BRANCH  21  23
ATOM     22  C   UNL     1      10.159   0.102  21.844  0.00  0.00    +0.048 C 
ATOM     23  C   UNL     1      10.412  -1.105  22.728  0.00  0.00    +0.229 C 
ENDBRANCH  21  23
ENDBRANCH   1  21
BRANCH   2  24
ATOM     24  C   UNL     1       6.809  -1.349  23.318  0.00  0.00    +0.162 C 
BRANCH  24  25
ATOM     25  C   UNL     1       7.110   0.105  23.627  0.00  0.00    -0.028 A 
ATOM     26  C   UNL     1       7.756   0.498  24.798  0.00  0.00    +0.006 A 
ATOM     27  C   UNL     1       8.327   1.771  24.912  0.00  0.00    +0.009 A 
ATOM     28  C   UNL     1       8.305   2.666  23.840  0.00  0.00    -0.017 A 
ATOM     29  C   UNL     1       7.316   2.399  22.880  0.00  0.00    +0.009 A 
ATOM     30  C   UNL     1       6.760   1.115  22.734  0.00  0.00    +0.006 A 
BRANCH  28  31
ATOM     31  C   UNL     1       9.391   3.695  23.643  0.00  0.00    -0.007 A 
ATOM     32  C   UNL     1       9.209   5.095  23.859  0.00  0.00    +0.028 A 
ATOM     33  C   UNL     1      10.298   5.999  23.820  0.00  0.00    +0.012 A 
ATOM     34  C   UNL     1      11.593   5.550  23.623  0.00  0.00    +0.001 A 
ATOM     35  C   UNL     1      11.804   4.199  23.403  0.00  0.00    +0.001 A 
ATOM     36  C   UNL     1      10.719   3.302  23.364  0.00  0.00    +0.009 A 
BRANCH  32  37
ATOM     37  C   UNL     1       7.940   5.736  24.259  0.00  0.00    +0.183 A 
ATOM     38  N   UNL     1       7.616   5.820  25.559  0.00  0.00    -0.271 N 
ATOM     39  H   UNL     1       8.108   5.478  26.364  0.00  0.00    +0.174 HD
ATOM     40  C   UNL     1       6.382   6.341  25.617  0.00  0.00    +0.440 A 
ATOM     41  O   UNL     1       5.709   6.461  26.628  0.00  0.00    -0.221 OA
ATOM     42  O   UNL     1       5.989   6.665  24.348  0.00  0.00    -0.295 OA
ATOM     43  N   UNL     1       7.026   6.204  23.479  0.00  0.00    -0.054 NA
ENDBRANCH  32  37
ENDBRANCH  28  31
ENDBRANCH  24  25
ENDBRANCH   2  24
TORSDOF 10
ENDMDL
MODEL 5
REMARK VINA RESULT:      -7.5      2.389      8.124
REMARK  Name = 
REMARK  12 active torsions:
REMARK  status: ('A' for Active; 'I' for Inactive)
REMARK    1  A    between atoms: C_1  and  C_2
REMARK    2  A    between atoms: C_2  and  O_3
REMARK    3  A    between atoms: O_3  and  C_4
REMARK    4  A    between atoms: N_8  and  C_9
REMARK    5  A    between atoms: C_9  and  C_10
REMARK    6  A    between atoms: C_13  and  C_16
REMARK    7  A    between atoms: C_21  and  C_22
REMARK    8  A    between atoms: C_28  and  C_32
REMARK    9  A    between atoms: C_32  and  O_34
REMARK   10  A    between atoms: O_34  and  C_35
REMARK   11  A    between atoms: C_35  and  C_36
REMARK   12  A    between atoms: C_37  and  C_38
REMARK                            x       y       z     vdW  Elec       q    Type
REMARK                         _______ _______ _______ _____ _____    ______ ____
ROOT
ATOM      1  C   UNL     1       8.760  -2.308  23.588  0.00  0.00    +0.299 A 
ATOM      2  N   UNL     1       7.828  -1.779  24.460  0.00  0.00    -0.289 N 
ATOM      3  C   UNL     1       6.637  -2.456  24.264  0.00  0.00    +0.086 A 
ATOM      4  C   UNL     1       5.339  -2.453  24.842  0.00  0.00    +0.085 A 
ATOM      5  C   UNL     1       4.353  -3.274  24.245  0.00  0.00    +0.017 A 
ATOM      6  C   UNL     1       4.635  -4.061  23.127  0.00  0.00    +0.003 A 
ATOM      7  C   UNL     1       5.919  -4.073  22.583  0.00  0.00    +0.030 A 
ATOM      8  C   UNL     1       6.917  -3.278  23.158  0.00  0.00    +0.094 A 
ATOM      9  N   UNL     1       8.230  -3.179  22.767  0.00  0.00    -0.195 NA
ENDROOT
BRANCH   4  10
ATOM     10  C   UNL     1       5.029  -1.750  26.111  0.00  0.00    +0.342 C 
ATOM     11  O   UNL     1       4.177  -0.876  26.178  0.00  0.00    -0.245 OA
BRANCH  10  12
ATOM     12  O   UNL     1       5.862  -2.119  27.125  0.00  0.00    -0.453 OA
BRANCH  12  13
ATOM     13  C   UNL     1       5.617  -3.420  27.693  0.00  0.00    +0.310 C 
BRANCH  13  14
ATOM     14  C   UNL     1       6.612  -4.424  27.204  0.00  0.00    +0.187 A 
ATOM     15  O   UNL     1       7.924  -4.007  27.178  0.00  0.00    -0.392 OA
ATOM     16  C   UNL     1       8.524  -4.982  26.407  0.00  0.00    +0.521 A 
ATOM     17  O   UNL     1       9.672  -4.898  25.987  0.00  0.00    -0.202 OA
ATOM     18  O   UNL     1       7.712  -6.059  26.143  0.00  0.00    -0.396 OA
ATOM     19  C   UNL     1       6.492  -5.575  26.571  0.00  0.00    +0.151 A 
ATOM     20  C   UNL     1       5.317  -6.323  26.074  0.00  0.00    +0.090 C 
ENDBRANCH  13  14
ENDBRANCH  12  13
ENDBRANCH  10  12
ENDBRANCH   4  10
BRANCH   1  21
ATOM     21  O   UNL     1      10.029  -1.915  23.570  0.00  0.00    -0.464 OA
BRANCH  21  23
ATOM     22  C   UNL     1       9.928  -0.122  21.976  0.00  0.00    +0.048 C 
ATOM     23  C   UNL     1      10.486  -1.499  22.282  0.00  0.00    +0.229 C 
ENDBRANCH  21  23
ENDBRANCH   1  21
BRANCH   2  24
ATOM     24  C   UNL     1       8.093  -0.577  25.255  0.00  0.00    +0.162 C 
BRANCH  24  25
ATOM     25  C   UNL     1       7.250   0.604  24.813  0.00  0.00    -0.028 A 
ATOM     26  C   UNL     1       6.840   1.598  25.699  0.00  0.00    +0.006 A 
ATOM     27  C   UNL     1       6.371   2.831  25.230  0.00  0.00    +0.009 A 
ATOM     28  C   UNL     1       6.343   3.115  23.863  0.00  0.00    -0.017 A 
ATOM     29  C   UNL     1       6.358   1.982  23.033  0.00  0.00    +0.009 A 
ATOM     30  C   UNL     1       6.858   0.747  23.484  0.00  0.00    +0.006 A 
BRANCH  28  31
ATOM     31  C   UNL     1       6.498   4.522  23.341  0.00  0.00    -0.007 A 
ATOM     32  C   UNL     1       7.758   5.135  23.066  0.00  0.00    +0.028 A 
ATOM     33  C   UNL     1       7.847   6.394  22.424  0.00  0.00    +0.012 A 
ATOM     34  C   UNL     1       6.712   7.056  21.988  0.00  0.00    +0.001 A 
ATOM     35  C   UNL     1       5.473   6.493  22.245  0.00  0.00    +0.001 A 
ATOM     36  C   UNL     1       5.370   5.279  22.951  0.00  0.00    +0.009 A 
BRANCH  32  37
ATOM     37  C   UNL     1       9.076   4.506  23.291  0.00  0.00    +0.183 A 
ATOM     38  N   UNL     1      10.164   5.276  23.450  0.00  0.00    -0.271 N 
ATOM     39  H   UNL     1      10.251   6.276  23.417  0.00  0.00    +0.174 HD
ATOM     40  C   UNL     1      11.216   4.449  23.525  0.00  0.00    +0.440 A 
ATOM     41  O   UNL     1      12.387   4.789  23.557  0.00  0.00    -0.221 OA
ATOM     42  O   UNL     1      10.756   3.161  23.507  0.00  0.00    -0.295 OA
ATOM     43  N   UNL     1       9.343   3.245  23.303  0.00  0.00    -0.054 NA
ENDBRANCH  32  37
ENDBRANCH  28  31
ENDBRANCH  24  25
ENDBRANCH   2  24
TORSDOF 10
ENDMDL
MODEL 6
REMARK VINA RESULT:      -7.4      2.253      8.068
REMARK  Name = 
REMARK  12 active torsions:
REMARK  status: ('A' for Active; 'I' for Inactive)
REMARK    1  A    between atoms: C_1  and  C_2
REMARK    2  A    between atoms: C_2  and  O_3
REMARK    3  A    between atoms: O_3  and  C_4
REMARK    4  A    between atoms: N_8  and  C_9
REMARK    5  A    between atoms: C_9  and  C_10
REMARK    6  A    between atoms: C_13  and  C_16
REMARK    7  A    between atoms: C_21  and  C_22
REMARK    8  A    between atoms: C_28  and  C_32
REMARK    9  A    between atoms: C_32  and  O_34
REMARK   10  A    between atoms: O_34  and  C_35
REMARK   11  A    between atoms: C_35  and  C_36
REMARK   12  A    between atoms: C_37  and  C_38
REMARK                            x       y       z     vdW  Elec       q    Type
REMARK                         _______ _______ _______ _____ _____    ______ ____
ROOT
ATOM      1  C   UNL     1       8.579  -2.555  23.765  0.00  0.00    +0.299 A 
ATOM      2  N   UNL     1       7.449  -2.138  24.442  0.00  0.00    -0.289 N 
ATOM      3  C   UNL     1       6.412  -2.986  24.091  0.00  0.00    +0.086 A 
ATOM      4  C   UNL     1       5.046  -3.151  24.448  0.00  0.00    +0.085 A 
ATOM      5  C   UNL     1       4.299  -4.124  23.745  0.00  0.00    +0.017 A 
ATOM      6  C   UNL     1       4.871  -4.897  22.733  0.00  0.00    +0.003 A 
ATOM      7  C   UNL     1       6.218  -4.741  22.408  0.00  0.00    +0.030 A 
ATOM      8  C   UNL     1       6.986  -3.793  23.093  0.00  0.00    +0.094 A 
ATOM      9  N   UNL     1       8.320  -3.518  22.918  0.00  0.00    -0.195 NA
ENDROOT
BRANCH   4  10
ATOM     10  C   UNL     1       4.432  -2.461  25.609  0.00  0.00    +0.342 C 
ATOM     11  O   UNL     1       4.345  -1.244  25.669  0.00  0.00    -0.245 OA
BRANCH  10  12
ATOM     12  O   UNL     1       4.093  -3.326  26.607  0.00  0.00    -0.453 OA
BRANCH  12  13
ATOM     13  C   UNL     1       5.025  -3.414  27.702  0.00  0.00    +0.310 C 
BRANCH  13  14
ATOM     14  C   UNL     1       6.113  -4.398  27.413  0.00  0.00    +0.187 A 
ATOM     15  O   UNL     1       7.388  -3.882  27.343  0.00  0.00    -0.392 OA
ATOM     16  C   UNL     1       8.091  -4.919  26.764  0.00  0.00    +0.521 A 
ATOM     17  O   UNL     1       9.242  -4.810  26.359  0.00  0.00    -0.202 OA
ATOM     18  O   UNL     1       7.377  -6.090  26.672  0.00  0.00    -0.396 OA
ATOM     19  C   UNL     1       6.109  -5.646  26.985  0.00  0.00    +0.151 A 
ATOM     20  C   UNL     1       5.015  -6.564  26.601  0.00  0.00    +0.090 C 
ENDBRANCH  13  14
ENDBRANCH  12  13
ENDBRANCH  10  12
ENDBRANCH   4  10
BRANCH   1  21
ATOM     21  O   UNL     1       9.767  -1.984  23.933  0.00  0.00    -0.464 OA
BRANCH  21  23
ATOM     22  C   UNL     1      10.130  -0.490  22.088  0.00  0.00    +0.048 C 
ATOM     23  C   UNL     1      10.503  -1.817  22.720  0.00  0.00    +0.229 C 
ENDBRANCH  21  23
ENDBRANCH   1  21
BRANCH   2  24
ATOM     24  C   UNL     1       7.408  -0.886  25.202  0.00  0.00    +0.162 C 
BRANCH  24  25
ATOM     25  C   UNL     1       7.548   0.334  24.311  0.00  0.00    -0.028 A 
ATOM     26  C   UNL     1       6.895   0.436  23.084  0.00  0.00    +0.006 A 
ATOM     27  C   UNL     1       6.754   1.675  22.447  0.00  0.00    +0.009 A 
ATOM     28  C   UNL     1       7.223   2.847  23.043  0.00  0.00    -0.017 A 
ATOM     29  C   UNL     1       8.205   2.646  24.027  0.00  0.00    +0.009 A 
ATOM     30  C   UNL     1       8.334   1.417  24.698  0.00  0.00    +0.006 A 
BRANCH  28  31
ATOM     31  C   UNL     1       6.568   4.183  22.792  0.00  0.00    -0.007 A 
ATOM     32  C   UNL     1       5.291   4.554  23.313  0.00  0.00    +0.028 A 
ATOM     33  C   UNL     1       4.794   5.874  23.188  0.00  0.00    +0.012 A 
ATOM     34  C   UNL     1       5.552   6.871  22.599  0.00  0.00    +0.001 A 
ATOM     35  C   UNL     1       6.792   6.543  22.076  0.00  0.00    +0.001 A 
ATOM     36  C   UNL     1       7.264   5.218  22.128  0.00  0.00    +0.009 A 
BRANCH  32  37
ATOM     37  C   UNL     1       4.419   3.682  24.126  0.00  0.00    +0.183 A 
ATOM     38  N   UNL     1       4.683   3.503  25.430  0.00  0.00    -0.271 N 
ATOM     39  H   UNL     1       5.438   3.864  25.985  0.00  0.00    +0.174 HD
ATOM     40  C   UNL     1       3.808   2.594  25.881  0.00  0.00    +0.440 A 
ATOM     41  O   UNL     1       3.814   2.093  26.994  0.00  0.00    -0.221 OA
ATOM     42  O   UNL     1       2.943   2.286  24.868  0.00  0.00    -0.295 OA
ATOM     43  N   UNL     1       3.412   2.990  23.715  0.00  0.00    -0.054 NA
ENDBRANCH  32  37
ENDBRANCH  28  31
ENDBRANCH  24  25
ENDBRANCH   2  24
TORSDOF 10
ENDMDL
MODEL 7
REMARK VINA RESULT:      -7.4      1.993      3.265
REMARK  Name = 
REMARK  12 active torsions:
REMARK  status: ('A' for Active; 'I' for Inactive)
REMARK    1  A    between atoms: C_1  and  C_2
REMARK    2  A    between atoms: C_2  and  O_3
REMARK    3  A    between atoms: O_3  and  C_4
REMARK    4  A    between atoms: N_8  and  C_9
REMARK    5  A    between atoms: C_9  and  C_10
REMARK    6  A    between atoms: C_13  and  C_16
REMARK    7  A    between atoms: C_21  and  C_22
REMARK    8  A    between atoms: C_28  and  C_32
REMARK    9  A    between atoms: C_32  and  O_34
REMARK   10  A    between atoms: O_34  and  C_35
REMARK   11  A    between atoms: C_35  and  C_36
REMARK   12  A    between atoms: C_37  and  C_38
REMARK                            x       y       z     vdW  Elec       q    Type
REMARK                         _______ _______ _______ _____ _____    ______ ____
ROOT
ATOM      1  C   UNL     1       7.195   2.124  26.347  0.00  0.00    +0.299 A 
ATOM      2  N   UNL     1       7.773   1.366  25.346  0.00  0.00    -0.289 N 
ATOM      3  C   UNL     1       7.658   2.074  24.163  0.00  0.00    +0.086 A 
ATOM      4  C   UNL     1       8.071   1.907  22.813  0.00  0.00    +0.085 A 
ATOM      5  C   UNL     1       7.639   2.869  21.871  0.00  0.00    +0.017 A 
ATOM      6  C   UNL     1       6.834   3.947  22.242  0.00  0.00    +0.003 A 
ATOM      7  C   UNL     1       6.454   4.114  23.574  0.00  0.00    +0.030 A 
ATOM      8  C   UNL     1       6.875   3.183  24.530  0.00  0.00    +0.094 A 
ATOM      9  N   UNL     1       6.612   3.198  25.878  0.00  0.00    -0.195 NA
ENDROOT
BRANCH   4  10
ATOM     10  C   UNL     1       9.042   0.865  22.396  0.00  0.00    +0.342 C 
ATOM     11  O   UNL     1      10.210   1.128  22.152  0.00  0.00    -0.245 OA
BRANCH  10  12
ATOM     12  O   UNL     1       8.454  -0.352  22.222  0.00  0.00    -0.453 OA
BRANCH  12  13
ATOM     13  C   UNL     1       9.355  -1.471  22.108  0.00  0.00    +0.310 C 
BRANCH  13  14
ATOM     14  C   UNL     1       8.966  -2.581  23.032  0.00  0.00    +0.187 A 
ATOM     15  O   UNL     1       9.908  -2.940  23.970  0.00  0.00    -0.392 OA
ATOM     16  C   UNL     1       9.416  -4.145  24.429  0.00  0.00    +0.521 A 
ATOM     17  O   UNL     1      10.051  -4.899  25.157  0.00  0.00    -0.202 OA
ATOM     18  O   UNL     1       8.147  -4.432  23.986  0.00  0.00    -0.396 OA
ATOM     19  C   UNL     1       7.985  -3.463  23.017  0.00  0.00    +0.151 A 
ATOM     20  C   UNL     1       6.886  -3.716  22.061  0.00  0.00    +0.090 C 
ENDBRANCH  13  14
ENDBRANCH  12  13
ENDBRANCH  10  12
ENDBRANCH   4  10
BRANCH   1  21
ATOM     21  O   UNL     1       7.197   1.749  27.621  0.00  0.00    -0.464 OA
BRANCH  21  23
ATOM     22  C   UNL     1       5.131   1.857  28.840  0.00  0.00    +0.048 C 
ATOM     23  C   UNL     1       6.408   2.586  28.469  0.00  0.00    +0.229 C 
ENDBRANCH  21  23
ENDBRANCH   1  21
BRANCH   2  24
ATOM     24  C   UNL     1       8.208  -0.017  25.562  0.00  0.00    +0.162 C 
BRANCH  24  25
ATOM     25  C   UNL     1       7.038  -0.973  25.704  0.00  0.00    -0.028 A 
ATOM     26  C   UNL     1       5.897  -0.873  24.912  0.00  0.00    +0.006 A 
ATOM     27  C   UNL     1       4.997  -1.940  24.811  0.00  0.00    +0.009 A 
ATOM     28  C   UNL     1       5.240  -3.150  25.464  0.00  0.00    -0.017 A 
ATOM     29  C   UNL     1       6.137  -3.058  26.542  0.00  0.00    +0.009 A 
ATOM     30  C   UNL     1       7.069  -2.008  26.636  0.00  0.00    +0.006 A 
BRANCH  28  31
ATOM     31  C   UNL     1       4.742  -4.464  24.916  0.00  0.00    -0.007 A 
ATOM     32  C   UNL     1       4.999  -5.729  25.526  0.00  0.00    +0.028 A 
ATOM     33  C   UNL     1       4.374  -6.914  25.068  0.00  0.00    +0.012 A 
ATOM     34  C   UNL     1       3.445  -6.882  24.042  0.00  0.00    +0.001 A 
ATOM     35  C   UNL     1       3.177  -5.672  23.424  0.00  0.00    +0.001 A 
ATOM     36  C   UNL     1       3.850  -4.501  23.821  0.00  0.00    +0.009 A 
BRANCH  32  37
ATOM     37  C   UNL     1       5.816  -5.938  26.739  0.00  0.00    +0.183 A 
ATOM     38  N   UNL     1       5.222  -5.990  27.942  0.00  0.00    -0.271 N 
ATOM     39  H   UNL     1       4.253  -5.881  28.182  0.00  0.00    +0.174 HD
ATOM     40  C   UNL     1       6.201  -6.077  28.853  0.00  0.00    +0.440 A 
ATOM     41  O   UNL     1       6.051  -6.030  30.063  0.00  0.00    -0.221 OA
ATOM     42  O   UNL     1       7.396  -6.175  28.196  0.00  0.00    -0.295 OA
ATOM     43  N   UNL     1       7.100  -6.030  26.805  0.00  0.00    -0.054 NA
ENDBRANCH  32  37
ENDBRANCH  28  31
ENDBRANCH  24  25
ENDBRANCH   2  24
TORSDOF 10
ENDMDL
MODEL 8
REMARK VINA RESULT:      -7.4      2.259      4.777
REMARK  Name = 
REMARK  12 active torsions:
REMARK  status: ('A' for Active; 'I' for Inactive)
REMARK    1  A    between atoms: C_1  and  C_2
REMARK    2  A    between atoms: C_2  and  O_3
REMARK    3  A    between atoms: O_3  and  C_4
REMARK    4  A    between atoms: N_8  and  C_9
REMARK    5  A    between atoms: C_9  and  C_10
REMARK    6  A    between atoms: C_13  and  C_16
REMARK    7  A    between atoms: C_21  and  C_22
REMARK    8  A    between atoms: C_28  and  C_32
REMARK    9  A    between atoms: C_32  and  O_34
REMARK   10  A    between atoms: O_34  and  C_35
REMARK   11  A    between atoms: C_35  and  C_36
REMARK   12  A    between atoms: C_37  and  C_38
REMARK                            x       y       z     vdW  Elec       q    Type
REMARK                         _______ _______ _______ _____ _____    ______ ____
ROOT
ATOM      1  C   UNL     1       9.817  -0.042  24.265  0.00  0.00    +0.299 A 
ATOM      2  N   UNL     1       8.980   0.590  25.165  0.00  0.00    -0.289 N 
ATOM      3  C   UNL     1       8.990   1.942  24.869  0.00  0.00    +0.086 A 
ATOM      4  C   UNL     1       8.336   3.109  25.348  0.00  0.00    +0.085 A 
ATOM      5  C   UNL     1       8.731   4.353  24.801  0.00  0.00    +0.017 A 
ATOM      6  C   UNL     1       9.727   4.441  23.828  0.00  0.00    +0.003 A 
ATOM      7  C   UNL     1      10.346   3.286  23.349  0.00  0.00    +0.030 A 
ATOM      8  C   UNL     1       9.969   2.041  23.864  0.00  0.00    +0.094 A 
ATOM      9  N   UNL     1      10.455   0.809  23.502  0.00  0.00    -0.195 NA
ENDROOT
BRANCH   4  10
ATOM     10  C   UNL     1       7.175   3.056  26.270  0.00  0.00    +0.342 C 
ATOM     11  O   UNL     1       7.300   3.182  27.479  0.00  0.00    -0.245 OA
BRANCH  10  12
ATOM     12  O   UNL     1       6.013   2.752  25.624  0.00  0.00    -0.453 OA
BRANCH  12  13
ATOM     13  C   UNL     1       5.105   3.852  25.420  0.00  0.00    +0.310 C 
BRANCH  13  14
ATOM     14  C   UNL     1       4.407   3.744  24.102  0.00  0.00    +0.187 A 
ATOM     15  O   UNL     1       3.043   3.560  24.158  0.00  0.00    -0.392 OA
ATOM     16  C   UNL     1       2.748   3.182  22.863  0.00  0.00    +0.521 A 
ATOM     17  O   UNL     1       1.654   2.749  22.520  0.00  0.00    -0.202 OA
ATOM     18  O   UNL     1       3.799   3.327  21.989  0.00  0.00    -0.396 OA
ATOM     19  C   UNL     1       4.836   3.566  22.868  0.00  0.00    +0.151 A 
ATOM     20  C   UNL     1       6.188   3.379  22.299  0.00  0.00    +0.090 C 
ENDBRANCH  13  14
ENDBRANCH  12  13
ENDBRANCH  10  12
ENDBRANCH   4  10
BRANCH   1  21
ATOM     21  O   UNL     1       9.980  -1.361  24.241  0.00  0.00    -0.464 OA
BRANCH  21  23
ATOM     22  C   UNL     1       8.764  -2.202  22.349  0.00  0.00    +0.048 C 
ATOM     23  C   UNL     1      10.133  -1.899  22.927  0.00  0.00    +0.229 C 
ENDBRANCH  21  23
ENDBRANCH   1  21
BRANCH   2  24
ATOM     24  C   UNL     1       8.403  -0.104  26.319  0.00  0.00    +0.162 C 
BRANCH  24  25
ATOM     25  C   UNL     1       7.086  -0.780  25.985  0.00  0.00    -0.028 A 
ATOM     26  C   UNL     1       6.573  -0.810  24.690  0.00  0.00    +0.006 A 
ATOM     27  C   UNL     1       5.561  -1.711  24.339  0.00  0.00    +0.009 A 
ATOM     28  C   UNL     1       5.068  -2.634  25.263  0.00  0.00    -0.017 A 
ATOM     29  C   UNL     1       5.300  -2.292  26.606  0.00  0.00    +0.009 A 
ATOM     30  C   UNL     1       6.336  -1.414  26.973  0.00  0.00    +0.006 A 
BRANCH  28  31
ATOM     31  C   UNL     1       4.526  -3.976  24.835  0.00  0.00    -0.007 A 
ATOM     32  C   UNL     1       5.267  -5.194  24.914  0.00  0.00    +0.028 A 
ATOM     33  C   UNL     1       4.661  -6.448  24.656  0.00  0.00    +0.012 A 
ATOM     34  C   UNL     1       3.311  -6.544  24.369  0.00  0.00    +0.001 A 
ATOM     35  C   UNL     1       2.565  -5.381  24.278  0.00  0.00    +0.001 A 
ATOM     36  C   UNL     1       3.173  -4.124  24.457  0.00  0.00    +0.009 A 
BRANCH  32  37
ATOM     37  C   UNL     1       6.665  -5.311  25.378  0.00  0.00    +0.183 A 
ATOM     38  N   UNL     1       7.665  -4.863  24.602  0.00  0.00    -0.271 N 
ATOM     39  H   UNL     1       7.630  -4.455  23.686  0.00  0.00    +0.174 HD
ATOM     40  C   UNL     1       8.809  -5.194  25.217  0.00  0.00    +0.440 A 
ATOM     41  O   UNL     1       9.930  -5.052  24.757  0.00  0.00    -0.221 OA
ATOM     42  O   UNL     1       8.503  -5.764  26.422  0.00  0.00    -0.295 OA
ATOM     43  N   UNL     1       7.078  -5.866  26.466  0.00  0.00    -0.054 NA
ENDBRANCH  32  37
ENDBRANCH  28  31
ENDBRANCH  24  25
ENDBRANCH   2  24
TORSDOF 10
ENDMDL
MODEL 9
REMARK VINA RESULT:      -7.3      3.256      5.899
REMARK  Name = 
REMARK  12 active torsions:
REMARK  status: ('A' for Active; 'I' for Inactive)
REMARK    1  A    between atoms: C_1  and  C_2
REMARK    2  A    between atoms: C_2  and  O_3
REMARK    3  A    between atoms: O_3  and  C_4
REMARK    4  A    between atoms: N_8  and  C_9
REMARK    5  A    between atoms: C_9  and  C_10
REMARK    6  A    between atoms: C_13  and  C_16
REMARK    7  A    between atoms: C_21  and  C_22
REMARK    8  A    between atoms: C_28  and  C_32
REMARK    9  A    between atoms: C_32  and  O_34
REMARK   10  A    between atoms: O_34  and  C_35
REMARK   11  A    between atoms: C_35  and  C_36
REMARK   12  A    between atoms: C_37  and  C_38
REMARK                            x       y       z     vdW  Elec       q    Type
REMARK                         _______ _______ _______ _____ _____    ______ ____
ROOT
ATOM      1  C   UNL     1       8.188  -3.394  23.968  0.00  0.00    +0.299 A 
ATOM      2  N   UNL     1       7.830  -2.192  24.548  0.00  0.00    -0.289 N 
ATOM      3  C   UNL     1       8.152  -1.183  23.657  0.00  0.00    +0.086 A 
ATOM      4  C   UNL     1       8.008   0.230  23.599  0.00  0.00    +0.085 A 
ATOM      5  C   UNL     1       8.590   0.904  22.500  0.00  0.00    +0.017 A 
ATOM      6  C   UNL     1       9.284   0.216  21.503  0.00  0.00    +0.003 A 
ATOM      7  C   UNL     1       9.398  -1.174  21.559  0.00  0.00    +0.030 A 
ATOM      8  C   UNL     1       8.824  -1.868  22.630  0.00  0.00    +0.094 A 
ATOM      9  N   UNL     1       8.825  -3.226  22.836  0.00  0.00    -0.195 NA
ENDROOT
BRANCH   4  10
ATOM     10  C   UNL     1       7.160   0.989  24.551  0.00  0.00    +0.342 C 
ATOM     11  O   UNL     1       5.940   0.920  24.530  0.00  0.00    -0.245 OA
BRANCH  10  12
ATOM     12  O   UNL     1       7.890   1.822  25.346  0.00  0.00    -0.453 OA
BRANCH  12  13
ATOM     13  C   UNL     1       7.373   3.159  25.490  0.00  0.00    +0.310 C 
BRANCH  13  14
ATOM     14  C   UNL     1       7.807   4.035  24.358  0.00  0.00    +0.187 A 
ATOM     15  O   UNL     1       8.895   4.843  24.606  0.00  0.00    -0.392 OA
ATOM     16  C   UNL     1       8.848   5.726  23.546  0.00  0.00    +0.521 A 
ATOM     17  O   UNL     1       9.544   6.732  23.476  0.00  0.00    -0.202 OA
ATOM     18  O   UNL     1       7.939   5.380  22.575  0.00  0.00    -0.396 OA
ATOM     19  C   UNL     1       7.241   4.379  23.217  0.00  0.00    +0.151 A 
ATOM     20  C   UNL     1       5.933   4.046  22.612  0.00  0.00    +0.090 C 
ENDBRANCH  13  14
ENDBRANCH  12  13
ENDBRANCH  10  12
ENDBRANCH   4  10
BRANCH   1  21
ATOM     21  O   UNL     1       7.952  -4.567  24.544  0.00  0.00    -0.464 OA
BRANCH  21  23
ATOM     22  C   UNL     1       9.632  -4.892  26.228  0.00  0.00    +0.048 C 
ATOM     23  C   UNL     1       9.134  -5.305  24.856  0.00  0.00    +0.229 C 
ENDBRANCH  21  23
ENDBRANCH   1  21
BRANCH   2  24
ATOM     24  C   UNL     1       7.394  -2.095  25.943  0.00  0.00    +0.162 C 
BRANCH  24  25
ATOM     25  C   UNL     1       6.074  -2.801  26.186  0.00  0.00    -0.028 A 
ATOM     26  C   UNL     1       4.907  -2.445  25.512  0.00  0.00    +0.006 A 
ATOM     27  C   UNL     1       3.803  -3.306  25.485  0.00  0.00    +0.009 A 
ATOM     28  C   UNL     1       3.856  -4.562  26.092  0.00  0.00    -0.017 A 
ATOM     29  C   UNL     1       4.850  -4.690  27.076  0.00  0.00    +0.009 A 
ATOM     30  C   UNL     1       5.980  -3.853  27.094  0.00  0.00    +0.006 A 
BRANCH  28  31
ATOM     31  C   UNL     1       3.050  -5.729  25.576  0.00  0.00    -0.007 A 
ATOM     32  C   UNL     1       3.249  -6.327  24.294  0.00  0.00    +0.028 A 
ATOM     33  C   UNL     1       2.583  -7.520  23.922  0.00  0.00    +0.012 A 
ATOM     34  C   UNL     1       1.752  -8.182  24.809  0.00  0.00    +0.001 A 
ATOM     35  C   UNL     1       1.532  -7.625  26.058  0.00  0.00    +0.001 A 
ATOM     36  C   UNL     1       2.129  -6.400  26.411  0.00  0.00    +0.009 A 
BRANCH  32  37
ATOM     37  C   UNL     1       4.227  -5.871  23.285  0.00  0.00    +0.183 A 
ATOM     38  N   UNL     1       5.323  -6.605  23.038  0.00  0.00    -0.271 N 
ATOM     39  H   UNL     1       5.629  -7.460  23.467  0.00  0.00    +0.174 HD
ATOM     40  C   UNL     1       6.070  -5.907  22.172  0.00  0.00    +0.440 A 
ATOM     41  O   UNL     1       7.194  -6.204  21.803  0.00  0.00    -0.221 OA
ATOM     42  O   UNL     1       5.380  -4.781  21.816  0.00  0.00    -0.295 OA
ATOM     43  N   UNL     1       4.191  -4.773  22.610  0.00  0.00    -0.054 NA
ENDBRANCH  32  37
ENDBRANCH  28  31
ENDBRANCH  24  25
ENDBRANCH   2  24
TORSDOF 10
ENDMDL
