MODEL 1
REMARK VINA RESULT:      -7.8      0.000      0.000
REMARK  Name = 
REMARK  7 active torsions:
REMARK  status: ('A' for Active; 'I' for Inactive)
REMARK    1  A    between atoms: C_7  and  C_8
REMARK    2  A    between atoms: C_8  and  C_11
REMARK    3  A    between atoms: C_11  and  N_12
REMARK    4  A    between atoms: N_18  and  C_19
REMARK    5  A    between atoms: C_19  and  C_20
REMARK    6  A    between atoms: N_22  and  C_23
REMARK    7  A    between atoms: C_23  and  C_24
REMARK                            x       y       z     vdW  Elec       q    Type
REMARK                         _______ _______ _______ _____ _____    ______ ____
ROOT
ATOM      1  N   UNL     1       8.109  -2.895  25.892  0.00  0.00    -0.318 N 
ATOM      2  H   UNL     1       9.074  -3.227  25.907  0.00  0.00    +0.148 HD
ATOM      3  C   UNL     1       7.812  -1.935  24.940  0.00  0.00    +0.185 A 
ATOM      4  C   UNL     1       8.994  -1.426  24.080  0.00  0.00    +0.293 A 
ATOM      5  O   UNL     1      10.051  -2.042  24.131  0.00  0.00    -0.264 OA
ATOM      6  N   UNL     1       8.734  -0.310  23.302  0.00  0.00    -0.286 N 
ATOM      7  C   UNL     1       7.428   0.129  23.179  0.00  0.00    +0.131 A 
ATOM      8 CL   UNL     1       7.079   1.430  22.112  0.00  0.00    -0.062 Cl
ATOM      9  C   UNL     1       6.441  -0.469  23.858  0.00  0.00    +0.151 A 
ATOM     10  N   UNL     1       6.604  -1.473  24.778  0.00  0.00    -0.232 NA
ENDROOT
BRANCH   1  11
ATOM     11  C   UNL     1       7.103  -3.776  26.485  0.00  0.00    +0.190 C 
BRANCH  11  12
ATOM     12  C   UNL     1       7.080  -5.214  25.902  0.00  0.00    +0.347 C 
ATOM     13  F   UNL     1       8.321  -5.765  26.070  0.00  0.00    -0.192 F 
ATOM     14  F   UNL     1       6.281  -5.982  26.716  0.00  0.00    -0.192 F 
BRANCH  12  17
ATOM     15  O   UNL     1       8.801  -5.080  23.746  0.00  0.00    -0.619 OA
ATOM     16  N   UNL     1       7.576  -5.271  23.485  0.00  0.00    -0.169 N 
ATOM     17  C   UNL     1       6.614  -5.312  24.477  0.00  0.00    +0.266 A 
ATOM     18  C   UNL     1       5.260  -5.494  24.137  0.00  0.00    +0.081 A 
ATOM     19  C   UNL     1       4.878  -5.632  22.805  0.00  0.00    +0.012 A 
ATOM     20  C   UNL     1       5.840  -5.595  21.808  0.00  0.00    +0.071 A 
ATOM     21  C   UNL     1       7.178  -5.417  22.161  0.00  0.00    +0.322 A 
ENDBRANCH  12  17
ENDBRANCH  11  12
ENDBRANCH   1  11
BRANCH   6  22
ATOM     22  C   UNL     1       9.856   0.338  22.626  0.00  0.00    +0.222 C 
BRANCH  22  23
ATOM     23  C   UNL     1      10.471   1.522  23.370  0.00  0.00    +0.233 C 
ATOM     24  N   UNL     1      10.135   2.776  22.908  0.00  0.00    -0.310 N 
ATOM     25  H   UNL     1       9.764   2.861  21.965  0.00  0.00    +0.149 HD
ATOM     26  O   UNL     1      11.293   1.351  24.268  0.00  0.00    -0.274 OA
BRANCH  24  27
ATOM     27  C   UNL     1      10.721   3.933  23.539  0.00  0.00    +0.142 C 
BRANCH  27  28
ATOM     28  C   UNL     1       9.703   4.924  24.018  0.00  0.00    +0.005 A 
ATOM     29  C   UNL     1       9.652   6.230  23.506  0.00  0.00    +0.008 A 
ATOM     30  C   UNL     1       8.639   7.107  23.905  0.00  0.00    +0.000 A 
ATOM     31  C   UNL     1       7.670   6.693  24.819  0.00  0.00    +0.003 A 
ATOM     32  C   UNL     1       7.714   5.399  25.338  0.00  0.00    +0.038 A 
ATOM     33  C   UNL     1       8.725   4.532  24.934  0.00  0.00    +0.128 A 
ATOM     34  F   UNL     1       8.734   3.288  25.435  0.00  0.00    -0.205 F 
ENDBRANCH  27  28
ENDBRANCH  24  27
ENDBRANCH  22  23
ENDBRANCH   6  22
TORSDOF 7
ENDMDL
MODEL 2
REMARK VINA RESULT:      -7.7      2.803      8.679
REMARK  Name = 
REMARK  7 active torsions:
REMARK  status: ('A' for Active; 'I' for Inactive)
REMARK    1  A    between atoms: C_7  and  C_8
REMARK    2  A    between atoms: C_8  and  C_11
REMARK    3  A    between atoms: C_11  and  N_12
REMARK    4  A    between atoms: N_18  and  C_19
REMARK    5  A    between atoms: C_19  and  C_20
REMARK    6  A    between atoms: N_22  and  C_23
REMARK    7  A    between atoms: C_23  and  C_24
REMARK                            x       y       z     vdW  Elec       q    Type
REMARK                         _______ _______ _______ _____ _____    ______ ____
ROOT
ATOM      1  N   UNL     1       9.967   0.042  23.694  0.00  0.00    -0.318 N 
ATOM      2  H   UNL     1      10.413  -0.316  22.848  0.00  0.00    +0.148 HD
ATOM      3  C   UNL     1       9.428  -0.906  24.545  0.00  0.00    +0.185 A 
ATOM      4  C   UNL     1       9.492  -2.377  24.069  0.00  0.00    +0.293 A 
ATOM      5  O   UNL     1      10.194  -2.640  23.100  0.00  0.00    -0.264 OA
ATOM      6  N   UNL     1       8.748  -3.281  24.810  0.00  0.00    -0.286 N 
ATOM      7  C   UNL     1       8.196  -2.867  26.008  0.00  0.00    +0.131 A 
ATOM      8 CL   UNL     1       7.385  -4.016  26.997  0.00  0.00    -0.062 Cl
ATOM      9  C   UNL     1       8.315  -1.596  26.412  0.00  0.00    +0.151 A 
ATOM     10  N   UNL     1       8.886  -0.582  25.685  0.00  0.00    -0.232 NA
ENDROOT
BRANCH   1  11
ATOM     11  C   UNL     1      10.374   1.378  24.133  0.00  0.00    +0.190 C 
BRANCH  11  12
ATOM     12  C   UNL     1      10.283   2.473  23.037  0.00  0.00    +0.347 C 
ATOM     13  F   UNL     1      11.304   3.364  23.235  0.00  0.00    -0.192 F 
ATOM     14  F   UNL     1      10.604   1.889  21.835  0.00  0.00    -0.192 F 
BRANCH  12  17
ATOM     15  O   UNL     1       8.162   1.447  21.597  0.00  0.00    -0.619 OA
ATOM     16  N   UNL     1       7.955   2.530  22.221  0.00  0.00    -0.169 N 
ATOM     17  C   UNL     1       8.952   3.162  22.940  0.00  0.00    +0.266 A 
ATOM     18  C   UNL     1       8.686   4.382  23.591  0.00  0.00    +0.081 A 
ATOM     19  C   UNL     1       7.421   4.961  23.516  0.00  0.00    +0.012 A 
ATOM     20  C   UNL     1       6.418   4.328  22.800  0.00  0.00    +0.071 A 
ATOM     21  C   UNL     1       6.697   3.119  22.163  0.00  0.00    +0.322 A 
ENDBRANCH  12  17
ENDBRANCH  11  12
ENDBRANCH   1  11
BRANCH   6  22
ATOM     22  C   UNL     1       8.602  -4.642  24.296  0.00  0.00    +0.222 C 
BRANCH  22  23
ATOM     23  C   UNL     1       7.369  -4.885  23.430  0.00  0.00    +0.233 C 
ATOM     24  N   UNL     1       6.305  -5.513  24.042  0.00  0.00    -0.310 N 
ATOM     25  H   UNL     1       6.478  -6.032  24.898  0.00  0.00    +0.149 HD
ATOM     26  O   UNL     1       7.372  -4.618  22.230  0.00  0.00    -0.274 OA
BRANCH  24  27
ATOM     27  C   UNL     1       5.129  -5.813  23.264  0.00  0.00    +0.142 C 
BRANCH  27  28
ATOM     28  C   UNL     1       3.876  -5.222  23.836  0.00  0.00    +0.005 A 
ATOM     29  C   UNL     1       3.917  -4.174  24.769  0.00  0.00    +0.008 A 
ATOM     30  C   UNL     1       2.733  -3.582  25.220  0.00  0.00    +0.000 A 
ATOM     31  C   UNL     1       1.499  -4.030  24.750  0.00  0.00    +0.003 A 
ATOM     32  C   UNL     1       1.446  -5.074  23.827  0.00  0.00    +0.038 A 
ATOM     33  C   UNL     1       2.629  -5.657  23.381  0.00  0.00    +0.128 A 
ATOM     34  F   UNL     1       2.550  -6.648  22.481  0.00  0.00    -0.205 F 
ENDBRANCH  27  28
ENDBRANCH  24  27
ENDBRANCH  22  23
ENDBRANCH   6  22
TORSDOF 7
ENDMDL
MODEL 3
REMARK VINA RESULT:      -7.6      1.889      2.616
REMARK  Name = 
REMARK  7 active torsions:
REMARK  status: ('A' for Active; 'I' for Inactive)
REMARK    1  A    between atoms: C_7  and  C_8
REMARK    2  A    between atoms: C_8  and  C_11
REMARK    3  A    between atoms: C_11  and  N_12
REMARK    4  A    between atoms: N_18  and  C_19
REMARK    5  A    between atoms: C_19  and  C_20
REMARK    6  A    between atoms: N_22  and  C_23
REMARK    7  A    between atoms: C_23  and  C_24
REMARK                            x       y       z     vdW  Elec       q    Type
REMARK                         _______ _______ _______ _____ _____    ______ ____
ROOT
ATOM      1  N   UNL     1       6.710  -2.430  25.457  0.00  0.00    -0.318 N 
ATOM      2  H   UNL     1       5.796  -2.087  25.756  0.00  0.00    +0.148 HD
ATOM      3  C   UNL     1       7.406  -1.619  24.577  0.00  0.00    +0.185 A 
ATOM      4  C   UNL     1       6.677  -0.343  24.092  0.00  0.00    +0.293 A 
ATOM      5  O   UNL     1       5.648  -0.012  24.668  0.00  0.00    -0.264 OA
ATOM      6  N   UNL     1       7.280   0.330  23.043  0.00  0.00    -0.286 N 
ATOM      7  C   UNL     1       8.556  -0.040  22.657  0.00  0.00    +0.131 A 
ATOM      8 CL   UNL     1       9.363   0.875  21.446  0.00  0.00    -0.062 Cl
ATOM      9  C   UNL     1       9.169  -1.079  23.238  0.00  0.00    +0.151 A 
ATOM     10  N   UNL     1       8.607  -1.915  24.168  0.00  0.00    -0.232 NA
ENDROOT
BRANCH   1  11
ATOM     11  C   UNL     1       7.357  -3.412  26.327  0.00  0.00    +0.190 C 
BRANCH  11  12
ATOM     12  C   UNL     1       6.978  -4.887  26.029  0.00  0.00    +0.347 C 
ATOM     13  F   UNL     1       7.993  -5.690  26.475  0.00  0.00    -0.192 F 
ATOM     14  F   UNL     1       5.927  -5.223  26.850  0.00  0.00    -0.192 F 
BRANCH  12  17
ATOM     15  O   UNL     1       8.881  -5.208  24.053  0.00  0.00    -0.619 OA
ATOM     16  N   UNL     1       7.672  -5.353  23.707  0.00  0.00    -0.169 N 
ATOM     17  C   UNL     1       6.629  -5.174  24.597  0.00  0.00    +0.266 A 
ATOM     18  C   UNL     1       5.298  -5.314  24.158  0.00  0.00    +0.081 A 
ATOM     19  C   UNL     1       5.021  -5.632  22.831  0.00  0.00    +0.012 A 
ATOM     20  C   UNL     1       6.064  -5.816  21.937  0.00  0.00    +0.071 A 
ATOM     21  C   UNL     1       7.376  -5.676  22.387  0.00  0.00    +0.322 A 
ENDBRANCH  12  17
ENDBRANCH  11  12
ENDBRANCH   1  11
BRANCH   6  22
ATOM     22  C   UNL     1       6.544   1.421  22.407  0.00  0.00    +0.222 C 
BRANCH  22  23
ATOM     23  C   UNL     1       7.068   2.824  22.706  0.00  0.00    +0.233 C 
ATOM     24  N   UNL     1       7.575   3.032  23.971  0.00  0.00    -0.310 N 
ATOM     25  H   UNL     1       7.319   2.379  24.707  0.00  0.00    +0.149 HD
ATOM     26  O   UNL     1       6.949   3.735  21.888  0.00  0.00    -0.274 OA
BRANCH  24  27
ATOM     27  C   UNL     1       8.041   4.348  24.329  0.00  0.00    +0.142 C 
BRANCH  27  28
ATOM     28  C   UNL     1       9.499   4.555  24.048  0.00  0.00    +0.005 A 
ATOM     29  C   UNL     1      10.333   3.491  23.672  0.00  0.00    +0.008 A 
ATOM     30  C   UNL     1      11.669   3.725  23.331  0.00  0.00    +0.000 A 
ATOM     31  C   UNL     1      12.186   5.020  23.364  0.00  0.00    +0.003 A 
ATOM     32  C   UNL     1      11.368   6.085  23.741  0.00  0.00    +0.038 A 
ATOM     33  C   UNL     1      10.039   5.843  24.078  0.00  0.00    +0.128 A 
ATOM     34  F   UNL     1       9.270   6.886  24.421  0.00  0.00    -0.205 F 
ENDBRANCH  27  28
ENDBRANCH  24  27
ENDBRANCH  22  23
ENDBRANCH   6  22
TORSDOF 7
ENDMDL
MODEL 4
REMARK VINA RESULT:      -7.6      2.086      2.744
REMARK  Name = 
REMARK  7 active torsions:
REMARK  status: ('A' for Active; 'I' for Inactive)
REMARK    1  A    between atoms: C_7  and  C_8
REMARK    2  A    between atoms: C_8  and  C_11
REMARK    3  A    between atoms: C_11  and  N_12
REMARK    4  A    between atoms: N_18  and  C_19
REMARK    5  A    between atoms: C_19  and  C_20
REMARK    6  A    between atoms: N_22  and  C_23
REMARK    7  A    between atoms: C_23  and  C_24
REMARK                            x       y       z     vdW  Elec       q    Type
REMARK                         _______ _______ _______ _____ _____    ______ ____
ROOT
ATOM      1  N   UNL     1       7.649  -3.547  22.107  0.00  0.00    -0.318 N 
ATOM      2  H   UNL     1       8.473  -3.765  21.545  0.00  0.00    +0.148 HD
ATOM      3  C   UNL     1       7.695  -2.361  22.818  0.00  0.00    +0.185 A 
ATOM      4  C   UNL     1       9.017  -1.560  22.740  0.00  0.00    +0.293 A 
ATOM      5  O   UNL     1       9.845  -1.893  21.901  0.00  0.00    -0.264 OA
ATOM      6  N   UNL     1       9.135  -0.507  23.632  0.00  0.00    -0.286 N 
ATOM      7  C   UNL     1       8.023  -0.116  24.354  0.00  0.00    +0.131 A 
ATOM      8 CL   UNL     1       8.124   1.272  25.363  0.00  0.00    -0.062 Cl
ATOM      9  C   UNL     1       6.869  -0.789  24.248  0.00  0.00    +0.151 A 
ATOM     10  N   UNL     1       6.684  -1.939  23.525  0.00  0.00    -0.232 NA
ENDROOT
BRANCH   1  11
ATOM     11  C   UNL     1       6.400  -4.205  21.721  0.00  0.00    +0.190 C 
BRANCH  11  12
ATOM     12  C   UNL     1       6.299  -5.695  22.140  0.00  0.00    +0.347 C 
ATOM     13  F   UNL     1       5.657  -6.380  21.143  0.00  0.00    -0.192 F 
ATOM     14  F   UNL     1       7.569  -6.223  22.117  0.00  0.00    -0.192 F 
BRANCH  12  17
ATOM     15  O   UNL     1       7.616  -5.260  24.529  0.00  0.00    -0.619 OA
ATOM     16  N   UNL     1       6.411  -5.643  24.605  0.00  0.00    -0.169 N 
ATOM     17  C   UNL     1       5.663  -5.935  23.480  0.00  0.00    +0.266 A 
ATOM     18  C   UNL     1       4.337  -6.390  23.614  0.00  0.00    +0.081 A 
ATOM     19  C   UNL     1       3.769  -6.549  24.876  0.00  0.00    +0.012 A 
ATOM     20  C   UNL     1       4.515  -6.254  26.006  0.00  0.00    +0.071 A 
ATOM     21  C   UNL     1       5.826  -5.803  25.856  0.00  0.00    +0.322 A 
ENDBRANCH  12  17
ENDBRANCH  11  12
ENDBRANCH   1  11
BRANCH   6  22
ATOM     22  C   UNL     1      10.431   0.158  23.749  0.00  0.00    +0.222 C 
BRANCH  22  23
ATOM     23  C   UNL     1      10.549   1.493  23.019  0.00  0.00    +0.233 C 
ATOM     24  N   UNL     1      11.021   2.556  23.758  0.00  0.00    -0.310 N 
ATOM     25  H   UNL     1      10.985   2.493  24.772  0.00  0.00    +0.149 HD
ATOM     26  O   UNL     1      10.150   1.623  21.863  0.00  0.00    -0.274 OA
BRANCH  24  27
ATOM     27  C   UNL     1      11.109   3.855  23.138  0.00  0.00    +0.142 C 
BRANCH  27  28
ATOM     28  C   UNL     1      10.177   4.863  23.740  0.00  0.00    +0.005 A 
ATOM     29  C   UNL     1       8.809   4.593  23.902  0.00  0.00    +0.008 A 
ATOM     30  C   UNL     1       7.978   5.515  24.546  0.00  0.00    +0.000 A 
ATOM     31  C   UNL     1       8.501   6.714  25.032  0.00  0.00    +0.003 A 
ATOM     32  C   UNL     1       9.858   6.994  24.873  0.00  0.00    +0.038 A 
ATOM     33  C   UNL     1      10.678   6.070  24.231  0.00  0.00    +0.128 A 
ATOM     34  F   UNL     1      11.982   6.357  24.106  0.00  0.00    -0.205 F 
ENDBRANCH  27  28
ENDBRANCH  24  27
ENDBRANCH  22  23
ENDBRANCH   6  22
TORSDOF 7
ENDMDL
MODEL 5
REMARK VINA RESULT:      -7.6      2.314      3.291
REMARK  Name = 
REMARK  7 active torsions:
REMARK  status: ('A' for Active; 'I' for Inactive)
REMARK    1  A    between atoms: C_7  and  C_8
REMARK    2  A    between atoms: C_8  and  C_11
REMARK    3  A    between atoms: C_11  and  N_12
REMARK    4  A    between atoms: N_18  and  C_19
REMARK    5  A    between atoms: C_19  and  C_20
REMARK    6  A    between atoms: N_22  and  C_23
REMARK    7  A    between atoms: C_23  and  C_24
REMARK                            x       y       z     vdW  Elec       q    Type
REMARK                         _______ _______ _______ _____ _____    ______ ____
ROOT
ATOM      1  N   UNL     1       6.993  -2.981  22.454  0.00  0.00    -0.318 N 
ATOM      2  H   UNL     1       6.050  -2.791  22.795  0.00  0.00    +0.148 HD
ATOM      3  C   UNL     1       8.004  -2.213  23.005  0.00  0.00    +0.185 A 
ATOM      4  C   UNL     1       7.570  -1.110  24.000  0.00  0.00    +0.293 A 
ATOM      5  O   UNL     1       6.414  -1.123  24.406  0.00  0.00    -0.264 OA
ATOM      6  N   UNL     1       8.554  -0.205  24.359  0.00  0.00    -0.286 N 
ATOM      7  C   UNL     1       9.863  -0.462  23.996  0.00  0.00    +0.131 A 
ATOM      8 CL   UNL     1      11.108   0.586  24.552  0.00  0.00    -0.062 Cl
ATOM      9  C   UNL     1      10.166  -1.530  23.246  0.00  0.00    +0.151 A 
ATOM     10  N   UNL     1       9.258  -2.399  22.699  0.00  0.00    -0.232 NA
ENDROOT
BRANCH   1  11
ATOM     11  C   UNL     1       7.220  -4.295  21.851  0.00  0.00    +0.190 C 
BRANCH  11  12
ATOM     12  C   UNL     1       6.973  -5.494  22.804  0.00  0.00    +0.347 C 
ATOM     13  F   UNL     1       5.849  -6.153  22.384  0.00  0.00    -0.192 F 
ATOM     14  F   UNL     1       7.975  -6.412  22.590  0.00  0.00    -0.192 F 
BRANCH  12  17
ATOM     15  O   UNL     1       9.197  -5.382  24.438  0.00  0.00    -0.619 OA
ATOM     16  N   UNL     1       8.087  -5.078  24.967  0.00  0.00    -0.169 N 
ATOM     17  C   UNL     1       6.899  -5.139  24.262  0.00  0.00    +0.266 A 
ATOM     18  C   UNL     1       5.684  -4.824  24.901  0.00  0.00    +0.081 A 
ATOM     19  C   UNL     1       5.668  -4.449  26.242  0.00  0.00    +0.012 A 
ATOM     20  C   UNL     1       6.856  -4.383  26.951  0.00  0.00    +0.071 A 
ATOM     21  C   UNL     1       8.051  -4.696  26.304  0.00  0.00    +0.322 A 
ENDBRANCH  12  17
ENDBRANCH  11  12
ENDBRANCH   1  11
BRANCH   6  22
ATOM     22  C   UNL     1       8.161   0.973  25.131  0.00  0.00    +0.222 C 
BRANCH  22  23
ATOM     23  C   UNL     1       8.192   2.294  24.367  0.00  0.00    +0.233 C 
ATOM     24  N   UNL     1       8.453   3.426  25.110  0.00  0.00    -0.310 N 
ATOM     25  H   UNL     1       8.321   3.384  26.117  0.00  0.00    +0.149 HD
ATOM     26  O   UNL     1       7.903   2.345  23.173  0.00  0.00    -0.274 OA
BRANCH  24  27
ATOM     27  C   UNL     1       8.449   4.709  24.453  0.00  0.00    +0.142 C 
BRANCH  27  28
ATOM     28  C   UNL     1       9.753   5.439  24.575  0.00  0.00    +0.005 A 
ATOM     29  C   UNL     1       9.919   6.501  25.478  0.00  0.00    +0.008 A 
ATOM     30  C   UNL     1      11.169   7.108  25.635  0.00  0.00    +0.000 A 
ATOM     31  C   UNL     1      12.263   6.666  24.892  0.00  0.00    +0.003 A 
ATOM     32  C   UNL     1      12.109   5.615  23.987  0.00  0.00    +0.038 A 
ATOM     33  C   UNL     1      10.861   5.016  23.838  0.00  0.00    +0.128 A 
ATOM     34  F   UNL     1      10.744   3.997  22.974  0.00  0.00    -0.205 F 
ENDBRANCH  27  28
ENDBRANCH  24  27
ENDBRANCH  22  23
ENDBRANCH   6  22
TORSDOF 7
ENDMDL
MODEL 6
REMARK VINA RESULT:      -7.3      2.599      9.379
REMARK  Name = 
REMARK  7 active torsions:
REMARK  status: ('A' for Active; 'I' for Inactive)
REMARK    1  A    between atoms: C_7  and  C_8
REMARK    2  A    between atoms: C_8  and  C_11
REMARK    3  A    between atoms: C_11  and  N_12
REMARK    4  A    between atoms: N_18  and  C_19
REMARK    5  A    between atoms: C_19  and  C_20
REMARK    6  A    between atoms: N_22  and  C_23
REMARK    7  A    between atoms: C_23  and  C_24
REMARK                            x       y       z     vdW  Elec       q    Type
REMARK                         _______ _______ _______ _____ _____    ______ ____
ROOT
ATOM      1  N   UNL     1       9.173   0.274  24.549  0.00  0.00    -0.318 N 
ATOM      2  H   UNL     1       9.324   0.471  25.539  0.00  0.00    +0.148 HD
ATOM      3  C   UNL     1       8.768  -1.013  24.239  0.00  0.00    +0.185 A 
ATOM      4  C   UNL     1       8.680  -2.011  25.418  0.00  0.00    +0.293 A 
ATOM      5  O   UNL     1       8.753  -1.566  26.557  0.00  0.00    -0.264 OA
ATOM      6  N   UNL     1       8.505  -3.340  25.069  0.00  0.00    -0.286 N 
ATOM      7  C   UNL     1       8.211  -3.651  23.754  0.00  0.00    +0.131 A 
ATOM      8 CL   UNL     1       7.861  -5.281  23.337  0.00  0.00    -0.062 Cl
ATOM      9  C   UNL     1       8.168  -2.692  22.819  0.00  0.00    +0.151 A 
ATOM     10  N   UNL     1       8.483  -1.373  23.019  0.00  0.00    -0.232 NA
ENDROOT
BRANCH   1  11
ATOM     11  C   UNL     1       8.917   1.427  23.684  0.00  0.00    +0.190 C 
BRANCH  11  12
ATOM     12  C   UNL     1      10.152   2.330  23.431  0.00  0.00    +0.347 C 
ATOM     13  F   UNL     1      11.215   1.808  24.118  0.00  0.00    -0.192 F 
ATOM     14  F   UNL     1      10.522   2.175  22.115  0.00  0.00    -0.192 F 
BRANCH  12  17
ATOM     15  O   UNL     1      12.174   4.204  23.256  0.00  0.00    -0.619 OA
ATOM     16  N   UNL     1      11.027   4.633  23.581  0.00  0.00    -0.169 N 
ATOM     17  C   UNL     1       9.948   3.785  23.743  0.00  0.00    +0.266 A 
ATOM     18  C   UNL     1       8.699   4.303  24.137  0.00  0.00    +0.081 A 
ATOM     19  C   UNL     1       8.541   5.668  24.367  0.00  0.00    +0.012 A 
ATOM     20  C   UNL     1       9.620   6.521  24.201  0.00  0.00    +0.071 A 
ATOM     21  C   UNL     1      10.849   5.993  23.808  0.00  0.00    +0.322 A 
ENDBRANCH  12  17
ENDBRANCH  11  12
ENDBRANCH   1  11
BRANCH   6  22
ATOM     22  C   UNL     1       8.617  -4.351  26.118  0.00  0.00    +0.222 C 
BRANCH  22  23
ATOM     23  C   UNL     1       7.303  -4.749  26.785  0.00  0.00    +0.233 C 
ATOM     24  N   UNL     1       6.720  -5.916  26.340  0.00  0.00    -0.310 N 
ATOM     25  H   UNL     1       7.003  -6.284  25.436  0.00  0.00    +0.149 HD
ATOM     26  O   UNL     1       6.756  -4.012  27.603  0.00  0.00    -0.274 OA
BRANCH  24  27
ATOM     27  C   UNL     1       5.453  -6.321  26.897  0.00  0.00    +0.142 C 
BRANCH  27  28
ATOM     28  C   UNL     1       4.316  -6.207  25.926  0.00  0.00    +0.005 A 
ATOM     29  C   UNL     1       4.125  -7.151  24.906  0.00  0.00    +0.008 A 
ATOM     30  C   UNL     1       3.007  -7.072  24.069  0.00  0.00    +0.000 A 
ATOM     31  C   UNL     1       2.074  -6.049  24.238  0.00  0.00    +0.003 A 
ATOM     32  C   UNL     1       2.257  -5.102  25.245  0.00  0.00    +0.038 A 
ATOM     33  C   UNL     1       3.371  -5.189  26.075  0.00  0.00    +0.128 A 
ATOM     34  F   UNL     1       3.514  -4.276  27.046  0.00  0.00    -0.205 F 
ENDBRANCH  27  28
ENDBRANCH  24  27
ENDBRANCH  22  23
ENDBRANCH   6  22
TORSDOF 7
ENDMDL
MODEL 7
REMARK VINA RESULT:      -7.3      3.113      4.309
REMARK  Name = 
REMARK  7 active torsions:
REMARK  status: ('A' for Active; 'I' for Inactive)
REMARK    1  A    between atoms: C_7  and  C_8
REMARK    2  A    between atoms: C_8  and  C_11
REMARK    3  A    between atoms: C_11  and  N_12
REMARK    4  A    between atoms: N_18  and  C_19
REMARK    5  A    between atoms: C_19  and  C_20
REMARK    6  A    between atoms: N_22  and  C_23
REMARK    7  A    between atoms: C_23  and  C_24
REMARK                            x       y       z     vdW  Elec       q    Type
REMARK                         _______ _______ _______ _____ _____    ______ ____
ROOT
ATOM      1  N   UNL     1       8.178  -3.274  26.772  0.00  0.00    -0.318 N 
ATOM      2  H   UNL     1       8.929  -2.590  26.676  0.00  0.00    +0.148 HD
ATOM      3  C   UNL     1       6.890  -2.767  26.765  0.00  0.00    +0.185 A 
ATOM      4  C   UNL     1       6.755  -1.227  26.701  0.00  0.00    +0.293 A 
ATOM      5  O   UNL     1       7.755  -0.570  26.441  0.00  0.00    -0.264 OA
ATOM      6  N   UNL     1       5.484  -0.725  26.931  0.00  0.00    -0.286 N 
ATOM      7  C   UNL     1       4.418  -1.605  26.982  0.00  0.00    +0.131 A 
ATOM      8 CL   UNL     1       2.824  -0.980  27.133  0.00  0.00    -0.062 Cl
ATOM      9  C   UNL     1       4.618  -2.926  26.884  0.00  0.00    +0.151 A 
ATOM     10  N   UNL     1       5.842  -3.541  26.819  0.00  0.00    -0.232 NA
ENDROOT
BRANCH   1  11
ATOM     11  C   UNL     1       8.499  -4.655  26.411  0.00  0.00    +0.190 C 
BRANCH  11  12
ATOM     12  C   UNL     1       9.254  -4.811  25.064  0.00  0.00    +0.347 C 
ATOM     13  F   UNL     1      10.588  -4.962  25.335  0.00  0.00    -0.192 F 
ATOM     14  F   UNL     1       8.903  -6.027  24.526  0.00  0.00    -0.192 F 
BRANCH  12  17
ATOM     15  O   UNL     1       6.970  -4.667  23.519  0.00  0.00    -0.619 OA
ATOM     16  N   UNL     1       7.809  -3.727  23.382  0.00  0.00    -0.169 N 
ATOM     17  C   UNL     1       9.009  -3.713  24.069  0.00  0.00    +0.266 A 
ATOM     18  C   UNL     1       9.926  -2.664  23.862  0.00  0.00    +0.081 A 
ATOM     19  C   UNL     1       9.635  -1.638  22.967  0.00  0.00    +0.012 A 
ATOM     20  C   UNL     1       8.432  -1.647  22.280  0.00  0.00    +0.071 A 
ATOM     21  C   UNL     1       7.533  -2.691  22.498  0.00  0.00    +0.322 A 
ENDBRANCH  12  17
ENDBRANCH  11  12
ENDBRANCH   1  11
BRANCH   6  22
ATOM     22  C   UNL     1       5.329   0.720  27.085  0.00  0.00    +0.222 C 
BRANCH  22  23
ATOM     23  C   UNL     1       5.480   1.534  25.803  0.00  0.00    +0.233 C 
ATOM     24  N   UNL     1       6.608   2.321  25.706  0.00  0.00    -0.310 N 
ATOM     25  H   UNL     1       7.109   2.554  26.559  0.00  0.00    +0.149 HD
ATOM     26  O   UNL     1       4.591   1.553  24.953  0.00  0.00    -0.274 OA
BRANCH  24  27
ATOM     27  C   UNL     1       6.784   3.149  24.539  0.00  0.00    +0.142 C 
BRANCH  27  28
ATOM     28  C   UNL     1       7.961   2.748  23.702  0.00  0.00    +0.005 A 
ATOM     29  C   UNL     1       9.263   2.731  24.226  0.00  0.00    +0.008 A 
ATOM     30  C   UNL     1      10.332   2.270  23.451  0.00  0.00    +0.000 A 
ATOM     31  C   UNL     1      10.115   1.825  22.147  0.00  0.00    +0.003 A 
ATOM     32  C   UNL     1       8.826   1.842  21.614  0.00  0.00    +0.038 A 
ATOM     33  C   UNL     1       7.767   2.302  22.393  0.00  0.00    +0.128 A 
ATOM     34  F   UNL     1       6.536   2.292  21.862  0.00  0.00    -0.205 F 
ENDBRANCH  27  28
ENDBRANCH  24  27
ENDBRANCH  22  23
ENDBRANCH   6  22
TORSDOF 7
ENDMDL
MODEL 8
REMARK VINA RESULT:      -7.3      3.186      8.553
REMARK  Name = 
REMARK  7 active torsions:
REMARK  status: ('A' for Active; 'I' for Inactive)
REMARK    1  A    between atoms: C_7  and  C_8
REMARK    2  A    between atoms: C_8  and  C_11
REMARK    3  A    between atoms: C_11  and  N_12
REMARK    4  A    between atoms: N_18  and  C_19
REMARK    5  A    between atoms: C_19  and  C_20
REMARK    6  A    between atoms: N_22  and  C_23
REMARK    7  A    between atoms: C_23  and  C_24
REMARK                            x       y       z     vdW  Elec       q    Type
REMARK                         _______ _______ _______ _____ _____    ______ ____
ROOT
ATOM      1  N   UNL     1       9.707  -1.498  22.116  0.00  0.00    -0.318 N 
ATOM      2  H   UNL     1      10.606  -1.646  22.575  0.00  0.00    +0.148 HD
ATOM      3  C   UNL     1       8.650  -2.254  22.592  0.00  0.00    +0.185 A 
ATOM      4  C   UNL     1       8.981  -3.285  23.697  0.00  0.00    +0.293 A 
ATOM      5  O   UNL     1      10.081  -3.223  24.233  0.00  0.00    -0.264 OA
ATOM      6  N   UNL     1       7.976  -4.190  23.996  0.00  0.00    -0.286 N 
ATOM      7  C   UNL     1       6.714  -3.984  23.467  0.00  0.00    +0.131 A 
ATOM      8 CL   UNL     1       5.429  -5.024  23.938  0.00  0.00    -0.062 Cl
ATOM      9  C   UNL     1       6.486  -2.970  22.622  0.00  0.00    +0.151 A 
ATOM     10  N   UNL     1       7.438  -2.116  22.131  0.00  0.00    -0.232 NA
ENDROOT
BRANCH   1  11
ATOM     11  C   UNL     1       9.533  -0.229  21.409  0.00  0.00    +0.190 C 
BRANCH  11  12
ATOM     12  C   UNL     1       9.662   1.031  22.306  0.00  0.00    +0.347 C 
ATOM     13  F   UNL     1      10.436   0.710  23.389  0.00  0.00    -0.192 F 
ATOM     14  F   UNL     1      10.431   1.949  21.630  0.00  0.00    -0.192 F 
BRANCH  12  17
ATOM     15  O   UNL     1       8.268   0.245  24.557  0.00  0.00    -0.619 OA
ATOM     16  N   UNL     1       7.774   1.200  23.887  0.00  0.00    -0.169 N 
ATOM     17  C   UNL     1       8.358   1.652  22.718  0.00  0.00    +0.266 A 
ATOM     18  C   UNL     1       7.755   2.696  21.988  0.00  0.00    +0.081 A 
ATOM     19  C   UNL     1       6.572   3.278  22.435  0.00  0.00    +0.012 A 
ATOM     20  C   UNL     1       5.986   2.830  23.608  0.00  0.00    +0.071 A 
ATOM     21  C   UNL     1       6.596   1.797  24.320  0.00  0.00    +0.322 A 
ENDBRANCH  12  17
ENDBRANCH  11  12
ENDBRANCH   1  11
BRANCH   6  22
ATOM     22  C   UNL     1       8.293  -5.310  24.880  0.00  0.00    +0.222 C 
BRANCH  22  23
ATOM     23  C   UNL     1       7.895  -5.122  26.341  0.00  0.00    +0.233 C 
ATOM     24  N   UNL     1       6.929  -5.976  26.828  0.00  0.00    -0.310 N 
ATOM     25  H   UNL     1       6.335  -6.463  26.162  0.00  0.00    +0.149 HD
ATOM     26  O   UNL     1       8.348  -4.194  27.009  0.00  0.00    -0.274 OA
BRANCH  24  27
ATOM     27  C   UNL     1       6.477  -5.817  28.187  0.00  0.00    +0.142 C 
BRANCH  27  28
ATOM     28  C   UNL     1       4.983  -5.817  28.317  0.00  0.00    +0.005 A 
ATOM     29  C   UNL     1       4.303  -6.857  28.970  0.00  0.00    +0.008 A 
ATOM     30  C   UNL     1       2.918  -6.790  29.155  0.00  0.00    +0.000 A 
ATOM     31  C   UNL     1       2.199  -5.689  28.689  0.00  0.00    +0.003 A 
ATOM     32  C   UNL     1       2.864  -4.652  28.035  0.00  0.00    +0.038 A 
ATOM     33  C   UNL     1       4.242  -4.726  27.856  0.00  0.00    +0.128 A 
ATOM     34  F   UNL     1       4.859  -3.708  27.239  0.00  0.00    -0.205 F 
ENDBRANCH  27  28
ENDBRANCH  24  27
ENDBRANCH  22  23
ENDBRANCH   6  22
TORSDOF 7
ENDMDL
MODEL 9
REMARK VINA RESULT:      -7.3      2.749      7.901
REMARK  Name = 
REMARK  7 active torsions:
REMARK  status: ('A' for Active; 'I' for Inactive)
REMARK    1  A    between atoms: C_7  and  C_8
REMARK    2  A    between atoms: C_8  and  C_11
REMARK    3  A    between atoms: C_11  and  N_12
REMARK    4  A    between atoms: N_18  and  C_19
REMARK    5  A    between atoms: C_19  and  C_20
REMARK    6  A    between atoms: N_22  and  C_23
REMARK    7  A    between atoms: C_23  and  C_24
REMARK                            x       y       z     vdW  Elec       q    Type
REMARK                         _______ _______ _______ _____ _____    ______ ____
ROOT
ATOM      1  N   UNL     1       7.741   2.058  23.636  0.00  0.00    -0.318 N 
ATOM      2  H   UNL     1       7.450   1.425  22.891  0.00  0.00    +0.148 HD
ATOM      3  C   UNL     1       7.288   1.750  24.907  0.00  0.00    +0.185 A 
ATOM      4  C   UNL     1       6.332   0.538  25.024  0.00  0.00    +0.293 A 
ATOM      5  O   UNL     1       6.210  -0.196  24.052  0.00  0.00    -0.264 OA
ATOM      6  N   UNL     1       5.705   0.384  26.250  0.00  0.00    -0.286 N 
ATOM      7  C   UNL     1       6.123   1.159  27.316  0.00  0.00    +0.131 A 
ATOM      8 CL   UNL     1       5.444   0.882  28.870  0.00  0.00    -0.062 Cl
ATOM      9  C   UNL     1       7.068   2.095  27.150  0.00  0.00    +0.151 A 
ATOM     10  N   UNL     1       7.637   2.445  25.953  0.00  0.00    -0.232 NA
ENDROOT
BRANCH   1  11
ATOM     11  C   UNL     1       8.936   2.864  23.383  0.00  0.00    +0.190 C 
BRANCH  11  12
ATOM     12  C   UNL     1      10.189   2.047  22.971  0.00  0.00    +0.347 C 
ATOM     13  F   UNL     1      10.660   2.549  21.788  0.00  0.00    -0.192 F 
ATOM     14  F   UNL     1      11.194   2.346  23.862  0.00  0.00    -0.192 F 
BRANCH  12  17
ATOM     15  O   UNL     1      10.512   0.383  25.152  0.00  0.00    -0.619 OA
ATOM     16  N   UNL     1      10.136  -0.162  24.072  0.00  0.00    -0.169 N 
ATOM     17  C   UNL     1       9.982   0.561  22.903  0.00  0.00    +0.266 A 
ATOM     18  C   UNL     1       9.593  -0.093  21.717  0.00  0.00    +0.081 A 
ATOM     19  C   UNL     1       9.362  -1.466  21.712  0.00  0.00    +0.012 A 
ATOM     20  C   UNL     1       9.511  -2.193  22.882  0.00  0.00    +0.071 A 
ATOM     21  C   UNL     1       9.894  -1.530  24.048  0.00  0.00    +0.322 A 
ENDBRANCH  12  17
ENDBRANCH  11  12
ENDBRANCH   1  11
BRANCH   6  22
ATOM     22  C   UNL     1       4.643  -0.613  26.362  0.00  0.00    +0.222 C 
BRANCH  22  23
ATOM     23  C   UNL     1       5.114  -2.045  26.607  0.00  0.00    +0.233 C 
ATOM     24  N   UNL     1       5.560  -2.740  25.503  0.00  0.00    -0.310 N 
ATOM     25  H   UNL     1       5.290  -2.408  24.582  0.00  0.00    +0.149 HD
ATOM     26  O   UNL     1       5.007  -2.569  27.714  0.00  0.00    -0.274 OA
BRANCH  24  27
ATOM     27  C   UNL     1       5.973  -4.112  25.662  0.00  0.00    +0.142 C 
BRANCH  27  28
ATOM     28  C   UNL     1       6.116  -4.841  24.360  0.00  0.00    +0.005 A 
ATOM     29  C   UNL     1       4.998  -5.177  23.580  0.00  0.00    +0.008 A 
ATOM     30  C   UNL     1       5.163  -5.778  22.328  0.00  0.00    +0.000 A 
ATOM     31  C   UNL     1       6.441  -6.053  21.844  0.00  0.00    +0.003 A 
ATOM     32  C   UNL     1       7.559  -5.728  22.612  0.00  0.00    +0.038 A 
ATOM     33  C   UNL     1       7.386  -5.129  23.856  0.00  0.00    +0.128 A 
ATOM     34  F   UNL     1       8.478  -4.811  24.567  0.00  0.00    -0.205 F 
ENDBRANCH  27  28
ENDBRANCH  24  27
ENDBRANCH  22  23
ENDBRANCH   6  22
TORSDOF 7
ENDMDL
