MODEL 1
REMARK VINA RESULT:      -8.0      0.000      0.000
REMARK  Name = 
REMARK  7 active torsions:
REMARK  status: ('A' for Active; 'I' for Inactive)
REMARK    1  A    between atoms: C_1  and  C_2
REMARK    2  A    between atoms: C_7  and  C_8
REMARK    3  A    between atoms: C_8  and  N_9
REMARK    4  A    between atoms: N_9  and  S_10
REMARK    5  A    between atoms: S_10  and  C_13
REMARK    6  A    between atoms: C_15  and  N_16
REMARK    7  A    between atoms: N_16  and  C_17
REMARK                            x       y       z     vdW  Elec       q    Type
REMARK                         _______ _______ _______ _____ _____    ______ ____
ROOT
ATOM      1  S   UNL     1       8.722  -3.338  23.902  0.00  0.00    +0.059 S 
ATOM      2  O   UNL     1       7.923  -3.990  22.892  0.00  0.00    -0.153 OA
ATOM      3  O   UNL     1       9.917  -3.960  24.441  0.00  0.00    -0.153 OA
ENDROOT
BRANCH   1   4
ATOM      4  C   UNL     1       9.167  -1.731  23.304  0.00  0.00    +0.107 A 
ATOM      5  C   UNL     1       9.294  -1.511  21.931  0.00  0.00    +0.028 A 
ATOM      6  C   UNL     1       9.526  -0.217  21.466  0.00  0.00    +0.004 A 
ATOM      7  C   UNL     1       9.623   0.845  22.370  0.00  0.00    +0.023 A 
ATOM      8  C   UNL     1       9.492   0.636  23.749  0.00  0.00    +0.033 A 
ATOM      9  C   UNL     1       9.276  -0.665  24.203  0.00  0.00    +0.051 A 
BRANCH   8  10
ATOM     10  N   UNL     1       9.643   1.723  24.623  0.00  0.00    -0.320 N 
ATOM     11  H   UNL     1      10.088   1.500  25.506  0.00  0.00    +0.152 HD
BRANCH  10  12
ATOM     12  C   UNL     1       9.251   3.024  24.433  0.00  0.00    +0.082 C 
ATOM     13  C   UNL     1       9.982   3.993  23.869  0.00  0.00    +0.053 C 
ATOM     14  C   UNL     1       9.552   5.408  23.822  0.00  0.00    +0.336 C 
ATOM     15  O   UNL     1       8.432   5.840  24.008  0.00  0.00    -0.245 OA
ATOM     16  O   UNL     1      10.662   6.152  23.538  0.00  0.00    -0.461 OA
ATOM     17  C   UNL     1      11.821   5.317  23.605  0.00  0.00    +0.237 C 
ATOM     18  C   UNL     1      11.343   3.922  23.295  0.00  0.00    +0.084 C 
ENDBRANCH  10  12
ENDBRANCH   8  10
ENDBRANCH   1   4
BRANCH   1  19
ATOM     19  N   UNL     1       7.752  -3.043  25.247  0.00  0.00    -0.184 NA
ATOM     20  H   UNL     1       7.609  -2.041  25.365  0.00  0.00    +0.148 HD
BRANCH  19  21
ATOM     21  C   UNL     1       8.053  -3.820  26.464  0.00  0.00    +0.161 C 
BRANCH  21  25
ATOM     22  C   UNL     1       4.232  -6.755  25.140  0.00  0.00    +0.066 C 
ATOM     23  C   UNL     1       5.312  -6.345  26.090  0.00  0.00    +0.044 A 
ATOM     24  C   UNL     1       6.186  -5.335  25.747  0.00  0.00    +0.048 A 
ATOM     25  C   UNL     1       7.118  -4.982  26.703  0.00  0.00    +0.062 A 
ATOM     26  N   UNL     1       7.183  -5.593  27.907  0.00  0.00    -0.218 NA
ATOM     27  C   UNL     1       6.282  -6.546  28.158  0.00  0.00    +0.213 A 
ATOM     28  N   UNL     1       6.304  -7.136  29.399  0.00  0.00    -0.327 N 
ATOM     29  H   UNL     1       7.200  -7.013  29.853  0.00  0.00    +0.145 HD
ATOM     30  H   UNL     1       5.897  -8.058  29.376  0.00  0.00    +0.145 HD
ATOM     31  N   UNL     1       5.358  -6.962  27.288  0.00  0.00    -0.220 NA
ENDBRANCH  21  25
ENDBRANCH  19  21
ENDBRANCH   1  19
TORSDOF 6
ENDMDL
MODEL 2
REMARK VINA RESULT:      -7.9      2.996      4.901
REMARK  Name = 
REMARK  7 active torsions:
REMARK  status: ('A' for Active; 'I' for Inactive)
REMARK    1  A    between atoms: C_1  and  C_2
REMARK    2  A    between atoms: C_7  and  C_8
REMARK    3  A    between atoms: C_8  and  N_9
REMARK    4  A    between atoms: N_9  and  S_10
REMARK    5  A    between atoms: S_10  and  C_13
REMARK    6  A    between atoms: C_15  and  N_16
REMARK    7  A    between atoms: N_16  and  C_17
REMARK                            x       y       z     vdW  Elec       q    Type
REMARK                         _______ _______ _______ _____ _____    ______ ____
ROOT
ATOM      1  S   UNL     1       5.956  -4.543  27.618  0.00  0.00    +0.059 S 
ATOM      2  O   UNL     1       6.337  -5.292  28.792  0.00  0.00    -0.153 OA
ATOM      3  O   UNL     1       5.273  -3.267  27.721  0.00  0.00    -0.153 OA
ENDROOT
BRANCH   1   4
ATOM      4  C   UNL     1       7.399  -4.309  26.618  0.00  0.00    +0.107 A 
ATOM      5  C   UNL     1       8.072  -5.417  26.099  0.00  0.00    +0.028 A 
ATOM      6  C   UNL     1       9.133  -5.219  25.217  0.00  0.00    +0.004 A 
ATOM      7  C   UNL     1       9.510  -3.922  24.855  0.00  0.00    +0.023 A 
ATOM      8  C   UNL     1       8.839  -2.804  25.366  0.00  0.00    +0.033 A 
ATOM      9  C   UNL     1       7.789  -3.014  26.260  0.00  0.00    +0.051 A 
BRANCH   8  10
ATOM     10  N   UNL     1       9.280  -1.520  25.012  0.00  0.00    -0.320 N 
ATOM     11  H   UNL     1       9.610  -0.956  25.787  0.00  0.00    +0.152 HD
BRANCH  10  12
ATOM     12  C   UNL     1       9.303  -0.944  23.767  0.00  0.00    +0.082 C 
ATOM     13  C   UNL     1       9.955   0.174  23.428  0.00  0.00    +0.053 C 
ATOM     14  C   UNL     1       9.824   0.818  22.103  0.00  0.00    +0.336 C 
ATOM     15  O   UNL     1       9.373   0.322  21.089  0.00  0.00    -0.245 OA
ATOM     16  O   UNL     1      10.300   2.092  22.229  0.00  0.00    -0.461 OA
ATOM     17  C   UNL     1      10.536   2.373  23.611  0.00  0.00    +0.237 C 
ATOM     18  C   UNL     1      10.816   1.043  24.261  0.00  0.00    +0.084 C 
ENDBRANCH  10  12
ENDBRANCH   8  10
ENDBRANCH   1   4
BRANCH   1  19
ATOM     19  N   UNL     1       4.933  -5.498  26.680  0.00  0.00    -0.184 NA
ATOM     20  H   UNL     1       5.416  -6.345  26.384  0.00  0.00    +0.148 HD
BRANCH  19  21
ATOM     21  C   UNL     1       4.124  -4.801  25.663  0.00  0.00    +0.161 C 
BRANCH  21  25
ATOM     22  C   UNL     1       6.906  -6.003  21.690  0.00  0.00    +0.066 C 
ATOM     23  C   UNL     1       6.206  -5.004  22.556  0.00  0.00    +0.044 A 
ATOM     24  C   UNL     1       5.450  -5.430  23.628  0.00  0.00    +0.048 A 
ATOM     25  C   UNL     1       4.884  -4.441  24.408  0.00  0.00    +0.062 A 
ATOM     26  N   UNL     1       5.047  -3.127  24.137  0.00  0.00    -0.218 NA
ATOM     27  C   UNL     1       5.812  -2.810  23.090  0.00  0.00    +0.213 A 
ATOM     28  N   UNL     1       6.029  -1.476  22.837  0.00  0.00    -0.327 N 
ATOM     29  H   UNL     1       5.323  -0.896  23.270  0.00  0.00    +0.145 HD
ATOM     30  H   UNL     1       6.257  -1.317  21.868  0.00  0.00    +0.145 HD
ATOM     31  N   UNL     1       6.384  -3.699  22.273  0.00  0.00    -0.220 NA
ENDBRANCH  21  25
ENDBRANCH  19  21
ENDBRANCH   1  19
TORSDOF 6
ENDMDL
MODEL 3
REMARK VINA RESULT:      -7.9      3.409      5.276
REMARK  Name = 
REMARK  7 active torsions:
REMARK  status: ('A' for Active; 'I' for Inactive)
REMARK    1  A    between atoms: C_1  and  C_2
REMARK    2  A    between atoms: C_7  and  C_8
REMARK    3  A    between atoms: C_8  and  N_9
REMARK    4  A    between atoms: N_9  and  S_10
REMARK    5  A    between atoms: S_10  and  C_13
REMARK    6  A    between atoms: C_15  and  N_16
REMARK    7  A    between atoms: N_16  and  C_17
REMARK                            x       y       z     vdW  Elec       q    Type
REMARK                         _______ _______ _______ _____ _____    ______ ____
ROOT
ATOM      1  S   UNL     1       4.096  -6.351  24.859  0.00  0.00    +0.059 S 
ATOM      2  O   UNL     1       3.235  -5.336  25.416  0.00  0.00    -0.153 OA
ATOM      3  O   UNL     1       3.556  -7.523  24.196  0.00  0.00    -0.153 OA
ENDROOT
BRANCH   1   4
ATOM      4  C   UNL     1       5.227  -5.566  23.743  0.00  0.00    +0.107 A 
ATOM      5  C   UNL     1       6.055  -6.344  22.932  0.00  0.00    +0.028 A 
ATOM      6  C   UNL     1       6.853  -5.719  21.975  0.00  0.00    +0.004 A 
ATOM      7  C   UNL     1       6.815  -4.329  21.830  0.00  0.00    +0.023 A 
ATOM      8  C   UNL     1       5.984  -3.540  22.635  0.00  0.00    +0.033 A 
ATOM      9  C   UNL     1       5.202  -4.175  23.600  0.00  0.00    +0.051 A 
BRANCH   8  10
ATOM     10  N   UNL     1       6.012  -2.146  22.487  0.00  0.00    -0.320 N 
ATOM     11  H   UNL     1       5.361  -1.778  21.802  0.00  0.00    +0.152 HD
BRANCH  10  12
ATOM     12  C   UNL     1       6.813  -1.239  23.135  0.00  0.00    +0.082 C 
ATOM     13  C   UNL     1       8.095  -0.980  22.855  0.00  0.00    +0.053 C 
ATOM     14  C   UNL     1       8.942  -0.092  23.683  0.00  0.00    +0.336 C 
ATOM     15  O   UNL     1       8.567   0.711  24.514  0.00  0.00    -0.245 OA
ATOM     16  O   UNL     1      10.240  -0.350  23.346  0.00  0.00    -0.461 OA
ATOM     17  C   UNL     1      10.288  -1.502  22.499  0.00  0.00    +0.237 C 
ATOM     18  C   UNL     1       8.956  -1.553  21.797  0.00  0.00    +0.084 C 
ENDBRANCH  10  12
ENDBRANCH   8  10
ENDBRANCH   1   4
BRANCH   1  19
ATOM     19  N   UNL     1       5.067  -6.968  26.090  0.00  0.00    -0.184 NA
ATOM     20  H   UNL     1       4.767  -7.911  26.335  0.00  0.00    +0.148 HD
BRANCH  19  21
ATOM     21  C   UNL     1       5.378  -6.057  27.207  0.00  0.00    +0.161 C 
BRANCH  21  25
ATOM     22  C   UNL     1       7.441  -1.534  26.704  0.00  0.00    +0.066 C 
ATOM     23  C   UNL     1       7.521  -3.028  26.700  0.00  0.00    +0.044 A 
ATOM     24  C   UNL     1       6.416  -3.779  27.039  0.00  0.00    +0.048 A 
ATOM     25  C   UNL     1       6.559  -5.150  26.955  0.00  0.00    +0.062 A 
ATOM     26  N   UNL     1       7.718  -5.732  26.574  0.00  0.00    -0.218 NA
ATOM     27  C   UNL     1       8.728  -4.923  26.244  0.00  0.00    +0.213 A 
ATOM     28  N   UNL     1       9.894  -5.502  25.802  0.00  0.00    -0.327 N 
ATOM     29  H   UNL     1       9.960  -6.469  26.090  0.00  0.00    +0.145 HD
ATOM     30  H   UNL     1      10.686  -4.898  25.953  0.00  0.00    +0.145 HD
ATOM     31  N   UNL     1       8.683  -3.590  26.311  0.00  0.00    -0.220 NA
ENDBRANCH  21  25
ENDBRANCH  19  21
ENDBRANCH   1  19
TORSDOF 6
ENDMDL
MODEL 4
REMARK VINA RESULT:      -7.7      1.307      1.955
REMARK  Name = 
REMARK  7 active torsions:
REMARK  status: ('A' for Active; 'I' for Inactive)
REMARK    1  A    between atoms: C_1  and  C_2
REMARK    2  A    between atoms: C_7  and  C_8
REMARK    3  A    between atoms: C_8  and  N_9
REMARK    4  A    between atoms: N_9  and  S_10
REMARK    5  A    between atoms: S_10  and  C_13
REMARK    6  A    between atoms: C_15  and  N_16
REMARK    7  A    between atoms: N_16  and  C_17
REMARK                            x       y       z     vdW  Elec       q    Type
REMARK                         _______ _______ _______ _____ _____    ______ ____
ROOT
ATOM      1  S   UNL     1       8.976  -2.517  24.500  0.00  0.00    +0.059 S 
ATOM      2  O   UNL     1       9.875  -3.612  24.226  0.00  0.00    -0.153 OA
ATOM      3  O   UNL     1       8.787  -2.009  25.846  0.00  0.00    -0.153 OA
ENDROOT
BRANCH   1   4
ATOM      4  C   UNL     1       9.430  -1.155  23.463  0.00  0.00    +0.107 A 
ATOM      5  C   UNL     1       9.126  -1.187  22.101  0.00  0.00    +0.028 A 
ATOM      6  C   UNL     1       9.380  -0.061  21.318  0.00  0.00    +0.004 A 
ATOM      7  C   UNL     1       9.929   1.086  21.899  0.00  0.00    +0.023 A 
ATOM      8  C   UNL     1      10.233   1.130  23.266  0.00  0.00    +0.033 A 
ATOM      9  C   UNL     1       9.989  -0.007  24.034  0.00  0.00    +0.051 A 
BRANCH   8  10
ATOM     10  N   UNL     1      10.825   2.286  23.797  0.00  0.00    -0.320 N 
ATOM     11  H   UNL     1      11.619   2.115  24.405  0.00  0.00    +0.152 HD
BRANCH  10  12
ATOM     12  C   UNL     1      10.454   3.593  23.608  0.00  0.00    +0.082 C 
ATOM     13  C   UNL     1       9.369   4.185  24.119  0.00  0.00    +0.053 C 
ATOM     14  C   UNL     1       8.952   5.560  23.762  0.00  0.00    +0.336 C 
ATOM     15  O   UNL     1       9.627   6.412  23.220  0.00  0.00    -0.245 OA
ATOM     16  O   UNL     1       7.649   5.695  24.149  0.00  0.00    -0.461 OA
ATOM     17  C   UNL     1       7.139   4.419  24.545  0.00  0.00    +0.237 C 
ATOM     18  C   UNL     1       8.331   3.625  25.012  0.00  0.00    +0.084 C 
ENDBRANCH  10  12
ENDBRANCH   8  10
ENDBRANCH   1   4
BRANCH   1  19
ATOM     19  N   UNL     1       7.430  -2.950  23.988  0.00  0.00    -0.184 NA
ATOM     20  H   UNL     1       6.730  -2.578  24.629  0.00  0.00    +0.148 HD
BRANCH  19  21
ATOM     21  C   UNL     1       7.247  -4.342  23.537  0.00  0.00    +0.161 C 
BRANCH  21  25
ATOM     22  C   UNL     1       3.502  -7.308  24.998  0.00  0.00    +0.066 C 
ATOM     23  C   UNL     1       4.804  -6.612  25.239  0.00  0.00    +0.044 A 
ATOM     24  C   UNL     1       5.401  -5.894  24.225  0.00  0.00    +0.048 A 
ATOM     25  C   UNL     1       6.572  -5.237  24.548  0.00  0.00    +0.062 A 
ATOM     26  N   UNL     1       7.116  -5.299  25.783  0.00  0.00    -0.218 NA
ATOM     27  C   UNL     1       6.456  -6.002  26.707  0.00  0.00    +0.213 A 
ATOM     28  N   UNL     1       6.971  -6.026  27.981  0.00  0.00    -0.327 N 
ATOM     29  H   UNL     1       7.953  -5.785  27.990  0.00  0.00    +0.145 HD
ATOM     30  H   UNL     1       6.671  -6.847  28.485  0.00  0.00    +0.145 HD
ATOM     31  N   UNL     1       5.328  -6.680  26.479  0.00  0.00    -0.220 NA
ENDBRANCH  21  25
ENDBRANCH  19  21
ENDBRANCH   1  19
TORSDOF 6
ENDMDL
MODEL 5
REMARK VINA RESULT:      -7.6      2.449      3.461
REMARK  Name = 
REMARK  7 active torsions:
REMARK  status: ('A' for Active; 'I' for Inactive)
REMARK    1  A    between atoms: C_1  and  C_2
REMARK    2  A    between atoms: C_7  and  C_8
REMARK    3  A    between atoms: C_8  and  N_9
REMARK    4  A    between atoms: N_9  and  S_10
REMARK    5  A    between atoms: S_10  and  C_13
REMARK    6  A    between atoms: C_15  and  N_16
REMARK    7  A    between atoms: N_16  and  C_17
REMARK                            x       y       z     vdW  Elec       q    Type
REMARK                         _______ _______ _______ _____ _____    ______ ____
ROOT
ATOM      1  S   UNL     1       9.031  -4.444  25.512  0.00  0.00    +0.059 S 
ATOM      2  O   UNL     1      10.279  -4.902  24.948  0.00  0.00    -0.153 OA
ATOM      3  O   UNL     1       8.995  -3.442  26.561  0.00  0.00    -0.153 OA
ENDROOT
BRANCH   1   4
ATOM      4  C   UNL     1       7.997  -3.884  24.187  0.00  0.00    +0.107 A 
ATOM      5  C   UNL     1       7.416  -4.810  23.319  0.00  0.00    +0.028 A 
ATOM      6  C   UNL     1       6.511  -4.367  22.356  0.00  0.00    +0.004 A 
ATOM      7  C   UNL     1       6.188  -3.010  22.270  0.00  0.00    +0.023 A 
ATOM      8  C   UNL     1       6.761  -2.073  23.139  0.00  0.00    +0.033 A 
ATOM      9  C   UNL     1       7.677  -2.525  24.088  0.00  0.00    +0.051 A 
BRANCH   8  10
ATOM     10  N   UNL     1       6.443  -0.715  22.987  0.00  0.00    -0.320 N 
ATOM     11  H   UNL     1       5.677  -0.527  22.349  0.00  0.00    +0.152 HD
BRANCH  10  12
ATOM     12  C   UNL     1       7.046   0.369  23.574  0.00  0.00    +0.082 C 
ATOM     13  C   UNL     1       8.006   1.126  23.031  0.00  0.00    +0.053 C 
ATOM     14  C   UNL     1       8.711   2.194  23.774  0.00  0.00    +0.336 C 
ATOM     15  O   UNL     1       8.364   2.714  24.815  0.00  0.00    -0.245 OA
ATOM     16  O   UNL     1       9.845   2.488  23.070  0.00  0.00    -0.461 OA
ATOM     17  C   UNL     1      10.016   1.523  22.028  0.00  0.00    +0.237 C 
ATOM     18  C   UNL     1       8.634   1.025  21.696  0.00  0.00    +0.084 C 
ENDBRANCH  10  12
ENDBRANCH   8  10
ENDBRANCH   1   4
BRANCH   1  19
ATOM     19  N   UNL     1       8.217  -5.769  26.161  0.00  0.00    -0.184 NA
ATOM     20  H   UNL     1       8.013  -6.449  25.430  0.00  0.00    +0.148 HD
BRANCH  19  21
ATOM     21  C   UNL     1       7.137  -5.477  27.121  0.00  0.00    +0.161 C 
BRANCH  21  25
ATOM     22  C   UNL     1       2.957  -3.268  25.503  0.00  0.00    +0.066 C 
ATOM     23  C   UNL     1       3.783  -4.484  25.785  0.00  0.00    +0.044 A 
ATOM     24  C   UNL     1       5.078  -4.349  26.236  0.00  0.00    +0.048 A 
ATOM     25  C   UNL     1       5.750  -5.521  26.524  0.00  0.00    +0.062 A 
ATOM     26  N   UNL     1       5.182  -6.736  26.364  0.00  0.00    -0.218 NA
ATOM     27  C   UNL     1       3.915  -6.768  25.941  0.00  0.00    +0.213 A 
ATOM     28  N   UNL     1       3.309  -7.996  25.828  0.00  0.00    -0.327 N 
ATOM     29  H   UNL     1       3.989  -8.741  25.761  0.00  0.00    +0.145 HD
ATOM     30  H   UNL     1       2.551  -7.973  25.162  0.00  0.00    +0.145 HD
ATOM     31  N   UNL     1       3.196  -5.687  25.625  0.00  0.00    -0.220 NA
ENDBRANCH  21  25
ENDBRANCH  19  21
ENDBRANCH   1  19
TORSDOF 6
ENDMDL
MODEL 6
REMARK VINA RESULT:      -7.6      2.535      3.536
REMARK  Name = 
REMARK  7 active torsions:
REMARK  status: ('A' for Active; 'I' for Inactive)
REMARK    1  A    between atoms: C_1  and  C_2
REMARK    2  A    between atoms: C_7  and  C_8
REMARK    3  A    between atoms: C_8  and  N_9
REMARK    4  A    between atoms: N_9  and  S_10
REMARK    5  A    between atoms: S_10  and  C_13
REMARK    6  A    between atoms: C_15  and  N_16
REMARK    7  A    between atoms: N_16  and  C_17
REMARK                            x       y       z     vdW  Elec       q    Type
REMARK                         _______ _______ _______ _____ _____    ______ ____
ROOT
ATOM      1  S   UNL     1       6.050  -5.352  21.831  0.00  0.00    +0.059 S 
ATOM      2  O   UNL     1       5.825  -4.932  20.468  0.00  0.00    -0.153 OA
ATOM      3  O   UNL     1       6.784  -6.565  22.139  0.00  0.00    -0.153 OA
ENDROOT
BRANCH   1   4
ATOM      4  C   UNL     1       6.816  -4.015  22.704  0.00  0.00    +0.107 A 
ATOM      5  C   UNL     1       7.968  -4.246  23.457  0.00  0.00    +0.028 A 
ATOM      6  C   UNL     1       8.630  -3.167  24.041  0.00  0.00    +0.004 A 
ATOM      7  C   UNL     1       8.143  -1.869  23.865  0.00  0.00    +0.023 A 
ATOM      8  C   UNL     1       6.990  -1.625  23.107  0.00  0.00    +0.033 A 
ATOM      9  C   UNL     1       6.328  -2.714  22.541  0.00  0.00    +0.051 A 
BRANCH   8  10
ATOM     10  N   UNL     1       6.511  -0.311  22.995  0.00  0.00    -0.320 N 
ATOM     11  H   UNL     1       5.663  -0.213  22.448  0.00  0.00    +0.152 HD
BRANCH  10  12
ATOM     12  C   UNL     1       7.053   0.837  23.516  0.00  0.00    +0.082 C 
ATOM     13  C   UNL     1       8.055   1.546  22.984  0.00  0.00    +0.053 C 
ATOM     14  C   UNL     1       8.686   2.697  23.668  0.00  0.00    +0.336 C 
ATOM     15  O   UNL     1       8.242   3.319  24.613  0.00  0.00    -0.245 OA
ATOM     16  O   UNL     1       9.877   2.930  23.042  0.00  0.00    -0.461 OA
ATOM     17  C   UNL     1      10.147   1.863  22.128  0.00  0.00    +0.237 C 
ATOM     18  C   UNL     1       8.803   1.313  21.729  0.00  0.00    +0.084 C 
ENDBRANCH  10  12
ENDBRANCH   8  10
ENDBRANCH   1   4
BRANCH   1  19
ATOM     19  N   UNL     1       4.556  -5.556  22.584  0.00  0.00    -0.184 NA
ATOM     20  H   UNL     1       4.041  -4.677  22.587  0.00  0.00    +0.148 HD
BRANCH  19  21
ATOM     21  C   UNL     1       4.545  -6.340  23.833  0.00  0.00    +0.161 C 
BRANCH  21  25
ATOM     22  C   UNL     1       4.770  -2.279  26.736  0.00  0.00    +0.066 C 
ATOM     23  C   UNL     1       5.178  -3.676  26.388  0.00  0.00    +0.044 A 
ATOM     24  C   UNL     1       4.584  -4.324  25.326  0.00  0.00    +0.048 A 
ATOM     25  C   UNL     1       5.059  -5.588  25.039  0.00  0.00    +0.062 A 
ATOM     26  N   UNL     1       6.041  -6.171  25.761  0.00  0.00    -0.218 NA
ATOM     27  C   UNL     1       6.570  -5.459  26.759  0.00  0.00    +0.213 A 
ATOM     28  N   UNL     1       7.607  -6.020  27.465  0.00  0.00    -0.327 N 
ATOM     29  H   UNL     1       7.626  -7.026  27.361  0.00  0.00    +0.145 HD
ATOM     30  H   UNL     1       7.676  -5.630  28.392  0.00  0.00    +0.145 HD
ATOM     31  N   UNL     1       6.163  -4.238  27.116  0.00  0.00    -0.220 NA
ENDBRANCH  21  25
ENDBRANCH  19  21
ENDBRANCH   1  19
TORSDOF 6
ENDMDL
MODEL 7
REMARK VINA RESULT:      -7.6      2.463      3.775
REMARK  Name = 
REMARK  7 active torsions:
REMARK  status: ('A' for Active; 'I' for Inactive)
REMARK    1  A    between atoms: C_1  and  C_2
REMARK    2  A    between atoms: C_7  and  C_8
REMARK    3  A    between atoms: C_8  and  N_9
REMARK    4  A    between atoms: N_9  and  S_10
REMARK    5  A    between atoms: S_10  and  C_13
REMARK    6  A    between atoms: C_15  and  N_16
REMARK    7  A    between atoms: N_16  and  C_17
REMARK                            x       y       z     vdW  Elec       q    Type
REMARK                         _______ _______ _______ _____ _____    ______ ____
ROOT
ATOM      1  S   UNL     1       5.917  -5.102  22.214  0.00  0.00    +0.059 S 
ATOM      2  O   UNL     1       4.870  -4.109  22.178  0.00  0.00    -0.153 OA
ATOM      3  O   UNL     1       6.460  -5.675  20.997  0.00  0.00    -0.153 OA
ENDROOT
BRANCH   1   4
ATOM      4  C   UNL     1       7.267  -4.449  23.158  0.00  0.00    +0.107 A 
ATOM      5  C   UNL     1       7.779  -5.178  24.233  0.00  0.00    +0.028 A 
ATOM      6  C   UNL     1       8.916  -4.712  24.893  0.00  0.00    +0.004 A 
ATOM      7  C   UNL     1       9.534  -3.530  24.474  0.00  0.00    +0.023 A 
ATOM      8  C   UNL     1       9.031  -2.794  23.393  0.00  0.00    +0.033 A 
ATOM      9  C   UNL     1       7.885  -3.262  22.752  0.00  0.00    +0.051 A 
BRANCH   8  10
ATOM     10  N   UNL     1       9.656  -1.590  23.036  0.00  0.00    -0.320 N 
ATOM     11  H   UNL     1      10.652  -1.556  23.224  0.00  0.00    +0.152 HD
BRANCH  10  12
ATOM     12  C   UNL     1       9.086  -0.469  22.488  0.00  0.00    +0.082 C 
ATOM     13  C   UNL     1       9.284   0.792  22.890  0.00  0.00    +0.053 C 
ATOM     14  C   UNL     1       8.531   1.943  22.346  0.00  0.00    +0.336 C 
ATOM     15  O   UNL     1       7.875   1.972  21.324  0.00  0.00    -0.245 OA
ATOM     16  O   UNL     1       8.702   2.980  23.218  0.00  0.00    -0.461 OA
ATOM     17  C   UNL     1       9.350   2.501  24.400  0.00  0.00    +0.237 C 
ATOM     18  C   UNL     1      10.155   1.302  23.971  0.00  0.00    +0.084 C 
ENDBRANCH  10  12
ENDBRANCH   8  10
ENDBRANCH   1   4
BRANCH   1  19
ATOM     19  N   UNL     1       5.373  -6.426  23.102  0.00  0.00    -0.184 NA
ATOM     20  H   UNL     1       5.409  -7.270  22.533  0.00  0.00    +0.148 HD
BRANCH  19  21
ATOM     21  C   UNL     1       4.161  -6.223  23.918  0.00  0.00    +0.161 C 
BRANCH  21  25
ATOM     22  C   UNL     1       4.939  -2.856  27.526  0.00  0.00    +0.066 C 
ATOM     23  C   UNL     1       4.821  -4.267  27.042  0.00  0.00    +0.044 A 
ATOM     24  C   UNL     1       4.468  -4.520  25.734  0.00  0.00    +0.048 A 
ATOM     25  C   UNL     1       4.437  -5.847  25.354  0.00  0.00    +0.062 A 
ATOM     26  N   UNL     1       4.724  -6.850  26.214  0.00  0.00    -0.218 NA
ATOM     27  C   UNL     1       5.076  -6.508  27.455  0.00  0.00    +0.213 A 
ATOM     28  N   UNL     1       5.424  -7.516  28.323  0.00  0.00    -0.327 N 
ATOM     29  H   UNL     1       5.057  -8.409  28.020  0.00  0.00    +0.145 HD
ATOM     30  H   UNL     1       5.290  -7.239  29.283  0.00  0.00    +0.145 HD
ATOM     31  N   UNL     1       5.117  -5.253  27.912  0.00  0.00    -0.220 NA
ENDBRANCH  21  25
ENDBRANCH  19  21
ENDBRANCH   1  19
TORSDOF 6
ENDMDL
MODEL 8
REMARK VINA RESULT:      -7.5      1.558      2.255
REMARK  Name = 
REMARK  7 active torsions:
REMARK  status: ('A' for Active; 'I' for Inactive)
REMARK    1  A    between atoms: C_1  and  C_2
REMARK    2  A    between atoms: C_7  and  C_8
REMARK    3  A    between atoms: C_8  and  N_9
REMARK    4  A    between atoms: N_9  and  S_10
REMARK    5  A    between atoms: S_10  and  C_13
REMARK    6  A    between atoms: C_15  and  N_16
REMARK    7  A    between atoms: N_16  and  C_17
REMARK                            x       y       z     vdW  Elec       q    Type
REMARK                         _______ _______ _______ _____ _____    ______ ____
ROOT
ATOM      1  S   UNL     1       9.031  -2.907  24.253  0.00  0.00    +0.059 S 
ATOM      2  O   UNL     1      10.166  -3.798  24.214  0.00  0.00    -0.153 OA
ATOM      3  O   UNL     1       8.454  -2.469  25.511  0.00  0.00    -0.153 OA
ENDROOT
BRANCH   1   4
ATOM      4  C   UNL     1       9.425  -1.465  23.302  0.00  0.00    +0.107 A 
ATOM      5  C   UNL     1       9.179  -1.450  21.928  0.00  0.00    +0.028 A 
ATOM      6  C   UNL     1       9.380  -0.272  21.212  0.00  0.00    +0.004 A 
ATOM      7  C   UNL     1       9.819   0.881  21.870  0.00  0.00    +0.023 A 
ATOM      8  C   UNL     1      10.065   0.879  23.249  0.00  0.00    +0.033 A 
ATOM      9  C   UNL     1       9.874  -0.311  23.952  0.00  0.00    +0.051 A 
BRANCH   8  10
ATOM     10  N   UNL     1      10.548   2.045  23.860  0.00  0.00    -0.320 N 
ATOM     11  H   UNL     1      11.448   1.945  24.316  0.00  0.00    +0.152 HD
BRANCH  10  12
ATOM     12  C   UNL     1       9.950   3.279  23.926  0.00  0.00    +0.082 C 
ATOM     13  C   UNL     1      10.557   4.458  23.752  0.00  0.00    +0.053 C 
ATOM     14  C   UNL     1       9.883   5.756  23.975  0.00  0.00    +0.336 C 
ATOM     15  O   UNL     1       8.687   5.955  24.059  0.00  0.00    -0.245 OA
ATOM     16  O   UNL     1      10.862   6.702  24.080  0.00  0.00    -0.461 OA
ATOM     17  C   UNL     1      12.137   6.056  24.146  0.00  0.00    +0.237 C 
ATOM     18  C   UNL     1      11.972   4.743  23.427  0.00  0.00    +0.084 C 
ENDBRANCH  10  12
ENDBRANCH   8  10
ENDBRANCH   1   4
BRANCH   1  19
ATOM     19  N   UNL     1       7.752  -3.629  23.428  0.00  0.00    -0.184 NA
ATOM     20  H   UNL     1       6.893  -3.103  23.580  0.00  0.00    +0.148 HD
BRANCH  19  21
ATOM     21  C   UNL     1       7.656  -5.099  23.510  0.00  0.00    +0.161 C 
BRANCH  21  25
ATOM     22  C   UNL     1       5.330  -6.259  27.777  0.00  0.00    +0.066 C 
ATOM     23  C   UNL     1       5.377  -6.161  26.285  0.00  0.00    +0.044 A 
ATOM     24  C   UNL     1       6.472  -5.599  25.665  0.00  0.00    +0.048 A 
ATOM     25  C   UNL     1       6.459  -5.599  24.284  0.00  0.00    +0.062 A 
ATOM     26  N   UNL     1       5.429  -6.108  23.572  0.00  0.00    -0.218 NA
ATOM     27  C   UNL     1       4.421  -6.650  24.260  0.00  0.00    +0.213 A 
ATOM     28  N   UNL     1       3.394  -7.221  23.546  0.00  0.00    -0.327 N 
ATOM     29  H   UNL     1       3.363  -6.872  22.597  0.00  0.00    +0.145 HD
ATOM     30  H   UNL     1       2.539  -7.240  24.081  0.00  0.00    +0.145 HD
ATOM     31  N   UNL     1       4.343  -6.680  25.593  0.00  0.00    -0.220 NA
ENDBRANCH  21  25
ENDBRANCH  19  21
ENDBRANCH   1  19
TORSDOF 6
ENDMDL
MODEL 9
REMARK VINA RESULT:      -7.5      2.937      9.778
REMARK  Name = 
REMARK  7 active torsions:
REMARK  status: ('A' for Active; 'I' for Inactive)
REMARK    1  A    between atoms: C_1  and  C_2
REMARK    2  A    between atoms: C_7  and  C_8
REMARK    3  A    between atoms: C_8  and  N_9
REMARK    4  A    between atoms: N_9  and  S_10
REMARK    5  A    between atoms: S_10  and  C_13
REMARK    6  A    between atoms: C_15  and  N_16
REMARK    7  A    between atoms: N_16  and  C_17
REMARK                            x       y       z     vdW  Elec       q    Type
REMARK                         _______ _______ _______ _____ _____    ______ ____
ROOT
ATOM      1  S   UNL     1       9.540  -0.207  22.934  0.00  0.00    +0.059 S 
ATOM      2  O   UNL     1      10.564  -0.952  22.241  0.00  0.00    -0.153 OA
ATOM      3  O   UNL     1       8.317   0.199  22.267  0.00  0.00    -0.153 OA
ENDROOT
BRANCH   1   4
ATOM      4  C   UNL     1       9.092  -1.106  24.393  0.00  0.00    +0.107 A 
ATOM      5  C   UNL     1       9.173  -0.488  25.642  0.00  0.00    +0.028 A 
ATOM      6  C   UNL     1       8.706  -1.163  26.769  0.00  0.00    +0.004 A 
ATOM      7  C   UNL     1       8.159  -2.444  26.641  0.00  0.00    +0.023 A 
ATOM      8  C   UNL     1       8.069  -3.071  25.392  0.00  0.00    +0.033 A 
ATOM      9  C   UNL     1       8.554  -2.392  24.275  0.00  0.00    +0.051 A 
BRANCH   8  10
ATOM     10  N   UNL     1       7.555  -4.374  25.317  0.00  0.00    -0.320 N 
ATOM     11  H   UNL     1       8.136  -5.085  25.747  0.00  0.00    +0.152 HD
BRANCH  10  12
ATOM     12  C   UNL     1       6.390  -4.794  24.727  0.00  0.00    +0.082 C 
ATOM     13  C   UNL     1       6.279  -5.372  23.525  0.00  0.00    +0.053 C 
ATOM     14  C   UNL     1       4.978  -5.673  22.888  0.00  0.00    +0.336 C 
ATOM     15  O   UNL     1       3.891  -5.714  23.428  0.00  0.00    -0.245 OA
ATOM     16  O   UNL     1       5.223  -5.891  21.562  0.00  0.00    -0.461 OA
ATOM     17  C   UNL     1       6.579  -5.541  21.269  0.00  0.00    +0.237 C 
ATOM     18  C   UNL     1       7.340  -5.726  22.556  0.00  0.00    +0.084 C 
ENDBRANCH  10  12
ENDBRANCH   8  10
ENDBRANCH   1   4
BRANCH   1  19
ATOM     19  N   UNL     1      10.211   1.229  23.503  0.00  0.00    -0.184 NA
ATOM     20  H   UNL     1      10.339   1.182  24.513  0.00  0.00    +0.148 HD
BRANCH  19  21
ATOM     21  C   UNL     1       9.654   2.482  22.960  0.00  0.00    +0.161 C 
BRANCH  21  25
ATOM     22  C   UNL     1       9.681   7.069  24.943  0.00  0.00    +0.066 C 
ATOM     23  C   UNL     1      10.375   5.889  24.338  0.00  0.00    +0.044 A 
ATOM     24  C   UNL     1       9.661   4.750  24.033  0.00  0.00    +0.048 A 
ATOM     25  C   UNL     1      10.366   3.730  23.426  0.00  0.00    +0.062 A 
ATOM     26  N   UNL     1      11.686   3.828  23.154  0.00  0.00    -0.218 NA
ATOM     27  C   UNL     1      12.290   4.977  23.468  0.00  0.00    +0.213 A 
ATOM     28  N   UNL     1      13.620   5.110  23.145  0.00  0.00    -0.327 N 
ATOM     29  H   UNL     1      14.061   4.210  23.011  0.00  0.00    +0.145 HD
ATOM     30  H   UNL     1      14.076   5.788  23.735  0.00  0.00    +0.145 HD
ATOM     31  N   UNL     1      11.691   6.009  24.069  0.00  0.00    -0.220 NA
ENDBRANCH  21  25
ENDBRANCH  19  21
ENDBRANCH   1  19
TORSDOF 6
ENDMDL
