MODEL 1
REMARK VINA RESULT:      -7.0      0.000      0.000
REMARK  Name = 
REMARK  5 active torsions:
REMARK  status: ('A' for Active; 'I' for Inactive)
REMARK    1  A    between atoms: N_1  and  N_2
REMARK    2  A    between atoms: C_3  and  C_5
REMARK    3  A    between atoms: C_6  and  C_18
REMARK    4  A    between atoms: C_12  and  S_14
REMARK    5  A    between atoms: S_14  and  N_15
REMARK                            x       y       z     vdW  Elec       q    Type
REMARK                         _______ _______ _______ _____ _____    ______ ____
ROOT
ATOM      1  C   UNL     1       8.032  -3.606  25.703  0.00  0.00    +0.112 A 
ATOM      2  N   UNL     1       8.659  -2.496  26.227  0.00  0.00    -0.350 N 
ATOM      3  H   UNL     1       9.077  -2.464  27.147  0.00  0.00    +0.166 HD
ATOM      4  C   UNL     1       8.738  -1.480  25.317  0.00  0.00    +0.048 A 
ATOM      5  C   UNL     1       9.328  -0.216  25.446  0.00  0.00    +0.028 A 
ATOM      6  C   UNL     1       9.290   0.633  24.340  0.00  0.00    +0.030 A 
ATOM      7  C   UNL     1       8.650   0.230  23.170  0.00  0.00    +0.106 A 
ATOM      8  C   UNL     1       8.042  -1.032  23.065  0.00  0.00    +0.039 A 
ATOM      9  C   UNL     1       8.106  -1.927  24.158  0.00  0.00    +0.010 A 
ATOM     10  C   UNL     1       7.658  -3.284  24.395  0.00  0.00    +0.020 A 
ENDROOT
BRANCH  10  11
ATOM     11  C   UNL     1       6.969  -4.192  23.466  0.00  0.00    -0.015 A 
ATOM     12  C   UNL     1       7.688  -4.872  22.470  0.00  0.00    +0.008 A 
ATOM     13  C   UNL     1       7.051  -5.738  21.576  0.00  0.00    +0.001 A 
ATOM     14  C   UNL     1       5.684  -5.969  21.684  0.00  0.00    +0.000 A 
ATOM     15  C   UNL     1       4.952  -5.309  22.665  0.00  0.00    +0.001 A 
ATOM     16  C   UNL     1       5.585  -4.410  23.533  0.00  0.00    +0.008 A 
ENDBRANCH  10  11
BRANCH   1  19
ATOM     17  N   UNL     1       7.015  -4.762  27.518  0.00  0.00    -0.248 N 
ATOM     18  H   UNL     1       6.296  -4.043  27.466  0.00  0.00    +0.169 HD
ATOM     19  C   UNL     1       7.938  -4.835  26.468  0.00  0.00    +0.274 C 
ATOM     20  O   UNL     1       8.606  -5.844  26.258  0.00  0.00    -0.267 OA
BRANCH  17  21
ATOM     21  N   UNL     1       6.734  -5.917  28.285  0.00  0.00    -0.254 NA
ATOM     22  H   UNL     1       7.569  -6.520  28.239  0.00  0.00    +0.140 HD
ATOM     23  H   UNL     1       6.645  -5.653  29.269  0.00  0.00    +0.140 HD
ENDBRANCH  17  21
ENDBRANCH   1  19
BRANCH   7  24
ATOM     24  S   UNL     1       8.650   1.305  21.764  0.00  0.00    +0.056 S 
ATOM     25  O   UNL     1       7.625   2.309  21.929  0.00  0.00    -0.153 OA
ATOM     26  O   UNL     1       8.778   0.517  20.561  0.00  0.00    -0.153 OA
BRANCH  24  27
ATOM     27  N   UNL     1      10.114   2.101  21.955  0.00  0.00    -0.204 NA
ATOM     28  H   UNL     1      10.648   2.062  21.086  0.00  0.00    +0.144 HD
ATOM     29  H   UNL     1      10.609   1.727  22.765  0.00  0.00    +0.144 HD
ENDBRANCH  24  27
ENDBRANCH   7  24
TORSDOF 5
ENDMDL
MODEL 2
REMARK VINA RESULT:      -6.9      1.344      1.701
REMARK  Name = 
REMARK  5 active torsions:
REMARK  status: ('A' for Active; 'I' for Inactive)
REMARK    1  A    between atoms: N_1  and  N_2
REMARK    2  A    between atoms: C_3  and  C_5
REMARK    3  A    between atoms: C_6  and  C_18
REMARK    4  A    between atoms: C_12  and  S_14
REMARK    5  A    between atoms: S_14  and  N_15
REMARK                            x       y       z     vdW  Elec       q    Type
REMARK                         _______ _______ _______ _____ _____    ______ ____
ROOT
ATOM      1  C   UNL     1       6.883  -3.206  26.116  0.00  0.00    +0.112 A 
ATOM      2  N   UNL     1       7.341  -2.021  26.649  0.00  0.00    -0.350 N 
ATOM      3  H   UNL     1       7.412  -1.835  27.640  0.00  0.00    +0.166 HD
ATOM      4  C   UNL     1       7.784  -1.165  25.679  0.00  0.00    +0.048 A 
ATOM      5  C   UNL     1       8.354   0.107  25.810  0.00  0.00    +0.028 A 
ATOM      6  C   UNL     1       8.747   0.765  24.644  0.00  0.00    +0.030 A 
ATOM      7  C   UNL     1       8.539   0.171  23.402  0.00  0.00    +0.106 A 
ATOM      8  C   UNL     1       7.943  -1.097  23.286  0.00  0.00    +0.039 A 
ATOM      9  C   UNL     1       7.576  -1.801  24.456  0.00  0.00    +0.010 A 
ATOM     10  C   UNL     1       7.006  -3.105  24.728  0.00  0.00    +0.020 A 
ENDROOT
BRANCH  10  11
ATOM     11  C   UNL     1       6.641  -4.157  23.769  0.00  0.00    -0.015 A 
ATOM     12  C   UNL     1       5.291  -4.437  23.499  0.00  0.00    +0.008 A 
ATOM     13  C   UNL     1       4.923  -5.435  22.591  0.00  0.00    +0.001 A 
ATOM     14  C   UNL     1       5.899  -6.150  21.907  0.00  0.00    +0.000 A 
ATOM     15  C   UNL     1       7.242  -5.888  22.156  0.00  0.00    +0.001 A 
ATOM     16  C   UNL     1       7.610  -4.917  23.096  0.00  0.00    +0.008 A 
ENDBRANCH  10  11
BRANCH   1  19
ATOM     17  N   UNL     1       7.478  -5.231  27.216  0.00  0.00    -0.248 N 
ATOM     18  H   UNL     1       8.439  -4.935  27.064  0.00  0.00    +0.169 HD
ATOM     19  C   UNL     1       6.465  -4.294  26.980  0.00  0.00    +0.274 C 
ATOM     20  O   UNL     1       5.337  -4.424  27.449  0.00  0.00    -0.267 OA
BRANCH  17  21
ATOM     21  N   UNL     1       7.253  -6.291  28.126  0.00  0.00    -0.254 NA
ATOM     22  H   UNL     1       7.855  -7.074  27.834  0.00  0.00    +0.140 HD
ATOM     23  H   UNL     1       7.594  -6.018  29.050  0.00  0.00    +0.140 HD
ENDBRANCH  17  21
ENDBRANCH   1  19
BRANCH   7  24
ATOM     24  S   UNL     1       9.084   1.002  21.938  0.00  0.00    +0.056 S 
ATOM     25  O   UNL     1      10.328   1.684  22.209  0.00  0.00    -0.153 OA
ATOM     26  O   UNL     1       7.959   1.657  21.314  0.00  0.00    -0.153 OA
BRANCH  24  27
ATOM     27  N   UNL     1       9.473  -0.295  20.947  0.00  0.00    -0.204 NA
ATOM     28  H   UNL     1       9.500  -1.156  21.494  0.00  0.00    +0.144 HD
ATOM     29  H   UNL     1      10.335  -0.096  20.439  0.00  0.00    +0.144 HD
ENDBRANCH  24  27
ENDBRANCH   7  24
TORSDOF 5
ENDMDL
MODEL 3
REMARK VINA RESULT:      -6.4      3.129      6.948
REMARK  Name = 
REMARK  5 active torsions:
REMARK  status: ('A' for Active; 'I' for Inactive)
REMARK    1  A    between atoms: N_1  and  N_2
REMARK    2  A    between atoms: C_3  and  C_5
REMARK    3  A    between atoms: C_6  and  C_18
REMARK    4  A    between atoms: C_12  and  S_14
REMARK    5  A    between atoms: S_14  and  N_15
REMARK                            x       y       z     vdW  Elec       q    Type
REMARK                         _______ _______ _______ _____ _____    ______ ____
ROOT
ATOM      1  C   UNL     1       9.407  -0.507  24.008  0.00  0.00    +0.112 A 
ATOM      2  N   UNL     1      10.008  -1.742  23.892  0.00  0.00    -0.350 N 
ATOM      3  H   UNL     1      10.907  -1.895  23.458  0.00  0.00    +0.166 HD
ATOM      4  C   UNL     1       9.290  -2.718  24.524  0.00  0.00    +0.048 A 
ATOM      5  C   UNL     1       9.579  -4.081  24.668  0.00  0.00    +0.028 A 
ATOM      6  C   UNL     1       8.677  -4.861  25.392  0.00  0.00    +0.030 A 
ATOM      7  C   UNL     1       7.519  -4.290  25.914  0.00  0.00    +0.106 A 
ATOM      8  C   UNL     1       7.232  -2.926  25.741  0.00  0.00    +0.039 A 
ATOM      9  C   UNL     1       8.152  -2.106  25.048  0.00  0.00    +0.010 A 
ATOM     10  C   UNL     1       8.224  -0.695  24.726  0.00  0.00    +0.020 A 
ENDROOT
BRANCH  10  11
ATOM     11  C   UNL     1       7.277   0.371  25.088  0.00  0.00    -0.015 A 
ATOM     12  C   UNL     1       7.430   1.080  26.290  0.00  0.00    +0.008 A 
ATOM     13  C   UNL     1       6.540   2.097  26.653  0.00  0.00    +0.001 A 
ATOM     14  C   UNL     1       5.498   2.448  25.802  0.00  0.00    +0.000 A 
ATOM     15  C   UNL     1       5.330   1.761  24.604  0.00  0.00    +0.001 A 
ATOM     16  C   UNL     1       6.197   0.716  24.262  0.00  0.00    +0.008 A 
ENDBRANCH  10  11
BRANCH   1  19
ATOM     17  N   UNL     1       9.682   1.003  22.188  0.00  0.00    -0.248 N 
ATOM     18  H   UNL     1       8.807   0.615  21.842  0.00  0.00    +0.169 HD
ATOM     19  C   UNL     1      10.058   0.685  23.498  0.00  0.00    +0.274 C 
ATOM     20  O   UNL     1      10.882   1.353  24.119  0.00  0.00    -0.267 OA
BRANCH  17  21
ATOM     21  N   UNL     1      10.151   2.198  21.595  0.00  0.00    -0.254 NA
ATOM     22  H   UNL     1      11.110   2.352  21.943  0.00  0.00    +0.140 HD
ATOM     23  H   UNL     1      10.249   2.058  20.588  0.00  0.00    +0.140 HD
ENDBRANCH  17  21
ENDBRANCH   1  19
BRANCH   7  24
ATOM     24  S   UNL     1       6.410  -5.288  26.866  0.00  0.00    +0.056 S 
ATOM     25  O   UNL     1       5.861  -6.328  26.028  0.00  0.00    -0.153 OA
ATOM     26  O   UNL     1       5.582  -4.433  27.685  0.00  0.00    -0.153 OA
BRANCH  24  27
ATOM     27  N   UNL     1       7.471  -6.051  27.918  0.00  0.00    -0.204 NA
ATOM     28  H   UNL     1       7.152  -7.002  28.105  0.00  0.00    +0.144 HD
ATOM     29  H   UNL     1       7.599  -5.482  28.755  0.00  0.00    +0.144 HD
ENDBRANCH  24  27
ENDBRANCH   7  24
TORSDOF 5
ENDMDL
MODEL 4
REMARK VINA RESULT:      -6.4      6.041      8.286
REMARK  Name = 
REMARK  5 active torsions:
REMARK  status: ('A' for Active; 'I' for Inactive)
REMARK    1  A    between atoms: N_1  and  N_2
REMARK    2  A    between atoms: C_3  and  C_5
REMARK    3  A    between atoms: C_6  and  C_18
REMARK    4  A    between atoms: C_12  and  S_14
REMARK    5  A    between atoms: S_14  and  N_15
REMARK                            x       y       z     vdW  Elec       q    Type
REMARK                         _______ _______ _______ _____ _____    ______ ____
ROOT
ATOM      1  C   UNL     1      10.582   4.776  23.281  0.00  0.00    +0.112 A 
ATOM      2  N   UNL     1       9.921   5.984  23.341  0.00  0.00    -0.350 N 
ATOM      3  H   UNL     1      10.381   6.883  23.299  0.00  0.00    +0.166 HD
ATOM      4  C   UNL     1       8.565   5.821  23.358  0.00  0.00    +0.048 A 
ATOM      5  C   UNL     1       7.553   6.791  23.375  0.00  0.00    +0.028 A 
ATOM      6  C   UNL     1       6.231   6.348  23.365  0.00  0.00    +0.030 A 
ATOM      7  C   UNL     1       5.949   4.984  23.371  0.00  0.00    +0.106 A 
ATOM      8  C   UNL     1       6.975   4.023  23.377  0.00  0.00    +0.039 A 
ATOM      9  C   UNL     1       8.324   4.448  23.344  0.00  0.00    +0.010 A 
ATOM     10  C   UNL     1       9.606   3.777  23.291  0.00  0.00    +0.020 A 
ENDROOT
BRANCH  10  11
ATOM     11  C   UNL     1       9.876   2.332  23.228  0.00  0.00    -0.015 A 
ATOM     12  C   UNL     1      10.266   1.631  24.380  0.00  0.00    +0.008 A 
ATOM     13  C   UNL     1      10.529   0.257  24.341  0.00  0.00    +0.001 A 
ATOM     14  C   UNL     1      10.372  -0.449  23.154  0.00  0.00    +0.000 A 
ATOM     15  C   UNL     1       9.983   0.225  22.001  0.00  0.00    +0.001 A 
ATOM     16  C   UNL     1       9.760   1.607  22.032  0.00  0.00    +0.008 A 
ENDBRANCH  10  11
BRANCH   1  19
ATOM     17  N   UNL     1      12.525   5.637  22.209  0.00  0.00    -0.248 N 
ATOM     18  H   UNL     1      11.938   6.429  21.961  0.00  0.00    +0.169 HD
ATOM     19  C   UNL     1      12.026   4.727  23.148  0.00  0.00    +0.274 C 
ATOM     20  O   UNL     1      12.760   3.957  23.763  0.00  0.00    -0.267 OA
BRANCH  17  21
ATOM     21  N   UNL     1      13.924   5.779  22.047  0.00  0.00    -0.254 NA
ATOM     22  H   UNL     1      14.073   6.471  21.298  0.00  0.00    +0.140 HD
ATOM     23  H   UNL     1      14.317   6.205  22.890  0.00  0.00    +0.140 HD
ENDBRANCH  17  21
ENDBRANCH   1  19
BRANCH   7  24
ATOM     24  S   UNL     1       4.266   4.442  23.313  0.00  0.00    +0.056 S 
ATOM     25  O   UNL     1       3.549   5.211  22.323  0.00  0.00    -0.153 OA
ATOM     26  O   UNL     1       3.776   4.262  24.659  0.00  0.00    -0.153 OA
BRANCH  24  27
ATOM     27  N   UNL     1       4.435   2.902  22.671  0.00  0.00    -0.204 NA
ATOM     28  H   UNL     1       5.208   2.885  22.005  0.00  0.00    +0.144 HD
ATOM     29  H   UNL     1       3.545   2.588  22.284  0.00  0.00    +0.144 HD
ENDBRANCH  24  27
ENDBRANCH   7  24
TORSDOF 5
ENDMDL
MODEL 5
REMARK VINA RESULT:      -6.4      3.149      6.981
REMARK  Name = 
REMARK  5 active torsions:
REMARK  status: ('A' for Active; 'I' for Inactive)
REMARK    1  A    between atoms: N_1  and  N_2
REMARK    2  A    between atoms: C_3  and  C_5
REMARK    3  A    between atoms: C_6  and  C_18
REMARK    4  A    between atoms: C_12  and  S_14
REMARK    5  A    between atoms: S_14  and  N_15
REMARK                            x       y       z     vdW  Elec       q    Type
REMARK                         _______ _______ _______ _____ _____    ______ ____
ROOT
ATOM      1  C   UNL     1       8.415  -1.480  22.920  0.00  0.00    +0.112 A 
ATOM      2  N   UNL     1       8.342  -2.595  22.114  0.00  0.00    -0.350 N 
ATOM      3  H   UNL     1       8.892  -2.726  21.276  0.00  0.00    +0.166 HD
ATOM      4  C   UNL     1       7.514  -3.548  22.638  0.00  0.00    +0.048 A 
ATOM      5  C   UNL     1       7.206  -4.824  22.150  0.00  0.00    +0.028 A 
ATOM      6  C   UNL     1       6.338  -5.615  22.903  0.00  0.00    +0.030 A 
ATOM      7  C   UNL     1       5.783  -5.118  24.080  0.00  0.00    +0.106 A 
ATOM      8  C   UNL     1       6.083  -3.826  24.544  0.00  0.00    +0.039 A 
ATOM      9  C   UNL     1       6.993  -3.023  23.820  0.00  0.00    +0.010 A 
ATOM     10  C   UNL     1       7.568  -1.706  24.008  0.00  0.00    +0.020 A 
ENDROOT
BRANCH  10  11
ATOM     11  C   UNL     1       7.355  -0.769  25.121  0.00  0.00    -0.015 A 
ATOM     12  C   UNL     1       6.467   0.310  24.982  0.00  0.00    +0.008 A 
ATOM     13  C   UNL     1       6.251   1.213  26.029  0.00  0.00    +0.001 A 
ATOM     14  C   UNL     1       6.893   1.033  27.248  0.00  0.00    +0.000 A 
ATOM     15  C   UNL     1       7.774  -0.031  27.409  0.00  0.00    +0.001 A 
ATOM     16  C   UNL     1       8.021  -0.910  26.348  0.00  0.00    +0.008 A 
ENDBRANCH  10  11
BRANCH   1  19
ATOM     17  N   UNL     1       8.751   0.572  21.761  0.00  0.00    -0.248 N 
ATOM     18  H   UNL     1       7.736   0.619  21.716  0.00  0.00    +0.169 HD
ATOM     19  C   UNL     1       9.321  -0.393  22.600  0.00  0.00    +0.274 C 
ATOM     20  O   UNL     1      10.484  -0.313  22.989  0.00  0.00    -0.267 OA
BRANCH  17  21
ATOM     21  N   UNL     1       9.477   1.746  21.450  0.00  0.00    -0.254 NA
ATOM     22  H   UNL     1      10.102   1.516  20.663  0.00  0.00    +0.140 HD
ATOM     23  H   UNL     1       8.834   2.452  21.088  0.00  0.00    +0.140 HD
ENDBRANCH  17  21
ENDBRANCH   1  19
BRANCH   7  24
ATOM     24  S   UNL     1       4.718  -6.153  25.044  0.00  0.00    +0.056 S 
ATOM     25  O   UNL     1       3.445  -5.495  25.223  0.00  0.00    -0.153 OA
ATOM     26  O   UNL     1       5.465  -6.711  26.146  0.00  0.00    -0.153 OA
BRANCH  24  27
ATOM     27  N   UNL     1       4.440  -7.422  23.982  0.00  0.00    -0.204 NA
ATOM     28  H   UNL     1       5.321  -7.880  23.749  0.00  0.00    +0.144 HD
ATOM     29  H   UNL     1       3.916  -7.088  23.173  0.00  0.00    +0.144 HD
ENDBRANCH  24  27
ENDBRANCH   7  24
TORSDOF 5
ENDMDL
MODEL 6
REMARK VINA RESULT:      -6.4      3.615      7.741
REMARK  Name = 
REMARK  5 active torsions:
REMARK  status: ('A' for Active; 'I' for Inactive)
REMARK    1  A    between atoms: N_1  and  N_2
REMARK    2  A    between atoms: C_3  and  C_5
REMARK    3  A    between atoms: C_6  and  C_18
REMARK    4  A    between atoms: C_12  and  S_14
REMARK    5  A    between atoms: S_14  and  N_15
REMARK                            x       y       z     vdW  Elec       q    Type
REMARK                         _______ _______ _______ _____ _____    ______ ____
ROOT
ATOM      1  C   UNL     1       8.178   3.253  22.810  0.00  0.00    +0.112 A 
ATOM      2  N   UNL     1       8.895   2.555  21.861  0.00  0.00    -0.350 N 
ATOM      3  H   UNL     1       9.379   2.987  21.087  0.00  0.00    +0.166 HD
ATOM      4  C   UNL     1       8.957   1.221  22.152  0.00  0.00    +0.048 A 
ATOM      5  C   UNL     1       9.617   0.193  21.466  0.00  0.00    +0.028 A 
ATOM      6  C   UNL     1       9.540  -1.094  21.998  0.00  0.00    +0.030 A 
ATOM      7  C   UNL     1       8.799  -1.331  23.153  0.00  0.00    +0.106 A 
ATOM      8  C   UNL     1       8.123  -0.292  23.817  0.00  0.00    +0.039 A 
ATOM      9  C   UNL     1       8.222   1.028  23.320  0.00  0.00    +0.010 A 
ATOM     10  C   UNL     1       7.727   2.320  23.748  0.00  0.00    +0.020 A 
ENDROOT
BRANCH  10  11
ATOM     11  C   UNL     1       6.928   2.641  24.940  0.00  0.00    -0.015 A 
ATOM     12  C   UNL     1       7.550   3.123  26.104  0.00  0.00    +0.008 A 
ATOM     13  C   UNL     1       6.808   3.433  27.249  0.00  0.00    +0.001 A 
ATOM     14  C   UNL     1       5.424   3.299  27.241  0.00  0.00    +0.000 A 
ATOM     15  C   UNL     1       4.788   2.827  26.098  0.00  0.00    +0.001 A 
ATOM     16  C   UNL     1       5.535   2.479  24.966  0.00  0.00    +0.008 A 
ENDBRANCH  10  11
BRANCH   1  19
ATOM     17  N   UNL     1       7.349   5.156  21.644  0.00  0.00    -0.248 N 
ATOM     18  H   UNL     1       6.712   4.502  21.197  0.00  0.00    +0.169 HD
ATOM     19  C   UNL     1       8.079   4.699  22.748  0.00  0.00    +0.274 C 
ATOM     20  O   UNL     1       8.595   5.471  23.552  0.00  0.00    -0.267 OA
BRANCH  17  21
ATOM     21  N   UNL     1       7.076   6.537  21.509  0.00  0.00    -0.254 NA
ATOM     22  H   UNL     1       7.982   7.015  21.389  0.00  0.00    +0.140 HD
ATOM     23  H   UNL     1       6.569   6.696  20.636  0.00  0.00    +0.140 HD
ENDBRANCH  17  21
ENDBRANCH   1  19
BRANCH   7  24
ATOM     24  S   UNL     1       8.750  -2.962  23.837  0.00  0.00    +0.056 S 
ATOM     25  O   UNL     1      10.098  -3.422  24.078  0.00  0.00    -0.153 OA
ATOM     26  O   UNL     1       7.778  -3.752  23.118  0.00  0.00    -0.153 OA
BRANCH  24  27
ATOM     27  N   UNL     1       8.082  -2.668  25.347  0.00  0.00    -0.204 NA
ATOM     28  H   UNL     1       7.753  -3.542  25.759  0.00  0.00    +0.144 HD
ATOM     29  H   UNL     1       7.366  -1.946  25.275  0.00  0.00    +0.144 HD
ENDBRANCH  24  27
ENDBRANCH   7  24
TORSDOF 5
ENDMDL
MODEL 7
REMARK VINA RESULT:      -6.4      2.920      4.049
REMARK  Name = 
REMARK  5 active torsions:
REMARK  status: ('A' for Active; 'I' for Inactive)
REMARK    1  A    between atoms: N_1  and  N_2
REMARK    2  A    between atoms: C_3  and  C_5
REMARK    3  A    between atoms: C_6  and  C_18
REMARK    4  A    between atoms: C_12  and  S_14
REMARK    5  A    between atoms: S_14  and  N_15
REMARK                            x       y       z     vdW  Elec       q    Type
REMARK                         _______ _______ _______ _____ _____    ______ ____
ROOT
ATOM      1  C   UNL     1       7.731  -3.130  22.785  0.00  0.00    +0.112 A 
ATOM      2  N   UNL     1       8.548  -2.553  21.837  0.00  0.00    -0.350 N 
ATOM      3  H   UNL     1       8.848  -3.016  20.991  0.00  0.00    +0.166 HD
ATOM      4  C   UNL     1       8.820  -1.246  22.129  0.00  0.00    +0.048 A 
ATOM      5  C   UNL     1       9.571  -0.312  21.404  0.00  0.00    +0.028 A 
ATOM      6  C   UNL     1       9.672   0.980  21.921  0.00  0.00    +0.030 A 
ATOM      7  C   UNL     1       9.067   1.298  23.134  0.00  0.00    +0.106 A 
ATOM      8  C   UNL     1       8.336   0.342  23.862  0.00  0.00    +0.039 A 
ATOM      9  C   UNL     1       8.184  -0.962  23.337  0.00  0.00    +0.010 A 
ATOM     10  C   UNL     1       7.484  -2.158  23.757  0.00  0.00    +0.020 A 
ENDROOT
BRANCH  10  11
ATOM     11  C   UNL     1       6.643  -2.350  24.949  0.00  0.00    -0.015 A 
ATOM     12  C   UNL     1       5.376  -1.749  25.030  0.00  0.00    +0.008 A 
ATOM     13  C   UNL     1       4.562  -1.918  26.155  0.00  0.00    +0.001 A 
ATOM     14  C   UNL     1       4.985  -2.721  27.208  0.00  0.00    +0.000 A 
ATOM     15  C   UNL     1       6.235  -3.329  27.147  0.00  0.00    +0.001 A 
ATOM     16  C   UNL     1       7.066  -3.125  26.038  0.00  0.00    +0.008 A 
ENDBRANCH  10  11
BRANCH   1  19
ATOM     17  N   UNL     1       6.200  -4.575  21.673  0.00  0.00    -0.248 N 
ATOM     18  H   UNL     1       6.110  -3.823  20.994  0.00  0.00    +0.169 HD
ATOM     19  C   UNL     1       7.235  -4.482  22.612  0.00  0.00    +0.274 C 
ATOM     20  O   UNL     1       7.641  -5.463  23.231  0.00  0.00    -0.267 OA
BRANCH  17  21
ATOM     21  N   UNL     1       5.688  -5.845  21.318  0.00  0.00    -0.254 NA
ATOM     22  H   UNL     1       4.978  -6.093  22.023  0.00  0.00    +0.140 HD
ATOM     23  H   UNL     1       5.178  -5.767  20.436  0.00  0.00    +0.140 HD
ENDBRANCH  17  21
ENDBRANCH   1  19
BRANCH   7  24
ATOM     24  S   UNL     1       9.170   2.953  23.751  0.00  0.00    +0.056 S 
ATOM     25  O   UNL     1      10.526   3.431  23.617  0.00  0.00    -0.153 OA
ATOM     26  O   UNL     1       8.433   3.048  24.990  0.00  0.00    -0.153 OA
BRANCH  24  27
ATOM     27  N   UNL     1       8.268   3.788  22.610  0.00  0.00    -0.204 NA
ATOM     28  H   UNL     1       7.305   3.890  22.933  0.00  0.00    +0.144 HD
ATOM     29  H   UNL     1       8.357   3.337  21.700  0.00  0.00    +0.144 HD
ENDBRANCH  24  27
ENDBRANCH   7  24
TORSDOF 5
ENDMDL
MODEL 8
REMARK VINA RESULT:      -6.3      3.588      6.386
REMARK  Name = 
REMARK  5 active torsions:
REMARK  status: ('A' for Active; 'I' for Inactive)
REMARK    1  A    between atoms: N_1  and  N_2
REMARK    2  A    between atoms: C_3  and  C_5
REMARK    3  A    between atoms: C_6  and  C_18
REMARK    4  A    between atoms: C_12  and  S_14
REMARK    5  A    between atoms: S_14  and  N_15
REMARK                            x       y       z     vdW  Elec       q    Type
REMARK                         _______ _______ _______ _____ _____    ______ ____
ROOT
ATOM      1  C   UNL     1       6.257   0.288  25.469  0.00  0.00    +0.112 A 
ATOM      2  N   UNL     1       5.323  -0.662  25.821  0.00  0.00    -0.350 N 
ATOM      3  H   UNL     1       4.638  -0.538  26.554  0.00  0.00    +0.166 HD
ATOM      4  C   UNL     1       5.365  -1.748  24.993  0.00  0.00    +0.048 A 
ATOM      5  C   UNL     1       4.562  -2.896  24.992  0.00  0.00    +0.028 A 
ATOM      6  C   UNL     1       4.804  -3.855  24.008  0.00  0.00    +0.030 A 
ATOM      7  C   UNL     1       5.835  -3.671  23.091  0.00  0.00    +0.106 A 
ATOM      8  C   UNL     1       6.647  -2.525  23.119  0.00  0.00    +0.039 A 
ATOM      9  C   UNL     1       6.393  -1.519  24.080  0.00  0.00    +0.010 A 
ATOM     10  C   UNL     1       6.963  -0.220  24.376  0.00  0.00    +0.020 A 
ENDROOT
BRANCH  10  11
ATOM     11  C   UNL     1       8.050   0.479  23.673  0.00  0.00    -0.015 A 
ATOM     12  C   UNL     1       7.850   0.988  22.380  0.00  0.00    +0.008 A 
ATOM     13  C   UNL     1       8.871   1.655  21.695  0.00  0.00    +0.001 A 
ATOM     14  C   UNL     1      10.104   1.856  22.305  0.00  0.00    +0.000 A 
ATOM     15  C   UNL     1      10.323   1.364  23.587  0.00  0.00    +0.001 A 
ATOM     16  C   UNL     1       9.313   0.660  24.256  0.00  0.00    +0.008 A 
ENDBRANCH  10  11
BRANCH   1  19
ATOM     17  N   UNL     1       7.202   1.577  27.233  0.00  0.00    -0.248 N 
ATOM     18  H   UNL     1       7.933   0.869  27.249  0.00  0.00    +0.169 HD
ATOM     19  C   UNL     1       6.310   1.565  26.154  0.00  0.00    +0.274 C 
ATOM     20  O   UNL     1       5.633   2.548  25.859  0.00  0.00    -0.267 OA
BRANCH  17  21
ATOM     21  N   UNL     1       7.442   2.785  27.930  0.00  0.00    -0.254 NA
ATOM     22  H   UNL     1       6.541   3.087  28.330  0.00  0.00    +0.140 HD
ATOM     23  H   UNL     1       8.044   2.595  28.734  0.00  0.00    +0.140 HD
ENDBRANCH  17  21
ENDBRANCH   1  19
BRANCH   7  24
ATOM     24  S   UNL     1       6.098  -4.879  21.823  0.00  0.00    +0.056 S 
ATOM     25  O   UNL     1       7.346  -5.563  22.065  0.00  0.00    -0.153 OA
ATOM     26  O   UNL     1       5.763  -4.306  20.541  0.00  0.00    -0.153 OA
BRANCH  24  27
ATOM     27  N   UNL     1       4.887  -5.988  22.167  0.00  0.00    -0.204 NA
ATOM     28  H   UNL     1       4.043  -5.756  21.641  0.00  0.00    +0.144 HD
ATOM     29  H   UNL     1       4.747  -6.047  23.175  0.00  0.00    +0.144 HD
ENDBRANCH  24  27
ENDBRANCH   7  24
TORSDOF 5
ENDMDL
MODEL 9
REMARK VINA RESULT:      -6.2      2.984      7.140
REMARK  Name = 
REMARK  5 active torsions:
REMARK  status: ('A' for Active; 'I' for Inactive)
REMARK    1  A    between atoms: N_1  and  N_2
REMARK    2  A    between atoms: C_3  and  C_5
REMARK    3  A    between atoms: C_6  and  C_18
REMARK    4  A    between atoms: C_12  and  S_14
REMARK    5  A    between atoms: S_14  and  N_15
REMARK                            x       y       z     vdW  Elec       q    Type
REMARK                         _______ _______ _______ _____ _____    ______ ____
ROOT
ATOM      1  C   UNL     1       7.937  -0.351  22.968  0.00  0.00    +0.112 A 
ATOM      2  N   UNL     1       8.277  -1.599  22.494  0.00  0.00    -0.350 N 
ATOM      3  H   UNL     1       8.794  -1.758  21.640  0.00  0.00    +0.166 HD
ATOM      4  C   UNL     1       7.924  -2.589  23.367  0.00  0.00    +0.048 A 
ATOM      5  C   UNL     1       8.130  -3.972  23.273  0.00  0.00    +0.028 A 
ATOM      6  C   UNL     1       7.686  -4.766  24.331  0.00  0.00    +0.030 A 
ATOM      7  C   UNL     1       7.035  -4.186  25.416  0.00  0.00    +0.106 A 
ATOM      8  C   UNL     1       6.815  -2.799  25.485  0.00  0.00    +0.039 A 
ATOM      9  C   UNL     1       7.294  -1.969  24.445  0.00  0.00    +0.010 A 
ATOM     10  C   UNL     1       7.303  -0.542  24.199  0.00  0.00    +0.020 A 
ENDROOT
BRANCH  10  11
ATOM     11  C   UNL     1       6.786   0.534  25.058  0.00  0.00    -0.015 A 
ATOM     12  C   UNL     1       5.551   1.140  24.774  0.00  0.00    +0.008 A 
ATOM     13  C   UNL     1       5.042   2.166  25.578  0.00  0.00    +0.001 A 
ATOM     14  C   UNL     1       5.743   2.582  26.704  0.00  0.00    +0.000 A 
ATOM     15  C   UNL     1       6.967   1.993  27.006  0.00  0.00    +0.001 A 
ATOM     16  C   UNL     1       7.494   0.995  26.177  0.00  0.00    +0.008 A 
ENDBRANCH  10  11
BRANCH   1  19
ATOM     17  N   UNL     1       9.663   1.191  22.414  0.00  0.00    -0.248 N 
ATOM     18  H   UNL     1      10.301   0.462  22.722  0.00  0.00    +0.169 HD
ATOM     19  C   UNL     1       8.317   0.847  22.244  0.00  0.00    +0.274 C 
ATOM     20  O   UNL     1       7.552   1.528  21.564  0.00  0.00    -0.267 OA
BRANCH  17  21
ATOM     21  N   UNL     1      10.206   2.274  21.683  0.00  0.00    -0.254 NA
ATOM     22  H   UNL     1       9.500   3.024  21.684  0.00  0.00    +0.140 HD
ATOM     23  H   UNL     1      11.006   2.656  22.193  0.00  0.00    +0.140 HD
ENDBRANCH  17  21
ENDBRANCH   1  19
BRANCH   7  24
ATOM     24  S   UNL     1       6.519  -5.205  26.768  0.00  0.00    +0.056 S 
ATOM     25  O   UNL     1       5.821  -6.362  26.256  0.00  0.00    -0.153 OA
ATOM     26  O   UNL     1       5.976  -4.372  27.815  0.00  0.00    -0.153 OA
BRANCH  24  27
ATOM     27  N   UNL     1       7.992  -5.767  27.340  0.00  0.00    -0.204 NA
ATOM     28  H   UNL     1       7.928  -5.957  28.340  0.00  0.00    +0.144 HD
ATOM     29  H   UNL     1       8.734  -5.115  27.085  0.00  0.00    +0.144 HD
ENDBRANCH  24  27
ENDBRANCH   7  24
TORSDOF 5
ENDMDL
