MODEL 1
REMARK VINA RESULT:      -5.8      0.000      0.000
REMARK  Name = 
REMARK  8 active torsions:
REMARK  status: ('A' for Active; 'I' for Inactive)
REMARK    1  A    between atoms: C_1  and  N_2
REMARK    2  A    between atoms: N_2  and  C_3
REMARK    3  A    between atoms: N_2  and  C_4
REMARK    4  A    between atoms: C_4  and  C_5
REMARK    5  A    between atoms: C_5  and  C_6
REMARK    6  A    between atoms: C_5  and  C_13
REMARK    7  A    between atoms: C_9  and  O_10
REMARK    8  A    between atoms: C_13  and  O_14
REMARK                            x       y       z     vdW  Elec       q    Type
REMARK                         _______ _______ _______ _____ _____    ______ ____
ROOT
ATOM      1  C   UNL     1       7.094  -2.617  23.232  0.00  0.00    +0.065 C 
ENDROOT
BRANCH   1   2
ATOM      2  C   UNL     1       7.357  -2.707  24.803  0.00  0.00    +0.074 C 
ATOM      3  C   UNL     1       8.847  -2.534  25.188  0.00  0.00    +0.035 C 
ATOM      4  C   UNL     1       9.713  -3.718  24.751  0.00  0.00    +0.003 C 
ATOM      5  C   UNL     1       9.222  -5.013  25.383  0.00  0.00    +0.000 C 
ATOM      6  C   UNL     1       7.741  -5.249  25.105  0.00  0.00    +0.003 C 
ATOM      7  C   UNL     1       6.890  -4.033  25.464  0.00  0.00    +0.035 C 
BRANCH   2   8
ATOM      8  O   UNL     1       6.635  -1.653  25.467  0.00  0.00    -0.388 OA
ATOM      9  H   UNL     1       7.152  -0.833  25.423  0.00  0.00    +0.210 HD
ENDBRANCH   2   8
ENDBRANCH   1   2
BRANCH   1  10
ATOM     10  C   UNL     1       7.726  -1.345  22.628  0.00  0.00    -0.040 A 
ATOM     11  C   UNL     1       8.932  -1.438  21.908  0.00  0.00    +0.007 A 
ATOM     12  C   UNL     1       9.635  -0.293  21.521  0.00  0.00    +0.045 A 
ATOM     13  C   UNL     1       9.117   0.960  21.805  0.00  0.00    +0.117 A 
ATOM     14  C   UNL     1       7.887   1.086  22.441  0.00  0.00    +0.045 A 
ATOM     15  C   UNL     1       7.203  -0.060  22.859  0.00  0.00    +0.007 A 
BRANCH  13  16
ATOM     16  O   UNL     1       9.854   2.052  21.455  0.00  0.00    -0.507 OA
ATOM     17  H   UNL     1       9.258   2.816  21.403  0.00  0.00    +0.292 HD
ENDBRANCH  13  16
ENDBRANCH   1  10
BRANCH   1  18
ATOM     18  C   UNL     1       5.572  -2.773  22.892  0.00  0.00    +0.094 C 
BRANCH  18  20
ATOM     19  C   UNL     1       6.293  -4.748  21.663  0.00  0.00    +0.104 C 
ATOM     20  N   UNL     1       5.151  -3.997  22.165  0.00  0.00    -0.308 NA
ATOM     21  C   UNL     1       4.337  -4.841  23.052  0.00  0.00    +0.104 C 
ENDBRANCH  18  20
ENDBRANCH   1  18
TORSDOF 6
ENDMDL
MODEL 2
REMARK VINA RESULT:      -5.8      2.403      3.457
REMARK  Name = 
REMARK  8 active torsions:
REMARK  status: ('A' for Active; 'I' for Inactive)
REMARK    1  A    between atoms: C_1  and  N_2
REMARK    2  A    between atoms: N_2  and  C_3
REMARK    3  A    between atoms: N_2  and  C_4
REMARK    4  A    between atoms: C_4  and  C_5
REMARK    5  A    between atoms: C_5  and  C_6
REMARK    6  A    between atoms: C_5  and  C_13
REMARK    7  A    between atoms: C_9  and  O_10
REMARK    8  A    between atoms: C_13  and  O_14
REMARK                            x       y       z     vdW  Elec       q    Type
REMARK                         _______ _______ _______ _____ _____    ______ ____
ROOT
ATOM      1  C   UNL     1       8.341  -1.896  24.893  0.00  0.00    +0.065 C 
ENDROOT
BRANCH   1   2
ATOM      2  C   UNL     1       8.885  -3.375  24.643  0.00  0.00    +0.074 C 
ATOM      3  C   UNL     1       8.013  -4.192  23.657  0.00  0.00    +0.035 C 
ATOM      4  C   UNL     1       6.644  -4.555  24.238  0.00  0.00    +0.003 C 
ATOM      5  C   UNL     1       6.795  -5.378  25.509  0.00  0.00    +0.000 C 
ATOM      6  C   UNL     1       7.687  -4.680  26.531  0.00  0.00    +0.003 C 
ATOM      7  C   UNL     1       9.019  -4.243  25.924  0.00  0.00    +0.035 C 
BRANCH   2   8
ATOM      8  O   UNL     1      10.203  -3.306  24.066  0.00  0.00    -0.388 OA
ATOM      9  H   UNL     1      10.859  -3.555  24.736  0.00  0.00    +0.210 HD
ENDBRANCH   2   8
ENDBRANCH   1   2
BRANCH   1  10
ATOM     10  C   UNL     1       8.988  -0.887  23.921  0.00  0.00    -0.040 A 
ATOM     11  C   UNL     1       9.919   0.051  24.404  0.00  0.00    +0.007 A 
ATOM     12  C   UNL     1      10.372   1.102  23.601  0.00  0.00    +0.045 A 
ATOM     13  C   UNL     1       9.938   1.202  22.290  0.00  0.00    +0.117 A 
ATOM     14  C   UNL     1       9.083   0.244  21.756  0.00  0.00    +0.045 A 
ATOM     15  C   UNL     1       8.603  -0.786  22.572  0.00  0.00    +0.007 A 
BRANCH  13  16
ATOM     16  O   UNL     1      10.363   2.267  21.554  0.00  0.00    -0.507 OA
ATOM     17  H   UNL     1      11.141   2.648  21.992  0.00  0.00    +0.292 HD
ENDBRANCH  13  16
ENDBRANCH   1  10
BRANCH   1  18
ATOM     18  C   UNL     1       8.476  -1.479  26.398  0.00  0.00    +0.094 C 
BRANCH  18  20
ATOM     19  C   UNL     1       7.320   0.427  27.378  0.00  0.00    +0.104 C 
ATOM     20  N   UNL     1       7.254  -0.999  27.091  0.00  0.00    -0.308 NA
ATOM     21  C   UNL     1       6.073  -1.300  26.269  0.00  0.00    +0.104 C 
ENDBRANCH  18  20
ENDBRANCH   1  18
TORSDOF 6
ENDMDL
MODEL 3
REMARK VINA RESULT:      -5.6      2.018      5.111
REMARK  Name = 
REMARK  8 active torsions:
REMARK  status: ('A' for Active; 'I' for Inactive)
REMARK    1  A    between atoms: C_1  and  N_2
REMARK    2  A    between atoms: N_2  and  C_3
REMARK    3  A    between atoms: N_2  and  C_4
REMARK    4  A    between atoms: C_4  and  C_5
REMARK    5  A    between atoms: C_5  and  C_6
REMARK    6  A    between atoms: C_5  and  C_13
REMARK    7  A    between atoms: C_9  and  O_10
REMARK    8  A    between atoms: C_13  and  O_14
REMARK                            x       y       z     vdW  Elec       q    Type
REMARK                         _______ _______ _______ _____ _____    ______ ____
ROOT
ATOM      1  C   UNL     1       8.125  -2.264  23.446  0.00  0.00    +0.065 C 
ENDROOT
BRANCH   1   2
ATOM      2  C   UNL     1       9.554  -1.601  23.201  0.00  0.00    +0.074 C 
ATOM      3  C   UNL     1      10.015  -0.686  24.363  0.00  0.00    +0.035 C 
ATOM      4  C   UNL     1       9.190   0.600  24.467  0.00  0.00    +0.003 C 
ATOM      5  C   UNL     1       9.281   1.408  23.181  0.00  0.00    +0.000 C 
ATOM      6  C   UNL     1       8.897   0.575  21.963  0.00  0.00    +0.003 C 
ATOM      7  C   UNL     1       9.661  -0.746  21.908  0.00  0.00    +0.035 C 
BRANCH   2   8
ATOM      8  O   UNL     1      10.546  -2.639  23.078  0.00  0.00    -0.388 OA
ATOM      9  H   UNL     1      10.930  -2.821  23.950  0.00  0.00    +0.210 HD
ENDBRANCH   2   8
ENDBRANCH   1   2
BRANCH   1  10
ATOM     10  C   UNL     1       8.126  -3.155  24.707  0.00  0.00    -0.040 A 
ATOM     11  C   UNL     1       8.908  -4.324  24.735  0.00  0.00    +0.007 A 
ATOM     12  C   UNL     1       8.783  -5.255  25.771  0.00  0.00    +0.045 A 
ATOM     13  C   UNL     1       7.910  -5.006  26.817  0.00  0.00    +0.117 A 
ATOM     14  C   UNL     1       7.184  -3.821  26.861  0.00  0.00    +0.045 A 
ATOM     15  C   UNL     1       7.284  -2.908  25.806  0.00  0.00    +0.007 A 
BRANCH  13  16
ATOM     16  O   UNL     1       7.779  -5.959  27.783  0.00  0.00    -0.507 OA
ATOM     17  H   UNL     1       7.299  -5.569  28.531  0.00  0.00    +0.292 HD
ENDBRANCH  13  16
ENDBRANCH   1  10
BRANCH   1  18
ATOM     18  C   UNL     1       7.606  -3.005  22.166  0.00  0.00    +0.094 C 
BRANCH  18  20
ATOM     19  C   UNL     1       5.230  -3.372  22.557  0.00  0.00    +0.104 C 
ATOM     20  N   UNL     1       6.523  -4.006  22.341  0.00  0.00    -0.308 NA
ATOM     21  C   UNL     1       6.470  -4.883  21.163  0.00  0.00    +0.104 C 
ENDBRANCH  18  20
ENDBRANCH   1  18
TORSDOF 6
ENDMDL
MODEL 4
REMARK VINA RESULT:      -5.5      2.518      5.416
REMARK  Name = 
REMARK  8 active torsions:
REMARK  status: ('A' for Active; 'I' for Inactive)
REMARK    1  A    between atoms: C_1  and  N_2
REMARK    2  A    between atoms: N_2  and  C_3
REMARK    3  A    between atoms: N_2  and  C_4
REMARK    4  A    between atoms: C_4  and  C_5
REMARK    5  A    between atoms: C_5  and  C_6
REMARK    6  A    between atoms: C_5  and  C_13
REMARK    7  A    between atoms: C_9  and  O_10
REMARK    8  A    between atoms: C_13  and  O_14
REMARK                            x       y       z     vdW  Elec       q    Type
REMARK                         _______ _______ _______ _____ _____    ______ ____
ROOT
ATOM      1  C   UNL     1       8.062  -1.191  23.285  0.00  0.00    +0.065 C 
ENDROOT
BRANCH   1   2
ATOM      2  C   UNL     1       9.421  -0.774  22.561  0.00  0.00    +0.074 C 
ATOM      3  C   UNL     1      10.653  -0.806  23.500  0.00  0.00    +0.035 C 
ATOM      4  C   UNL     1      10.618   0.299  24.559  0.00  0.00    +0.003 C 
ATOM      5  C   UNL     1      10.572   1.674  23.908  0.00  0.00    +0.000 C 
ATOM      6  C   UNL     1       9.418   1.790  22.918  0.00  0.00    +0.003 C 
ATOM      7  C   UNL     1       9.406   0.638  21.915  0.00  0.00    +0.035 C 
BRANCH   2   8
ATOM      8  O   UNL     1       9.694  -1.701  21.493  0.00  0.00    -0.388 OA
ATOM      9  H   UNL     1       9.550  -1.260  20.640  0.00  0.00    +0.210 HD
ENDBRANCH   2   8
ENDBRANCH   1   2
BRANCH   1  10
ATOM     10  C   UNL     1       7.669  -2.646  22.950  0.00  0.00    -0.040 A 
ATOM     11  C   UNL     1       6.638  -2.896  22.025  0.00  0.00    +0.007 A 
ATOM     12  C   UNL     1       6.121  -4.183  21.847  0.00  0.00    +0.045 A 
ATOM     13  C   UNL     1       6.661  -5.245  22.555  0.00  0.00    +0.117 A 
ATOM     14  C   UNL     1       7.735  -5.044  23.415  0.00  0.00    +0.045 A 
ATOM     15  C   UNL     1       8.226  -3.751  23.618  0.00  0.00    +0.007 A 
BRANCH  13  16
ATOM     16  O   UNL     1       6.098  -6.475  22.392  0.00  0.00    -0.507 OA
ATOM     17  H   UNL     1       5.480  -6.429  21.645  0.00  0.00    +0.292 HD
ENDBRANCH  13  16
ENDBRANCH   1  10
BRANCH   1  18
ATOM     18  C   UNL     1       6.917  -0.160  22.999  0.00  0.00    +0.094 C 
BRANCH  18  20
ATOM     19  C   UNL     1       6.971   0.295  25.391  0.00  0.00    +0.104 C 
ATOM     20  N   UNL     1       6.192   0.405  24.166  0.00  0.00    -0.308 NA
ATOM     21  C   UNL     1       5.854   1.811  23.901  0.00  0.00    +0.104 C 
ENDBRANCH  18  20
ENDBRANCH   1  18
TORSDOF 6
ENDMDL
MODEL 5
REMARK VINA RESULT:      -5.4      2.412      5.174
REMARK  Name = 
REMARK  8 active torsions:
REMARK  status: ('A' for Active; 'I' for Inactive)
REMARK    1  A    between atoms: C_1  and  N_2
REMARK    2  A    between atoms: N_2  and  C_3
REMARK    3  A    between atoms: N_2  and  C_4
REMARK    4  A    between atoms: C_4  and  C_5
REMARK    5  A    between atoms: C_5  and  C_6
REMARK    6  A    between atoms: C_5  and  C_13
REMARK    7  A    between atoms: C_9  and  O_10
REMARK    8  A    between atoms: C_13  and  O_14
REMARK                            x       y       z     vdW  Elec       q    Type
REMARK                         _______ _______ _______ _____ _____    ______ ____
ROOT
ATOM      1  C   UNL     1       8.049  -1.723  23.191  0.00  0.00    +0.065 C 
ENDROOT
BRANCH   1   2
ATOM      2  C   UNL     1       9.052  -2.110  24.370  0.00  0.00    +0.074 C 
ATOM      3  C   UNL     1       8.367  -2.860  25.539  0.00  0.00    +0.035 C 
ATOM      4  C   UNL     1       7.418  -1.965  26.342  0.00  0.00    +0.003 C 
ATOM      5  C   UNL     1       8.163  -0.776  26.931  0.00  0.00    +0.000 C 
ATOM      6  C   UNL     1       8.920   0.002  25.860  0.00  0.00    +0.003 C 
ATOM      7  C   UNL     1       9.801  -0.907  25.007  0.00  0.00    +0.035 C 
BRANCH   2   8
ATOM      8  O   UNL     1      10.071  -2.990  23.857  0.00  0.00    -0.388 OA
ATOM      9  H   UNL     1       9.744  -3.904  23.876  0.00  0.00    +0.210 HD
ENDBRANCH   2   8
ENDBRANCH   1   2
BRANCH   1  10
ATOM     10  C   UNL     1       7.126  -2.904  22.827  0.00  0.00    -0.040 A 
ATOM     11  C   UNL     1       5.750  -2.831  23.116  0.00  0.00    +0.007 A 
ATOM     12  C   UNL     1       4.922  -3.950  22.986  0.00  0.00    +0.045 A 
ATOM     13  C   UNL     1       5.447  -5.144  22.521  0.00  0.00    +0.117 A 
ATOM     14  C   UNL     1       6.784  -5.227  22.148  0.00  0.00    +0.045 A 
ATOM     15  C   UNL     1       7.619  -4.117  22.312  0.00  0.00    +0.007 A 
BRANCH  13  16
ATOM     16  O   UNL     1       4.620  -6.225  22.455  0.00  0.00    -0.507 OA
ATOM     17  H   UNL     1       5.073  -6.980  22.864  0.00  0.00    +0.292 HD
ENDBRANCH  13  16
ENDBRANCH   1  10
BRANCH   1  18
ATOM     18  C   UNL     1       8.812  -1.130  21.957  0.00  0.00    +0.094 C 
BRANCH  18  20
ATOM     19  C   UNL     1       7.589   0.909  22.484  0.00  0.00    +0.104 C 
ATOM     20  N   UNL     1       8.648   0.319  21.678  0.00  0.00    -0.308 NA
ATOM     21  C   UNL     1       9.921   1.013  21.923  0.00  0.00    +0.104 C 
ENDBRANCH  18  20
ENDBRANCH   1  18
TORSDOF 6
ENDMDL
MODEL 6
REMARK VINA RESULT:      -5.2      2.784      5.049
REMARK  Name = 
REMARK  8 active torsions:
REMARK  status: ('A' for Active; 'I' for Inactive)
REMARK    1  A    between atoms: C_1  and  N_2
REMARK    2  A    between atoms: N_2  and  C_3
REMARK    3  A    between atoms: N_2  and  C_4
REMARK    4  A    between atoms: C_4  and  C_5
REMARK    5  A    between atoms: C_5  and  C_6
REMARK    6  A    between atoms: C_5  and  C_13
REMARK    7  A    between atoms: C_9  and  O_10
REMARK    8  A    between atoms: C_13  and  O_14
REMARK                            x       y       z     vdW  Elec       q    Type
REMARK                         _______ _______ _______ _____ _____    ______ ____
ROOT
ATOM      1  C   UNL     1       8.299  -2.347  24.304  0.00  0.00    +0.065 C 
ENDROOT
BRANCH   1   2
ATOM      2  C   UNL     1       8.123  -2.471  25.885  0.00  0.00    +0.074 C 
ATOM      3  C   UNL     1       6.648  -2.642  26.328  0.00  0.00    +0.035 C 
ATOM      4  C   UNL     1       5.815  -1.376  26.111  0.00  0.00    +0.003 C 
ATOM      5  C   UNL     1       6.396  -0.203  26.888  0.00  0.00    +0.000 C 
ATOM      6  C   UNL     1       7.869   0.015  26.561  0.00  0.00    +0.003 C 
ATOM      7  C   UNL     1       8.683  -1.270  26.697  0.00  0.00    +0.035 C 
BRANCH   2   8
ATOM      8  O   UNL     1       8.831  -3.635  26.353  0.00  0.00    -0.388 OA
ATOM      9  H   UNL     1       8.853  -3.629  27.323  0.00  0.00    +0.210 HD
ENDBRANCH   2   8
ENDBRANCH   1   2
BRANCH   1  10
ATOM     10  C   UNL     1       7.431  -3.382  23.559  0.00  0.00    -0.040 A 
ATOM     11  C   UNL     1       7.837  -4.729  23.508  0.00  0.00    +0.007 A 
ATOM     12  C   UNL     1       7.189  -5.651  22.680  0.00  0.00    +0.045 A 
ATOM     13  C   UNL     1       6.095  -5.250  21.930  0.00  0.00    +0.117 A 
ATOM     14  C   UNL     1       5.617  -3.948  22.022  0.00  0.00    +0.045 A 
ATOM     15  C   UNL     1       6.289  -3.019  22.822  0.00  0.00    +0.007 A 
BRANCH  13  16
ATOM     16  O   UNL     1       5.520  -6.164  21.099  0.00  0.00    -0.507 OA
ATOM     17  H   UNL     1       5.539  -7.029  21.539  0.00  0.00    +0.292 HD
ENDBRANCH  13  16
ENDBRANCH   1  10
BRANCH   1  18
ATOM     18  C   UNL     1       9.810  -2.392  23.888  0.00  0.00    +0.094 C 
BRANCH  18  20
ATOM     19  C   UNL     1       9.439  -1.188  21.804  0.00  0.00    +0.104 C 
ATOM     20  N   UNL     1      10.301  -1.336  22.967  0.00  0.00    -0.308 NA
ATOM     21  C   UNL     1      10.403  -0.061  23.692  0.00  0.00    +0.104 C 
ENDBRANCH  18  20
ENDBRANCH   1  18
TORSDOF 6
ENDMDL
MODEL 7
REMARK VINA RESULT:      -5.1      2.696      5.932
REMARK  Name = 
REMARK  8 active torsions:
REMARK  status: ('A' for Active; 'I' for Inactive)
REMARK    1  A    between atoms: C_1  and  N_2
REMARK    2  A    between atoms: N_2  and  C_3
REMARK    3  A    between atoms: N_2  and  C_4
REMARK    4  A    between atoms: C_4  and  C_5
REMARK    5  A    between atoms: C_5  and  C_6
REMARK    6  A    between atoms: C_5  and  C_13
REMARK    7  A    between atoms: C_9  and  O_10
REMARK    8  A    between atoms: C_13  and  O_14
REMARK                            x       y       z     vdW  Elec       q    Type
REMARK                         _______ _______ _______ _____ _____    ______ ____
ROOT
ATOM      1  C   UNL     1       7.745  -1.018  24.787  0.00  0.00    +0.065 C 
ENDROOT
BRANCH   1   2
ATOM      2  C   UNL     1       7.351  -1.051  23.242  0.00  0.00    +0.074 C 
ATOM      3  C   UNL     1       8.294  -1.933  22.385  0.00  0.00    +0.035 C 
ATOM      4  C   UNL     1       9.696  -1.335  22.243  0.00  0.00    +0.003 C 
ATOM      5  C   UNL     1       9.637   0.040  21.594  0.00  0.00    +0.000 C 
ATOM      6  C   UNL     1       8.686   0.973  22.336  0.00  0.00    +0.003 C 
ATOM      7  C   UNL     1       7.313   0.340  22.551  0.00  0.00    +0.035 C 
BRANCH   2   8
ATOM      8  O   UNL     1       6.029  -1.605  23.100  0.00  0.00    -0.388 OA
ATOM      9  H   UNL     1       5.380  -0.986  23.470  0.00  0.00    +0.210 HD
ENDBRANCH   2   8
ENDBRANCH   1   2
BRANCH   1  10
ATOM     10  C   UNL     1       7.737  -2.434  25.401  0.00  0.00    -0.040 A 
ATOM     11  C   UNL     1       6.608  -2.881  26.113  0.00  0.00    +0.007 A 
ATOM     12  C   UNL     1       6.639  -4.070  26.848  0.00  0.00    +0.045 A 
ATOM     13  C   UNL     1       7.782  -4.853  26.842  0.00  0.00    +0.117 A 
ATOM     14  C   UNL     1       8.885  -4.481  26.082  0.00  0.00    +0.045 A 
ATOM     15  C   UNL     1       8.865  -3.274  25.376  0.00  0.00    +0.007 A 
BRANCH  13  16
ATOM     16  O   UNL     1       7.791  -5.978  27.610  0.00  0.00    -0.507 OA
ATOM     17  H   UNL     1       8.555  -5.933  28.207  0.00  0.00    +0.292 HD
ENDBRANCH  13  16
ENDBRANCH   1  10
BRANCH   1  18
ATOM     18  C   UNL     1       6.866   0.006  25.584  0.00  0.00    +0.094 C 
BRANCH  18  20
ATOM     19  C   UNL     1       7.480   2.346  25.862  0.00  0.00    +0.104 C 
ATOM     20  N   UNL     1       7.569   1.007  26.426  0.00  0.00    -0.308 NA
ATOM     21  C   UNL     1       7.008   0.988  27.784  0.00  0.00    +0.104 C 
ENDBRANCH  18  20
ENDBRANCH   1  18
TORSDOF 6
ENDMDL
MODEL 8
REMARK VINA RESULT:      -5.1      1.418      2.327
REMARK  Name = 
REMARK  8 active torsions:
REMARK  status: ('A' for Active; 'I' for Inactive)
REMARK    1  A    between atoms: C_1  and  N_2
REMARK    2  A    between atoms: N_2  and  C_3
REMARK    3  A    between atoms: N_2  and  C_4
REMARK    4  A    between atoms: C_4  and  C_5
REMARK    5  A    between atoms: C_5  and  C_6
REMARK    6  A    between atoms: C_5  and  C_13
REMARK    7  A    between atoms: C_9  and  O_10
REMARK    8  A    between atoms: C_13  and  O_14
REMARK                            x       y       z     vdW  Elec       q    Type
REMARK                         _______ _______ _______ _____ _____    ______ ____
ROOT
ATOM      1  C   UNL     1       8.054  -3.548  23.333  0.00  0.00    +0.065 C 
ENDROOT
BRANCH   1   2
ATOM      2  C   UNL     1       8.687  -3.926  24.748  0.00  0.00    +0.074 C 
ATOM      3  C   UNL     1       7.988  -5.127  25.434  0.00  0.00    +0.035 C 
ATOM      4  C   UNL     1       6.570  -4.795  25.907  0.00  0.00    +0.003 C 
ATOM      5  C   UNL     1       6.585  -3.643  26.901  0.00  0.00    +0.000 C 
ATOM      6  C   UNL     1       7.303  -2.422  26.338  0.00  0.00    +0.003 C 
ATOM      7  C   UNL     1       8.685  -2.772  25.789  0.00  0.00    +0.035 C 
BRANCH   2   8
ATOM      8  O   UNL     1      10.066  -4.300  24.568  0.00  0.00    -0.388 OA
ATOM      9  H   UNL     1      10.249  -4.406  23.621  0.00  0.00    +0.210 HD
ENDBRANCH   2   8
ENDBRANCH   1   2
BRANCH   1  10
ATOM     10  C   UNL     1       8.402  -2.100  22.930  0.00  0.00    -0.040 A 
ATOM     11  C   UNL     1       7.420  -1.095  23.018  0.00  0.00    +0.007 A 
ATOM     12  C   UNL     1       7.633   0.177  22.478  0.00  0.00    +0.045 A 
ATOM     13  C   UNL     1       8.849   0.476  21.885  0.00  0.00    +0.117 A 
ATOM     14  C   UNL     1       9.870  -0.467  21.856  0.00  0.00    +0.045 A 
ATOM     15  C   UNL     1       9.641  -1.750  22.365  0.00  0.00    +0.007 A 
BRANCH  13  16
ATOM     16  O   UNL     1       9.002   1.710  21.326  0.00  0.00    -0.507 OA
ATOM     17  H   UNL     1       9.362   2.307  22.001  0.00  0.00    +0.292 HD
ENDBRANCH  13  16
ENDBRANCH   1  10
BRANCH   1  18
ATOM     18  C   UNL     1       6.517  -3.851  23.290  0.00  0.00    +0.094 C 
BRANCH  18  20
ATOM     19  C   UNL     1       7.067  -5.641  21.732  0.00  0.00    +0.104 C 
ATOM     20  N   UNL     1       6.023  -4.749  22.215  0.00  0.00    -0.308 NA
ATOM     21  C   UNL     1       4.879  -5.526  22.712  0.00  0.00    +0.104 C 
ENDBRANCH  18  20
ENDBRANCH   1  18
TORSDOF 6
ENDMDL
MODEL 9
REMARK VINA RESULT:      -5.1      2.938      4.539
REMARK  Name = 
REMARK  8 active torsions:
REMARK  status: ('A' for Active; 'I' for Inactive)
REMARK    1  A    between atoms: C_1  and  N_2
REMARK    2  A    between atoms: N_2  and  C_3
REMARK    3  A    between atoms: N_2  and  C_4
REMARK    4  A    between atoms: C_4  and  C_5
REMARK    5  A    between atoms: C_5  and  C_6
REMARK    6  A    between atoms: C_5  and  C_13
REMARK    7  A    between atoms: C_9  and  O_10
REMARK    8  A    between atoms: C_13  and  O_14
REMARK                            x       y       z     vdW  Elec       q    Type
REMARK                         _______ _______ _______ _____ _____    ______ ____
ROOT
ATOM      1  C   UNL     1       7.251  -4.087  25.464  0.00  0.00    +0.065 C 
ENDROOT
BRANCH   1   2
ATOM      2  C   UNL     1       8.020  -4.130  24.067  0.00  0.00    +0.074 C 
ATOM      3  C   UNL     1       7.822  -2.851  23.216  0.00  0.00    +0.035 C 
ATOM      4  C   UNL     1       6.395  -2.713  22.678  0.00  0.00    +0.003 C 
ATOM      5  C   UNL     1       6.025  -3.906  21.809  0.00  0.00    +0.000 C 
ATOM      6  C   UNL     1       6.238  -5.226  22.542  0.00  0.00    +0.003 C 
ATOM      7  C   UNL     1       7.635  -5.324  23.151  0.00  0.00    +0.035 C 
BRANCH   2   8
ATOM      8  O   UNL     1       9.435  -4.250  24.308  0.00  0.00    -0.388 OA
ATOM      9  H   UNL     1       9.882  -3.444  24.002  0.00  0.00    +0.210 HD
ENDBRANCH   2   8
ENDBRANCH   1   2
BRANCH   1  10
ATOM     10  C   UNL     1       7.361  -2.697  26.125  0.00  0.00    -0.040 A 
ATOM     11  C   UNL     1       6.208  -1.908  26.289  0.00  0.00    +0.007 A 
ATOM     12  C   UNL     1       6.295  -0.573  26.697  0.00  0.00    +0.045 A 
ATOM     13  C   UNL     1       7.532  -0.023  26.991  0.00  0.00    +0.117 A 
ATOM     14  C   UNL     1       8.683  -0.801  26.919  0.00  0.00    +0.045 A 
ATOM     15  C   UNL     1       8.597  -2.125  26.477  0.00  0.00    +0.007 A 
BRANCH  13  16
ATOM     16  O   UNL     1       7.582   1.294  27.337  0.00  0.00    -0.507 OA
ATOM     17  H   UNL     1       7.862   1.802  26.558  0.00  0.00    +0.292 HD
ENDBRANCH  13  16
ENDBRANCH   1  10
BRANCH   1  18
ATOM     18  C   UNL     1       7.699  -5.258  26.406  0.00  0.00    +0.094 C 
BRANCH  18  20
ATOM     19  C   UNL     1       6.278  -5.787  28.312  0.00  0.00    +0.104 C 
ATOM     20  N   UNL     1       6.641  -6.147  26.949  0.00  0.00    -0.308 NA
ATOM     21  C   UNL     1       5.459  -6.095  26.076  0.00  0.00    +0.104 C 
ENDBRANCH  18  20
ENDBRANCH   1  18
TORSDOF 6
ENDMDL
