MODEL 1
REMARK VINA RESULT:      -5.9      0.000      0.000
REMARK  Name = 
REMARK  4 active torsions:
REMARK  status: ('A' for Active; 'I' for Inactive)
REMARK    1  A    between atoms: C_1  and  N_2
REMARK    2  A    between atoms: C_5  and  N_17
REMARK    3  A    between atoms: C_6  and  S_7
REMARK    4  A    between atoms: S_7  and  C_8
REMARK                            x       y       z     vdW  Elec       q    Type
REMARK                         _______ _______ _______ _____ _____    ______ ____
ROOT
ATOM      1  S   UNL     1       6.756  -0.640  23.699  0.00  0.00    -0.041 S 
ENDROOT
BRANCH   1   2
ATOM      2  C   UNL     1       6.887  -2.315  23.143  0.00  0.00    +0.132 A 
ATOM      3  C   UNL     1       7.754  -3.224  23.747  0.00  0.00    +0.118 A 
ATOM      4  N   UNL     1       8.715  -3.177  24.728  0.00  0.00    -0.341 N 
ATOM      5  H   UNL     1       8.970  -2.373  25.285  0.00  0.00    +0.167 HD
ATOM      6  C   UNL     1       9.250  -4.433  24.856  0.00  0.00    +0.199 A 
ATOM      7  N   UNL     1       8.650  -5.297  24.073  0.00  0.00    -0.216 NA
ATOM      8  C   UNL     1       7.706  -4.567  23.404  0.00  0.00    +0.182 A 
ATOM      9  N   UNL     1       6.809  -5.082  22.551  0.00  0.00    -0.214 NA
ATOM     10  C   UNL     1       5.970  -4.166  22.069  0.00  0.00    +0.224 A 
ATOM     11  N   UNL     1       5.971  -2.835  22.299  0.00  0.00    -0.227 NA
ENDBRANCH   1   2
BRANCH   1  14
ATOM     12  C   UNL     1       6.386   2.400  22.254  0.00  0.00    +0.151 C 
ATOM     13  N   UNL     1       7.599   1.615  22.261  0.00  0.00    -0.323 N 
ATOM     14  C   UNL     1       7.867   0.360  22.774  0.00  0.00    +0.182 A 
ATOM     15  C   UNL     1       9.248   0.231  22.600  0.00  0.00    +0.399 A 
ATOM     16  N   UNL     1       9.787   1.330  21.957  0.00  0.00    -0.170 NA
ATOM     17  C   UNL     1       8.775   2.138  21.776  0.00  0.00    +0.206 A 
BRANCH  15  18
ATOM     18  N   UNL     1      10.154  -0.811  23.049  0.00  0.00    +0.103 N 
ATOM     19  O   UNL     1      10.554  -0.756  24.222  0.00  0.00    +0.043 OA
ATOM     20  O   UNL     1      10.466  -1.689  22.235  0.00  0.00    -0.575 OA
ENDBRANCH  15  18
ENDBRANCH   1  14
TORSDOF 3
ENDMDL
MODEL 2
REMARK VINA RESULT:      -5.8      1.486      2.547
REMARK  Name = 
REMARK  4 active torsions:
REMARK  status: ('A' for Active; 'I' for Inactive)
REMARK    1  A    between atoms: C_1  and  N_2
REMARK    2  A    between atoms: C_5  and  N_17
REMARK    3  A    between atoms: C_6  and  S_7
REMARK    4  A    between atoms: S_7  and  C_8
REMARK                            x       y       z     vdW  Elec       q    Type
REMARK                         _______ _______ _______ _____ _____    ______ ____
ROOT
ATOM      1  S   UNL     1       6.807  -1.088  23.785  0.00  0.00    -0.041 S 
ENDROOT
BRANCH   1   2
ATOM      2  C   UNL     1       7.406  -2.739  24.001  0.00  0.00    +0.132 A 
ATOM      3  C   UNL     1       7.109  -3.753  23.092  0.00  0.00    +0.118 A 
ATOM      4  N   UNL     1       6.328  -3.882  21.969  0.00  0.00    -0.341 N 
ATOM      5  H   UNL     1       5.787  -3.154  21.524  0.00  0.00    +0.167 HD
ATOM      6  C   UNL     1       6.441  -5.174  21.522  0.00  0.00    +0.199 A 
ATOM      7  N   UNL     1       7.295  -5.862  22.241  0.00  0.00    -0.216 NA
ATOM      8  C   UNL     1       7.735  -4.987  23.196  0.00  0.00    +0.182 A 
ATOM      9  N   UNL     1       8.684  -5.263  24.101  0.00  0.00    -0.214 NA
ATOM     10  C   UNL     1       8.964  -4.224  24.888  0.00  0.00    +0.224 A 
ATOM     11  N   UNL     1       8.376  -3.008  24.900  0.00  0.00    -0.227 NA
ENDBRANCH   1   2
BRANCH   1  14
ATOM     12  C   UNL     1       7.577   1.428  25.916  0.00  0.00    +0.151 C 
ATOM     13  N   UNL     1       8.382   1.000  24.795  0.00  0.00    -0.323 N 
ATOM     14  C   UNL     1       8.165   0.027  23.839  0.00  0.00    +0.182 A 
ATOM     15  C   UNL     1       9.371  -0.003  23.134  0.00  0.00    +0.399 A 
ATOM     16  N   UNL     1      10.260   0.948  23.600  0.00  0.00    -0.170 NA
ATOM     17  C   UNL     1       9.638   1.524  24.595  0.00  0.00    +0.206 A 
BRANCH  15  18
ATOM     18  N   UNL     1       9.821  -0.903  22.086  0.00  0.00    +0.103 N 
ATOM     19  O   UNL     1      10.592  -1.819  22.410  0.00  0.00    +0.043 OA
ATOM     20  O   UNL     1       9.402  -0.702  20.939  0.00  0.00    -0.575 OA
ENDBRANCH  15  18
ENDBRANCH   1  14
TORSDOF 3
ENDMDL
MODEL 3
REMARK VINA RESULT:      -5.8      1.618      5.306
REMARK  Name = 
REMARK  4 active torsions:
REMARK  status: ('A' for Active; 'I' for Inactive)
REMARK    1  A    between atoms: C_1  and  N_2
REMARK    2  A    between atoms: C_5  and  N_17
REMARK    3  A    between atoms: C_6  and  S_7
REMARK    4  A    between atoms: S_7  and  C_8
REMARK                            x       y       z     vdW  Elec       q    Type
REMARK                         _______ _______ _______ _____ _____    ______ ____
ROOT
ATOM      1  S   UNL     1       6.616  -2.116  22.981  0.00  0.00    -0.041 S 
ENDROOT
BRANCH   1   2
ATOM      2  C   UNL     1       6.629  -0.474  23.640  0.00  0.00    +0.132 A 
ATOM      3  C   UNL     1       7.408   0.537  23.079  0.00  0.00    +0.118 A 
ATOM      4  N   UNL     1       8.345   0.628  22.079  0.00  0.00    -0.341 N 
ATOM      5  H   UNL     1       8.648  -0.117  21.467  0.00  0.00    +0.167 HD
ATOM      6  C   UNL     1       8.776   1.928  22.022  0.00  0.00    +0.199 A 
ATOM      7  N   UNL     1       8.129   2.692  22.869  0.00  0.00    -0.216 NA
ATOM      8  C   UNL     1       7.262   1.848  23.508  0.00  0.00    +0.182 A 
ATOM      9  N   UNL     1       6.349   2.236  24.410  0.00  0.00    -0.214 NA
ATOM     10  C   UNL     1       5.596   1.227  24.848  0.00  0.00    +0.224 A 
ATOM     11  N   UNL     1       5.696  -0.083  24.533  0.00  0.00    -0.227 NA
ENDBRANCH   1   2
BRANCH   1  14
ATOM     12  C   UNL     1       6.460  -5.201  24.368  0.00  0.00    +0.151 C 
ATOM     13  N   UNL     1       7.633  -4.360  24.319  0.00  0.00    -0.323 N 
ATOM     14  C   UNL     1       7.817  -3.083  23.824  0.00  0.00    +0.182 A 
ATOM     15  C   UNL     1       9.198  -2.894  23.932  0.00  0.00    +0.399 A 
ATOM     16  N   UNL     1       9.818  -3.980  24.520  0.00  0.00    -0.170 NA
ATOM     17  C   UNL     1       8.855  -4.838  24.733  0.00  0.00    +0.206 A 
BRANCH  15  18
ATOM     18  N   UNL     1      10.032  -1.800  23.464  0.00  0.00    +0.103 N 
ATOM     19  O   UNL     1      10.452  -1.860  22.298  0.00  0.00    +0.043 OA
ATOM     20  O   UNL     1      10.266  -0.879  24.255  0.00  0.00    -0.575 OA
ENDBRANCH  15  18
ENDBRANCH   1  14
TORSDOF 3
ENDMDL
MODEL 4
REMARK VINA RESULT:      -5.8      3.397      6.091
REMARK  Name = 
REMARK  4 active torsions:
REMARK  status: ('A' for Active; 'I' for Inactive)
REMARK    1  A    between atoms: C_1  and  N_2
REMARK    2  A    between atoms: C_5  and  N_17
REMARK    3  A    between atoms: C_6  and  S_7
REMARK    4  A    between atoms: S_7  and  C_8
REMARK                            x       y       z     vdW  Elec       q    Type
REMARK                         _______ _______ _______ _____ _____    ______ ____
ROOT
ATOM      1  S   UNL     1       9.153  -4.638  24.692  0.00  0.00    -0.041 S 
ENDROOT
BRANCH   1   2
ATOM      2  C   UNL     1       9.345  -2.942  24.223  0.00  0.00    +0.132 A 
ATOM      3  C   UNL     1       8.923  -1.899  25.047  0.00  0.00    +0.118 A 
ATOM      4  N   UNL     1       8.251  -1.787  26.239  0.00  0.00    -0.341 N 
ATOM      5  H   UNL     1       7.933  -2.546  26.826  0.00  0.00    +0.167 HD
ATOM      6  C   UNL     1       8.119  -0.453  26.525  0.00  0.00    +0.199 A 
ATOM      7  N   UNL     1       8.721   0.296  25.633  0.00  0.00    -0.216 NA
ATOM      8  C   UNL     1       9.245  -0.587  24.730  0.00  0.00    +0.182 A 
ATOM      9  N   UNL     1      10.013  -0.244  23.687  0.00  0.00    -0.214 NA
ATOM     10  C   UNL     1      10.436  -1.298  22.988  0.00  0.00    +0.224 A 
ATOM     11  N   UNL     1      10.134  -2.600  23.183  0.00  0.00    -0.227 NA
ENDBRANCH   1   2
BRANCH   1  14
ATOM     12  C   UNL     1       7.139  -5.782  22.222  0.00  0.00    +0.151 C 
ATOM     13  N   UNL     1       6.740  -5.546  23.590  0.00  0.00    -0.323 N 
ATOM     14  C   UNL     1       7.444  -5.050  24.671  0.00  0.00    +0.182 A 
ATOM     15  C   UNL     1       6.553  -5.210  25.735  0.00  0.00    +0.399 A 
ATOM     16  N   UNL     1       5.341  -5.724  25.314  0.00  0.00    -0.170 NA
ATOM     17  C   UNL     1       5.490  -5.917  24.030  0.00  0.00    +0.206 A 
BRANCH  15  18
ATOM     18  N   UNL     1       6.747  -4.994  27.158  0.00  0.00    +0.103 N 
ATOM     19  O   UNL     1       7.319  -5.888  27.800  0.00  0.00    +0.043 OA
ATOM     20  O   UNL     1       6.333  -3.932  27.638  0.00  0.00    -0.575 OA
ENDBRANCH  15  18
ENDBRANCH   1  14
TORSDOF 3
ENDMDL
MODEL 5
REMARK VINA RESULT:      -5.7      1.902      5.534
REMARK  Name = 
REMARK  4 active torsions:
REMARK  status: ('A' for Active; 'I' for Inactive)
REMARK    1  A    between atoms: C_1  and  N_2
REMARK    2  A    between atoms: C_5  and  N_17
REMARK    3  A    between atoms: C_6  and  S_7
REMARK    4  A    between atoms: S_7  and  C_8
REMARK                            x       y       z     vdW  Elec       q    Type
REMARK                         _______ _______ _______ _____ _____    ______ ____
ROOT
ATOM      1  S   UNL     1       7.245  -2.043  24.702  0.00  0.00    -0.041 S 
ENDROOT
BRANCH   1   2
ATOM      2  C   UNL     1       8.348  -0.923  23.890  0.00  0.00    +0.132 A 
ATOM      3  C   UNL     1       7.883   0.192  23.195  0.00  0.00    +0.118 A 
ATOM      4  N   UNL     1       6.657   0.705  22.850  0.00  0.00    -0.341 N 
ATOM      5  H   UNL     1       5.753   0.331  23.106  0.00  0.00    +0.167 HD
ATOM      6  C   UNL     1       6.866   1.849  22.124  0.00  0.00    +0.199 A 
ATOM      7  N   UNL     1       8.142   2.143  22.040  0.00  0.00    -0.216 NA
ATOM      8  C   UNL     1       8.777   1.141  22.722  0.00  0.00    +0.182 A 
ATOM      9  N   UNL     1      10.097   1.094  22.948  0.00  0.00    -0.214 NA
ATOM     10  C   UNL     1      10.458   0.038  23.678  0.00  0.00    +0.224 A 
ATOM     11  N   UNL     1       9.675  -0.963  24.136  0.00  0.00    -0.227 NA
ENDBRANCH   1   2
BRANCH   1  14
ATOM     12  C   UNL     1       5.776  -3.098  21.841  0.00  0.00    +0.151 C 
ATOM     13  N   UNL     1       6.656  -3.885  22.672  0.00  0.00    -0.323 N 
ATOM     14  C   UNL     1       7.281  -3.590  23.869  0.00  0.00    +0.182 A 
ATOM     15  C   UNL     1       8.109  -4.697  24.078  0.00  0.00    +0.399 A 
ATOM     16  N   UNL     1       7.952  -5.648  23.088  0.00  0.00    -0.170 NA
ATOM     17  C   UNL     1       7.081  -5.128  22.263  0.00  0.00    +0.206 A 
BRANCH  15  18
ATOM     18  N   UNL     1       9.114  -4.933  25.100  0.00  0.00    +0.103 N 
ATOM     19  O   UNL     1       8.719  -5.304  26.216  0.00  0.00    +0.043 OA
ATOM     20  O   UNL     1      10.299  -4.754  24.791  0.00  0.00    -0.575 OA
ENDBRANCH  15  18
ENDBRANCH   1  14
TORSDOF 3
ENDMDL
MODEL 6
REMARK VINA RESULT:      -5.7      2.916      5.868
REMARK  Name = 
REMARK  4 active torsions:
REMARK  status: ('A' for Active; 'I' for Inactive)
REMARK    1  A    between atoms: C_1  and  N_2
REMARK    2  A    between atoms: C_5  and  N_17
REMARK    3  A    between atoms: C_6  and  S_7
REMARK    4  A    between atoms: S_7  and  C_8
REMARK                            x       y       z     vdW  Elec       q    Type
REMARK                         _______ _______ _______ _____ _____    ______ ____
ROOT
ATOM      1  S   UNL     1       9.396  -4.511  24.892  0.00  0.00    -0.041 S 
ENDROOT
BRANCH   1   2
ATOM      2  C   UNL     1       9.451  -2.866  24.240  0.00  0.00    +0.132 A 
ATOM      3  C   UNL     1       9.009  -1.769  24.978  0.00  0.00    +0.118 A 
ATOM      4  N   UNL     1       8.399  -1.570  26.192  0.00  0.00    -0.341 N 
ATOM      5  H   UNL     1       8.163  -2.280  26.872  0.00  0.00    +0.167 HD
ATOM      6  C   UNL     1       8.195  -0.223  26.348  0.00  0.00    +0.199 A 
ATOM      7  N   UNL     1       8.697   0.461  25.348  0.00  0.00    -0.216 NA
ATOM      8  C   UNL     1       9.227  -0.481  24.509  0.00  0.00    +0.182 A 
ATOM      9  N   UNL     1       9.911  -0.205  23.391  0.00  0.00    -0.214 NA
ATOM     10  C   UNL     1      10.362  -1.300  22.778  0.00  0.00    +0.224 A 
ATOM     11  N   UNL     1      10.157  -2.590  23.124  0.00  0.00    -0.227 NA
ENDBRANCH   1   2
BRANCH   1  14
ATOM     12  C   UNL     1       7.182  -5.334  27.316  0.00  0.00    +0.151 C 
ATOM     13  N   UNL     1       6.925  -5.373  25.895  0.00  0.00    -0.323 N 
ATOM     14  C   UNL     1       7.744  -5.104  24.816  0.00  0.00    +0.182 A 
ATOM     15  C   UNL     1       6.870  -5.171  23.727  0.00  0.00    +0.399 A 
ATOM     16  N   UNL     1       5.592  -5.523  24.118  0.00  0.00    -0.170 NA
ATOM     17  C   UNL     1       5.660  -5.630  25.419  0.00  0.00    +0.206 A 
BRANCH  15  18
ATOM     18  N   UNL     1       7.095  -4.861  22.326  0.00  0.00    +0.103 N 
ATOM     19  O   UNL     1       7.371  -5.804  21.568  0.00  0.00    +0.043 OA
ATOM     20  O   UNL     1       6.994  -3.678  21.977  0.00  0.00    -0.575 OA
ENDBRANCH  15  18
ENDBRANCH   1  14
TORSDOF 3
ENDMDL
MODEL 7
REMARK VINA RESULT:      -5.7      2.638      5.887
REMARK  Name = 
REMARK  4 active torsions:
REMARK  status: ('A' for Active; 'I' for Inactive)
REMARK    1  A    between atoms: C_1  and  N_2
REMARK    2  A    between atoms: C_5  and  N_17
REMARK    3  A    between atoms: C_6  and  S_7
REMARK    4  A    between atoms: S_7  and  C_8
REMARK                            x       y       z     vdW  Elec       q    Type
REMARK                         _______ _______ _______ _____ _____    ______ ____
ROOT
ATOM      1  S   UNL     1       9.279  -4.161  24.776  0.00  0.00    -0.041 S 
ENDROOT
BRANCH   1   2
ATOM      2  C   UNL     1       9.038  -2.408  24.796  0.00  0.00    +0.132 A 
ATOM      3  C   UNL     1       9.109  -1.643  23.633  0.00  0.00    +0.118 A 
ATOM      4  N   UNL     1       9.422  -1.869  22.315  0.00  0.00    -0.341 N 
ATOM      5  H   UNL     1       9.652  -2.759  21.893  0.00  0.00    +0.167 HD
ATOM      6  C   UNL     1       9.329  -0.675  21.648  0.00  0.00    +0.199 A 
ATOM      7  N   UNL     1       8.910   0.288  22.433  0.00  0.00    -0.216 NA
ATOM      8  C   UNL     1       8.744  -0.305  23.655  0.00  0.00    +0.182 A 
ATOM      9  N   UNL     1       8.250   0.310  24.739  0.00  0.00    -0.214 NA
ATOM     10  C   UNL     1       8.146  -0.502  25.791  0.00  0.00    +0.224 A 
ATOM     11  N   UNL     1       8.523  -1.796  25.883  0.00  0.00    -0.227 NA
ENDBRANCH   1   2
BRANCH   1  14
ATOM     12  C   UNL     1       7.205  -5.264  27.214  0.00  0.00    +0.151 C 
ATOM     13  N   UNL     1       6.943  -5.329  25.795  0.00  0.00    -0.323 N 
ATOM     14  C   UNL     1       7.712  -4.955  24.710  0.00  0.00    +0.182 A 
ATOM     15  C   UNL     1       6.845  -5.125  23.628  0.00  0.00    +0.399 A 
ATOM     16  N   UNL     1       5.623  -5.635  24.028  0.00  0.00    -0.170 NA
ATOM     17  C   UNL     1       5.716  -5.739  25.328  0.00  0.00    +0.206 A 
BRANCH  15  18
ATOM     18  N   UNL     1       7.017  -4.784  22.227  0.00  0.00    +0.103 N 
ATOM     19  O   UNL     1       7.277  -5.708  21.441  0.00  0.00    +0.043 OA
ATOM     20  O   UNL     1       6.890  -3.596  21.907  0.00  0.00    -0.575 OA
ENDBRANCH  15  18
ENDBRANCH   1  14
TORSDOF 3
ENDMDL
MODEL 8
REMARK VINA RESULT:      -5.7      2.949      3.739
REMARK  Name = 
REMARK  4 active torsions:
REMARK  status: ('A' for Active; 'I' for Inactive)
REMARK    1  A    between atoms: C_1  and  N_2
REMARK    2  A    between atoms: C_5  and  N_17
REMARK    3  A    between atoms: C_6  and  S_7
REMARK    4  A    between atoms: S_7  and  C_8
REMARK                            x       y       z     vdW  Elec       q    Type
REMARK                         _______ _______ _______ _____ _____    ______ ____
ROOT
ATOM      1  S   UNL     1       6.347  -2.582  24.340  0.00  0.00    -0.041 S 
ENDROOT
BRANCH   1   2
ATOM      2  C   UNL     1       5.825  -4.273  24.350  0.00  0.00    +0.132 A 
ATOM      3  C   UNL     1       5.757  -5.015  25.528  0.00  0.00    +0.118 A 
ATOM      4  N   UNL     1       6.088  -4.815  26.846  0.00  0.00    -0.341 N 
ATOM      5  H   UNL     1       6.455  -3.966  27.254  0.00  0.00    +0.167 HD
ATOM      6  C   UNL     1       5.795  -5.964  27.534  0.00  0.00    +0.199 A 
ATOM      7  N   UNL     1       5.234  -6.862  26.761  0.00  0.00    -0.216 NA
ATOM      8  C   UNL     1       5.180  -6.276  25.526  0.00  0.00    +0.182 A 
ATOM      9  N   UNL     1       4.605  -6.825  24.447  0.00  0.00    -0.214 NA
ATOM     10  C   UNL     1       4.645  -6.029  23.378  0.00  0.00    +0.224 A 
ATOM     11  N   UNL     1       5.229  -4.816  23.268  0.00  0.00    -0.227 NA
ENDBRANCH   1   2
BRANCH   1  14
ATOM     12  C   UNL     1       8.022  -0.254  22.540  0.00  0.00    +0.151 C 
ATOM     13  N   UNL     1       8.592  -1.463  23.088  0.00  0.00    -0.323 N 
ATOM     14  C   UNL     1       8.017  -2.500  23.797  0.00  0.00    +0.182 A 
ATOM     15  C   UNL     1       9.114  -3.281  24.170  0.00  0.00    +0.399 A 
ATOM     16  N   UNL     1      10.297  -2.777  23.660  0.00  0.00    -0.170 NA
ATOM     17  C   UNL     1       9.948  -1.689  23.025  0.00  0.00    +0.206 A 
BRANCH  15  18
ATOM     18  N   UNL     1       9.184  -4.444  25.037  0.00  0.00    +0.103 N 
ATOM     19  O   UNL     1       9.280  -5.556  24.496  0.00  0.00    +0.043 OA
ATOM     20  O   UNL     1       9.148  -4.251  26.258  0.00  0.00    -0.575 OA
ENDBRANCH  15  18
ENDBRANCH   1  14
TORSDOF 3
ENDMDL
MODEL 9
REMARK VINA RESULT:      -5.6      2.312      6.047
REMARK  Name = 
REMARK  4 active torsions:
REMARK  status: ('A' for Active; 'I' for Inactive)
REMARK    1  A    between atoms: C_1  and  N_2
REMARK    2  A    between atoms: C_5  and  N_17
REMARK    3  A    between atoms: C_6  and  S_7
REMARK    4  A    between atoms: S_7  and  C_8
REMARK                            x       y       z     vdW  Elec       q    Type
REMARK                         _______ _______ _______ _____ _____    ______ ____
ROOT
ATOM      1  S   UNL     1       6.394  -1.536  23.770  0.00  0.00    -0.041 S 
ENDROOT
BRANCH   1   2
ATOM      2  C   UNL     1       7.349  -0.405  22.801  0.00  0.00    +0.132 A 
ATOM      3  C   UNL     1       6.971   0.927  22.641  0.00  0.00    +0.118 A 
ATOM      4  N   UNL     1       5.896   1.703  23.001  0.00  0.00    -0.341 N 
ATOM      5  H   UNL     1       5.100   1.413  23.553  0.00  0.00    +0.167 HD
ATOM      6  C   UNL     1       6.107   2.968  22.515  0.00  0.00    +0.199 A 
ATOM      7  N   UNL     1       7.275   3.073  21.928  0.00  0.00    -0.216 NA
ATOM      8  C   UNL     1       7.829   1.826  22.024  0.00  0.00    +0.182 A 
ATOM      9  N   UNL     1       9.065   1.509  21.615  0.00  0.00    -0.214 NA
ATOM     10  C   UNL     1       9.382   0.238  21.866  0.00  0.00    +0.224 A 
ATOM     11  N   UNL     1       8.601  -0.721  22.408  0.00  0.00    -0.227 NA
ENDBRANCH   1   2
BRANCH   1  14
ATOM     12  C   UNL     1       8.878  -2.979  25.561  0.00  0.00    +0.151 C 
ATOM     13  N   UNL     1       8.126  -3.615  24.504  0.00  0.00    -0.323 N 
ATOM     14  C   UNL     1       7.128  -3.131  23.681  0.00  0.00    +0.182 A 
ATOM     15  C   UNL     1       6.707  -4.268  22.985  0.00  0.00    +0.399 A 
ATOM     16  N   UNL     1       7.453  -5.381  23.325  0.00  0.00    -0.170 NA
ATOM     17  C   UNL     1       8.286  -4.955  24.238  0.00  0.00    +0.206 A 
BRANCH  15  18
ATOM     18  N   UNL     1       5.600  -4.443  22.061  0.00  0.00    +0.103 N 
ATOM     19  O   UNL     1       5.876  -4.634  20.867  0.00  0.00    +0.043 OA
ATOM     20  O   UNL     1       4.454  -4.396  22.524  0.00  0.00    -0.575 OA
ENDBRANCH  15  18
ENDBRANCH   1  14
TORSDOF 3
ENDMDL
