MODEL 1
REMARK VINA RESULT:      -3.5      0.000      0.000
REMARK  Name = 
REMARK  33 active torsions:
REMARK  status: ('A' for Active; 'I' for Inactive)
REMARK    1  A    between atoms: C_1  and  O_2
REMARK    2  A    between atoms: O_2  and  C_3
REMARK    3  A    between atoms: C_3  and  C_5
REMARK    4  A    between atoms: C_3  and  C_12
REMARK    5  A    between atoms: C_5  and  C_6
REMARK    6  A    between atoms: C_7  and  N_8
REMARK    7  A    between atoms: N_8  and  C_9
REMARK    8  A    between atoms: C_12  and  C_14
REMARK    9  A    between atoms: C_12  and  C_15
REMARK   10  A    between atoms: C_15  and  C_17
REMARK   11  A    between atoms: C_17  and  C_18
REMARK   12  A    between atoms: C_18  and  C_19
REMARK   13  A    between atoms: C_19  and  C_21
REMARK   14  A    between atoms: C_19  and  C_22
REMARK   15  A    between atoms: C_22  and  O_24
REMARK   16  A    between atoms: C_22  and  C_26
REMARK   17  A    between atoms: O_24  and  C_25
REMARK   18  A    between atoms: C_26  and  C_28
REMARK   19  A    between atoms: C_26  and  C_29
REMARK   20  A    between atoms: C_37  and  C_38
REMARK   21  A    between atoms: C_40  and  O_83
REMARK   22  A    between atoms: C_50  and  O_52
REMARK   23  A    between atoms: C_53  and  C_55
REMARK   24  A    between atoms: C_56  and  O_81
REMARK   25  A    between atoms: C_59  and  O_61
REMARK   26  A    between atoms: O_61  and  C_62
REMARK   27  A    between atoms: C_65  and  C_67
REMARK   28  A    between atoms: C_68  and  O_70
REMARK   29  A    between atoms: C_72  and  O_74
REMARK   30  A    between atoms: O_74  and  C_75
REMARK   31  A    between atoms: C_78  and  C_80
REMARK   32  A    between atoms: O_81  and  C_82
REMARK   33  A    between atoms: O_83  and  C_84
REMARK                            x       y       z     vdW  Elec       q    Type
REMARK                         _______ _______ _______ _____ _____    ______ ____
ROOT
ATOM      1  C   UNL     1       6.991  -2.697  23.447  0.00  0.00    +0.189 C 
ATOM      2  C   UNL     1       8.070  -2.709  24.612  0.00  0.00    +0.049 C 
ATOM      3  C   UNL     1       8.130  -3.967  25.484  0.00  0.00    +0.015 C 
ATOM      4  C   UNL     1       9.520  -2.556  24.133  0.00  0.00    -0.022 C 
ATOM      5  C   UNL     1      10.306  -1.470  24.206  0.00  0.00    +0.000 C 
ATOM      6  C   UNL     1       9.853  -0.064  24.487  0.00  0.00    +0.143 C 
ATOM      7  C   UNL     1       9.768   0.230  26.005  0.00  0.00    +0.067 C 
ATOM      8  C   UNL     1       8.311   0.564  26.365  0.00  0.00    +0.124 C 
ATOM      9  C   UNL     1       7.842   0.133  27.791  0.00  0.00    +0.037 C 
ATOM     10  C   UNL     1       8.432   1.068  28.841  0.00  0.00    +0.014 C 
ATOM     11  C   UNL     1       6.322   0.137  27.844  0.00  0.00    -0.023 C 
ATOM     12  C   UNL     1       5.458  -0.143  28.844  0.00  0.00    +0.000 C 
ATOM     13  C   UNL     1       4.060   0.448  28.718  0.00  0.00    +0.143 C 
ATOM     14  C   UNL     1       3.105   0.626  29.901  0.00  0.00    +0.067 C 
ATOM     15  C   UNL     1       1.827   1.505  29.661  0.00  0.00    +0.127 C 
ATOM     16  C   UNL     1       1.938   3.028  29.234  0.00  0.00    +0.058 C 
ATOM     17  C   UNL     1       2.741   3.803  30.274  0.00  0.00    +0.014 C 
ATOM     18  C   UNL     1       2.356   3.357  27.765  0.00  0.00    +0.214 C 
ATOM     19  C   UNL     1       2.165   4.818  27.223  0.00  0.00    +0.182 C 
ATOM     20  C   UNL     1       3.459   5.495  26.816  0.00  0.00    -0.029 C 
ATOM     21  C   UNL     1       4.665   4.980  27.081  0.00  0.00    +0.093 C 
ATOM     22  C   UNL     1       4.807   3.595  27.445  0.00  0.00    +0.332 C 
ATOM     23  O   UNL     1       5.928   3.109  27.530  0.00  0.00    -0.246 OA
ATOM     24  C   UNL     1       3.436   6.709  25.923  0.00  0.00    +0.065 C 
ATOM     25  C   UNL     1       3.036   6.441  24.436  0.00  0.00    +0.126 C 
ATOM     26  C   UNL     1       3.934   5.481  23.578  0.00  0.00    +0.062 C 
ATOM     27  C   UNL     1       3.964   3.953  23.753  0.00  0.00    -0.070 C 
ATOM     28  C   UNL     1       2.696   3.266  24.193  0.00  0.00    +0.039 C 
ATOM     29  C   UNL     1       5.056   3.219  23.421  0.00  0.00    -0.001 C 
ATOM     30  C   UNL     1       5.222   1.811  23.739  0.00  0.00    +0.007 C 
ATOM     31  C   UNL     1       5.987   0.910  23.097  0.00  0.00    +0.091 C 
ATOM     32  C   UNL     1       6.115  -0.429  23.722  0.00  0.00    +0.332 C 
ATOM     33  O   UNL     1       5.750  -0.639  24.866  0.00  0.00    -0.246 OA
ATOM     34  O   UNL     1       3.676   2.871  27.458  0.00  0.00    -0.455 OA
ATOM     35  O   UNL     1       6.747  -1.335  22.933  0.00  0.00    -0.457 OA
ENDROOT
BRANCH   6  36
ATOM     36  O   UNL     1      10.757   0.843  23.836  0.00  0.00    -0.376 OA
ATOM     37  C   UNL     1      10.280   2.190  23.845  0.00  0.00    +0.194 C 
ENDBRANCH   6  36
BRANCH  25  38
ATOM     38  O   UNL     1       1.633   6.121  24.424  0.00  0.00    -0.379 OA
ATOM     39  C   UNL     1       0.982   6.450  23.209  0.00  0.00    +0.194 C 
ENDBRANCH  25  38
BRANCH  19  40
ATOM     40  O   UNL     1       1.474   5.658  28.141  0.00  0.00    -0.384 OA
ATOM     41  H   UNL     1       1.661   6.575  27.876  0.00  0.00    +0.210 HD
ENDBRANCH  19  40
BRANCH  15  42
ATOM     42  O   UNL     1       0.922   0.774  28.824  0.00  0.00    -0.379 OA
ATOM     43  C   UNL     1       0.447  -0.451  29.357  0.00  0.00    +0.194 C 
ENDBRANCH  15  42
BRANCH  13  44
ATOM     44  O   UNL     1       3.457   0.137  27.465  0.00  0.00    -0.376 OA
ATOM     45  C   UNL     1       3.224  -1.233  27.207  0.00  0.00    +0.194 C 
ENDBRANCH  13  44
BRANCH   8  46
ATOM     46  O   UNL     1       8.090   1.945  26.074  0.00  0.00    -0.391 OA
ATOM     47  H   UNL     1       7.125   2.114  26.123  0.00  0.00    +0.210 HD
ENDBRANCH   8  46
BRANCH   1  48
ATOM     48  C   UNL     1       5.679  -3.573  23.614  0.00  0.00    +0.056 C 
ATOM     49  C   UNL     1       4.430  -2.789  24.060  0.00  0.00    +0.014 C 
BRANCH  48  50
ATOM     50  C   UNL     1       5.256  -4.470  22.388  0.00  0.00    +0.127 C 
BRANCH  50  51
ATOM     51  O   UNL     1       6.349  -4.515  21.448  0.00  0.00    -0.379 OA
ATOM     52  C   UNL     1       6.888  -5.816  21.220  0.00  0.00    +0.194 C 
ENDBRANCH  50  51
BRANCH  50  53
ATOM     53  C   UNL     1       4.736  -5.922  22.653  0.00  0.00    +0.016 C 
ATOM     54  C   UNL     1       5.478  -6.665  23.765  0.00  0.00    +0.010 C 
BRANCH  53  55
ATOM     55  C   UNL     1       3.208  -6.134  22.687  0.00  0.00    +0.013 C 
BRANCH  55  56
ATOM     56  C   UNL     1       2.539  -5.976  24.039  0.00  0.00    +0.075 C 
BRANCH  56  57
ATOM     57  C   UNL     1       1.167  -5.326  23.984  0.00  0.00    +0.139 C 
ATOM     58  O   UNL     1       0.533  -5.193  22.939  0.00  0.00    -0.297 OA
BRANCH  57  59
ATOM     59  C   UNL     1       0.586  -4.943  25.342  0.00  0.00    +0.081 C 
ATOM     60  C   UNL     1       0.848  -3.452  25.563  0.00  0.00    +0.018 C 
BRANCH  59  61
ATOM     61  C   UNL     1       1.135  -5.850  26.459  0.00  0.00    +0.132 C 
BRANCH  61  63
ATOM     62  C   UNL     1       1.052  -8.159  27.269  0.00  0.00    +0.194 C 
ATOM     63  O   UNL     1       0.443  -7.110  26.539  0.00  0.00    -0.379 OA
ENDBRANCH  61  63
BRANCH  61  64
ATOM     64  C   UNL     1       1.149  -5.110  27.820  0.00  0.00    +0.060 C 
BRANCH  64  65
ATOM     65  C   UNL     1       2.426  -5.336  28.577  0.00  0.00    -0.009 C 
ATOM     66  C   UNL     1       3.605  -5.556  27.981  0.00  0.00    +0.073 C 
BRANCH  66  67
ATOM     67  N   UNL     1       4.827  -5.700  28.612  0.00  0.00    -0.284 N 
ATOM     68  C   UNL     1       5.990  -5.862  27.850  0.00  0.00    +0.332 C 
ATOM     69  O   UNL     1       7.123  -5.989  28.299  0.00  0.00    -0.279 OA
ATOM     70  C   UNL     1       4.998  -5.661  30.049  0.00  0.00    +0.137 C 
ENDBRANCH  66  67
ENDBRANCH  64  65
ENDBRANCH  61  64
ENDBRANCH  59  61
ENDBRANCH  57  59
ENDBRANCH  56  57
ENDBRANCH  55  56
ENDBRANCH  53  55
ENDBRANCH  50  53
ENDBRANCH  48  50
ENDBRANCH   1  48
TORSDOF 19
ENDMDL
MODEL 2
REMARK VINA RESULT:      -2.7      2.746      9.640
REMARK  Name = 
REMARK  33 active torsions:
REMARK  status: ('A' for Active; 'I' for Inactive)
REMARK    1  A    between atoms: C_1  and  O_2
REMARK    2  A    between atoms: O_2  and  C_3
REMARK    3  A    between atoms: C_3  and  C_5
REMARK    4  A    between atoms: C_3  and  C_12
REMARK    5  A    between atoms: C_5  and  C_6
REMARK    6  A    between atoms: C_7  and  N_8
REMARK    7  A    between atoms: N_8  and  C_9
REMARK    8  A    between atoms: C_12  and  C_14
REMARK    9  A    between atoms: C_12  and  C_15
REMARK   10  A    between atoms: C_15  and  C_17
REMARK   11  A    between atoms: C_17  and  C_18
REMARK   12  A    between atoms: C_18  and  C_19
REMARK   13  A    between atoms: C_19  and  C_21
REMARK   14  A    between atoms: C_19  and  C_22
REMARK   15  A    between atoms: C_22  and  O_24
REMARK   16  A    between atoms: C_22  and  C_26
REMARK   17  A    between atoms: O_24  and  C_25
REMARK   18  A    between atoms: C_26  and  C_28
REMARK   19  A    between atoms: C_26  and  C_29
REMARK   20  A    between atoms: C_37  and  C_38
REMARK   21  A    between atoms: C_40  and  O_83
REMARK   22  A    between atoms: C_50  and  O_52
REMARK   23  A    between atoms: C_53  and  C_55
REMARK   24  A    between atoms: C_56  and  O_81
REMARK   25  A    between atoms: C_59  and  O_61
REMARK   26  A    between atoms: O_61  and  C_62
REMARK   27  A    between atoms: C_65  and  C_67
REMARK   28  A    between atoms: C_68  and  O_70
REMARK   29  A    between atoms: C_72  and  O_74
REMARK   30  A    between atoms: O_74  and  C_75
REMARK   31  A    between atoms: C_78  and  C_80
REMARK   32  A    between atoms: O_81  and  C_82
REMARK   33  A    between atoms: O_83  and  C_84
REMARK                            x       y       z     vdW  Elec       q    Type
REMARK                         _______ _______ _______ _____ _____    ______ ____
ROOT
ATOM      1  C   UNL     1       7.591   0.465  25.516  0.00  0.00    +0.189 C 
ATOM      2  C   UNL     1       6.756   1.281  26.593  0.00  0.00    +0.049 C 
ATOM      3  C   UNL     1       7.508   1.738  27.847  0.00  0.00    +0.015 C 
ATOM      4  C   UNL     1       6.148   2.587  26.064  0.00  0.00    -0.022 C 
ATOM      5  C   UNL     1       4.869   2.834  25.740  0.00  0.00    +0.000 C 
ATOM      6  C   UNL     1       3.795   1.804  25.522  0.00  0.00    +0.143 C 
ATOM      7  C   UNL     1       3.097   1.398  26.844  0.00  0.00    +0.067 C 
ATOM      8  C   UNL     1       3.338  -0.100  27.092  0.00  0.00    +0.124 C 
ATOM      9  C   UNL     1       3.447  -0.538  28.587  0.00  0.00    +0.037 C 
ATOM     10  C   UNL     1       2.067  -0.539  29.235  0.00  0.00    +0.014 C 
ATOM     11  C   UNL     1       4.091  -1.913  28.663  0.00  0.00    -0.023 C 
ATOM     12  C   UNL     1       4.383  -2.712  29.714  0.00  0.00    +0.000 C 
ATOM     13  C   UNL     1       4.537  -4.197  29.416  0.00  0.00    +0.143 C 
ATOM     14  C   UNL     1       4.425  -5.292  30.480  0.00  0.00    +0.067 C 
ATOM     15  C   UNL     1       4.320  -6.773  29.973  0.00  0.00    +0.127 C 
ATOM     16  C   UNL     1       3.129  -7.247  29.040  0.00  0.00    +0.058 C 
ATOM     17  C   UNL     1       1.794  -6.989  29.730  0.00  0.00    +0.014 C 
ATOM     18  C   UNL     1       3.141  -6.807  27.541  0.00  0.00    +0.214 C 
ATOM     19  C   UNL     1       2.170  -7.512  26.528  0.00  0.00    +0.182 C 
ATOM     20  C   UNL     1       1.167  -6.573  25.887  0.00  0.00    -0.029 C 
ATOM     21  C   UNL     1       0.988  -5.311  26.292  0.00  0.00    +0.093 C 
ATOM     22  C   UNL     1       1.974  -4.657  27.114  0.00  0.00    +0.332 C 
ATOM     23  O   UNL     1       1.866  -3.460  27.341  0.00  0.00    -0.246 OA
ATOM     24  C   UNL     1       0.444  -6.976  24.628  0.00  0.00    +0.065 C 
ATOM     25  C   UNL     1       1.321  -7.021  23.335  0.00  0.00    +0.126 C 
ATOM     26  C   UNL     1       2.010  -5.698  22.849  0.00  0.00    +0.062 C 
ATOM     27  C   UNL     1       3.225  -5.061  23.544  0.00  0.00    -0.070 C 
ATOM     28  C   UNL     1       4.215  -5.976  24.218  0.00  0.00    +0.039 C 
ATOM     29  C   UNL     1       3.472  -3.729  23.468  0.00  0.00    -0.001 C 
ATOM     30  C   UNL     1       4.481  -3.038  24.253  0.00  0.00    +0.007 C 
ATOM     31  C   UNL     1       5.110  -1.888  23.952  0.00  0.00    +0.091 C 
ATOM     32  C   UNL     1       5.979  -1.302  25.001  0.00  0.00    +0.332 C 
ATOM     33  O   UNL     1       5.948  -1.700  26.152  0.00  0.00    -0.246 OA
ATOM     34  O   UNL     1       3.072  -5.376  27.398  0.00  0.00    -0.455 OA
ATOM     35  O   UNL     1       6.718  -0.250  24.565  0.00  0.00    -0.457 OA
ENDROOT
BRANCH   6  36
ATOM     36  O   UNL     1       2.846   2.329  24.579  0.00  0.00    -0.376 OA
ATOM     37  C   UNL     1       1.961   3.283  25.169  0.00  0.00    +0.194 C 
ENDBRANCH   6  36
BRANCH  25  38
ATOM     38  O   UNL     1       2.206  -8.149  23.461  0.00  0.00    -0.379 OA
ATOM     39  C   UNL     1       1.536  -9.397  23.515  0.00  0.00    +0.194 C 
ENDBRANCH  25  38
BRANCH  19  40
ATOM     40  O   UNL     1       1.472  -8.607  27.109  0.00  0.00    -0.384 OA
ATOM     41  H   UNL     1       0.544  -8.527  26.827  0.00  0.00    +0.210 HD
ENDBRANCH  19  40
BRANCH  15  42
ATOM     42  O   UNL     1       5.598  -7.169  29.459  0.00  0.00    -0.379 OA
ATOM     43  C   UNL     1       6.699  -6.969  30.331  0.00  0.00    +0.194 C 
ENDBRANCH  15  42
BRANCH  13  44
ATOM     44  O   UNL     1       5.463  -4.439  28.361  0.00  0.00    -0.376 OA
ATOM     45  C   UNL     1       6.713  -3.788  28.466  0.00  0.00    +0.194 C 
ENDBRANCH  13  44
BRANCH   8  46
ATOM     46  O   UNL     1       2.366  -0.833  26.343  0.00  0.00    -0.391 OA
ATOM     47  H   UNL     1       2.373  -1.760  26.663  0.00  0.00    +0.210 HD
ENDBRANCH   8  46
BRANCH   1  48
ATOM     48  C   UNL     1       8.846  -0.374  26.002  0.00  0.00    +0.056 C 
ATOM     49  C   UNL     1       8.535  -1.451  27.059  0.00  0.00    +0.014 C 
BRANCH  48  50
ATOM     50  C   UNL     1       9.729  -1.054  24.886  0.00  0.00    +0.127 C 
BRANCH  50  51
ATOM     51  O   UNL     1       9.097  -2.286  24.483  0.00  0.00    -0.379 OA
ATOM     52  C   UNL     1       9.989  -3.384  24.299  0.00  0.00    +0.194 C 
ENDBRANCH  50  51
BRANCH  50  53
ATOM     53  C   UNL     1      10.117  -0.228  23.615  0.00  0.00    +0.016 C 
ATOM     54  C   UNL     1       9.064  -0.245  22.505  0.00  0.00    +0.010 C 
BRANCH  53  55
ATOM     55  C   UNL     1      10.751   1.162  23.837  0.00  0.00    +0.013 C 
BRANCH  55  56
ATOM     56  C   UNL     1      10.174   2.300  23.018  0.00  0.00    +0.075 C 
BRANCH  56  57
ATOM     57  C   UNL     1      10.386   3.677  23.627  0.00  0.00    +0.139 C 
ATOM     58  O   UNL     1      11.450   4.286  23.543  0.00  0.00    -0.297 OA
BRANCH  57  59
ATOM     59  C   UNL     1       9.143   4.292  24.263  0.00  0.00    +0.081 C 
ATOM     60  C   UNL     1       7.950   3.988  23.356  0.00  0.00    +0.018 C 
BRANCH  59  61
ATOM     61  C   UNL     1       9.348   5.791  24.551  0.00  0.00    +0.132 C 
BRANCH  61  63
ATOM     62  C   UNL     1      10.971   7.051  25.884  0.00  0.00    +0.194 C 
ATOM     63  O   UNL     1       9.994   6.029  25.816  0.00  0.00    -0.379 OA
ENDBRANCH  61  63
BRANCH  61  64
ATOM     64  C   UNL     1       8.014   6.568  24.428  0.00  0.00    +0.060 C 
BRANCH  64  65
ATOM     65  C   UNL     1       7.393   6.849  25.766  0.00  0.00    -0.009 C 
ATOM     66  C   UNL     1       6.587   5.986  26.398  0.00  0.00    +0.073 C 
BRANCH  66  67
ATOM     67  N   UNL     1       6.041   6.149  27.658  0.00  0.00    -0.284 N 
ATOM     68  C   UNL     1       6.522   5.386  28.729  0.00  0.00    +0.332 C 
ATOM     69  O   UNL     1       6.121   5.452  29.885  0.00  0.00    -0.279 OA
ATOM     70  C   UNL     1       4.998   7.104  27.963  0.00  0.00    +0.137 C 
ENDBRANCH  66  67
ENDBRANCH  64  65
ENDBRANCH  61  64
ENDBRANCH  59  61
ENDBRANCH  57  59
ENDBRANCH  56  57
ENDBRANCH  55  56
ENDBRANCH  53  55
ENDBRANCH  50  53
ENDBRANCH  48  50
ENDBRANCH   1  48
TORSDOF 19
ENDMDL
MODEL 3
REMARK VINA RESULT:      -2.7      1.566      2.613
REMARK  Name = 
REMARK  33 active torsions:
REMARK  status: ('A' for Active; 'I' for Inactive)
REMARK    1  A    between atoms: C_1  and  O_2
REMARK    2  A    between atoms: O_2  and  C_3
REMARK    3  A    between atoms: C_3  and  C_5
REMARK    4  A    between atoms: C_3  and  C_12
REMARK    5  A    between atoms: C_5  and  C_6
REMARK    6  A    between atoms: C_7  and  N_8
REMARK    7  A    between atoms: N_8  and  C_9
REMARK    8  A    between atoms: C_12  and  C_14
REMARK    9  A    between atoms: C_12  and  C_15
REMARK   10  A    between atoms: C_15  and  C_17
REMARK   11  A    between atoms: C_17  and  C_18
REMARK   12  A    between atoms: C_18  and  C_19
REMARK   13  A    between atoms: C_19  and  C_21
REMARK   14  A    between atoms: C_19  and  C_22
REMARK   15  A    between atoms: C_22  and  O_24
REMARK   16  A    between atoms: C_22  and  C_26
REMARK   17  A    between atoms: O_24  and  C_25
REMARK   18  A    between atoms: C_26  and  C_28
REMARK   19  A    between atoms: C_26  and  C_29
REMARK   20  A    between atoms: C_37  and  C_38
REMARK   21  A    between atoms: C_40  and  O_83
REMARK   22  A    between atoms: C_50  and  O_52
REMARK   23  A    between atoms: C_53  and  C_55
REMARK   24  A    between atoms: C_56  and  O_81
REMARK   25  A    between atoms: C_59  and  O_61
REMARK   26  A    between atoms: O_61  and  C_62
REMARK   27  A    between atoms: C_65  and  C_67
REMARK   28  A    between atoms: C_68  and  O_70
REMARK   29  A    between atoms: C_72  and  O_74
REMARK   30  A    between atoms: O_74  and  C_75
REMARK   31  A    between atoms: C_78  and  C_80
REMARK   32  A    between atoms: O_81  and  C_82
REMARK   33  A    between atoms: O_83  and  C_84
REMARK                            x       y       z     vdW  Elec       q    Type
REMARK                         _______ _______ _______ _____ _____    ______ ____
ROOT
ATOM      1  C   UNL     1       7.254  -2.706  23.195  0.00  0.00    +0.189 C 
ATOM      2  C   UNL     1       8.243  -2.704  24.438  0.00  0.00    +0.049 C 
ATOM      3  C   UNL     1       8.238  -3.952  25.326  0.00  0.00    +0.015 C 
ATOM      4  C   UNL     1       9.724  -2.555  24.067  0.00  0.00    -0.022 C 
ATOM      5  C   UNL     1      10.503  -1.468  24.187  0.00  0.00    +0.000 C 
ATOM      6  C   UNL     1      10.030  -0.059  24.418  0.00  0.00    +0.143 C 
ATOM      7  C   UNL     1       9.832   0.252  25.922  0.00  0.00    +0.067 C 
ATOM      8  C   UNL     1       8.352   0.588  26.168  0.00  0.00    +0.124 C 
ATOM      9  C   UNL     1       7.777   0.173  27.559  0.00  0.00    +0.037 C 
ATOM     10  C   UNL     1       8.287   1.119  28.640  0.00  0.00    +0.014 C 
ATOM     11  C   UNL     1       6.258   0.175  27.498  0.00  0.00    -0.023 C 
ATOM     12  C   UNL     1       5.321  -0.095  28.434  0.00  0.00    +0.000 C 
ATOM     13  C   UNL     1       3.936   0.494  28.197  0.00  0.00    +0.143 C 
ATOM     14  C   UNL     1       2.895   0.684  29.303  0.00  0.00    +0.067 C 
ATOM     15  C   UNL     1       1.639   1.559  28.959  0.00  0.00    +0.127 C 
ATOM     16  C   UNL     1       1.782   3.077  28.524  0.00  0.00    +0.058 C 
ATOM     17  C   UNL     1       2.505   3.865  29.612  0.00  0.00    +0.014 C 
ATOM     18  C   UNL     1       2.308   3.391  27.087  0.00  0.00    +0.214 C 
ATOM     19  C   UNL     1       2.158   4.846  26.516  0.00  0.00    +0.182 C 
ATOM     20  C   UNL     1       3.479   5.519  26.199  0.00  0.00    -0.029 C 
ATOM     21  C   UNL     1       4.662   5.009  26.559  0.00  0.00    +0.093 C 
ATOM     22  C   UNL     1       4.777   3.627  26.949  0.00  0.00    +0.332 C 
ATOM     23  O   UNL     1       5.888   3.144  27.122  0.00  0.00    -0.246 OA
ATOM     24  C   UNL     1       3.522   6.723  25.294  0.00  0.00    +0.065 C 
ATOM     25  C   UNL     1       3.235   6.438  23.784  0.00  0.00    +0.126 C 
ATOM     26  C   UNL     1       4.194   5.470  23.007  0.00  0.00    +0.062 C 
ATOM     27  C   UNL     1       4.212   3.944  23.200  0.00  0.00    -0.070 C 
ATOM     28  C   UNL     1       2.915   3.261  23.552  0.00  0.00    +0.039 C 
ATOM     29  C   UNL     1       5.325   3.208  22.959  0.00  0.00    -0.001 C 
ATOM     30  C   UNL     1       5.468   1.803  23.304  0.00  0.00    +0.007 C 
ATOM     31  C   UNL     1       6.279   0.895  22.732  0.00  0.00    +0.091 C 
ATOM     32  C   UNL     1       6.360  -0.436  23.379  0.00  0.00    +0.332 C 
ATOM     33  O   UNL     1       5.910  -0.634  24.494  0.00  0.00    -0.246 OA
ATOM     34  O   UNL     1       3.647   2.902  26.885  0.00  0.00    -0.455 OA
ATOM     35  O   UNL     1       7.049  -1.350  22.649  0.00  0.00    -0.457 OA
ENDROOT
BRANCH   6  36
ATOM     36  O   UNL     1      10.980   0.842  23.825  0.00  0.00    -0.376 OA
ATOM     37  C   UNL     1      10.408   2.114  23.518  0.00  0.00    +0.194 C 
ENDBRANCH   6  36
BRANCH  25  38
ATOM     38  O   UNL     1       1.837   6.117  23.671  0.00  0.00    -0.379 OA
ATOM     39  C   UNL     1       1.180   6.791  22.611  0.00  0.00    +0.194 C 
ENDBRANCH  25  38
BRANCH  19  40
ATOM     40  O   UNL     1       1.400   5.695  27.371  0.00  0.00    -0.384 OA
ATOM     41  H   UNL     1       1.776   5.599  28.263  0.00  0.00    +0.210 HD
ENDBRANCH  19  40
BRANCH  15  42
ATOM     42  O   UNL     1       0.800   0.819  28.065  0.00  0.00    -0.379 OA
ATOM     43  C   UNL     1       0.443  -0.485  28.495  0.00  0.00    +0.194 C 
ENDBRANCH  15  42
BRANCH  13  44
ATOM     44  O   UNL     1       3.430   0.169  26.906  0.00  0.00    -0.376 OA
ATOM     45  C   UNL     1       3.124  -1.192  26.680  0.00  0.00    +0.194 C 
ENDBRANCH  13  44
BRANCH   8  46
ATOM     46  O   UNL     1       8.153   1.966  25.846  0.00  0.00    -0.391 OA
ATOM     47  H   UNL     1       8.065   2.464  26.687  0.00  0.00    +0.210 HD
ENDBRANCH   8  46
BRANCH   1  48
ATOM     48  C   UNL     1       5.934  -3.581  23.273  0.00  0.00    +0.056 C 
ATOM     49  C   UNL     1       4.734  -3.015  22.490  0.00  0.00    +0.014 C 
BRANCH  48  50
ATOM     50  C   UNL     1       6.062  -5.106  22.895  0.00  0.00    +0.127 C 
BRANCH  50  51
ATOM     51  O   UNL     1       7.367  -5.334  22.325  0.00  0.00    -0.379 OA
ATOM     52  C   UNL     1       7.359  -5.798  20.976  0.00  0.00    +0.194 C 
ENDBRANCH  50  51
BRANCH  50  53
ATOM     53  C   UNL     1       5.775  -6.188  23.989  0.00  0.00    +0.016 C 
ATOM     54  C   UNL     1       6.644  -6.064  25.242  0.00  0.00    +0.010 C 
BRANCH  53  55
ATOM     55  C   UNL     1       4.298  -6.513  24.296  0.00  0.00    +0.013 C 
BRANCH  55  56
ATOM     56  C   UNL     1       3.955  -6.759  25.753  0.00  0.00    +0.075 C 
BRANCH  56  57
ATOM     57  C   UNL     1       3.313  -5.572  26.452  0.00  0.00    +0.139 C 
ATOM     58  O   UNL     1       3.224  -4.461  25.933  0.00  0.00    -0.297 OA
BRANCH  57  59
ATOM     59  C   UNL     1       2.691  -5.889  27.808  0.00  0.00    +0.081 C 
ATOM     60  C   UNL     1       3.682  -6.751  28.591  0.00  0.00    +0.018 C 
BRANCH  59  61
ATOM     61  C   UNL     1       1.296  -6.521  27.648  0.00  0.00    +0.132 C 
BRANCH  61  63
ATOM     62  C   UNL     1       0.529  -8.616  28.657  0.00  0.00    +0.194 C 
ATOM     63  O   UNL     1       1.331  -7.960  27.693  0.00  0.00    -0.379 OA
ENDBRANCH  61  63
BRANCH  61  64
ATOM     64  C   UNL     1       0.593  -6.000  26.370  0.00  0.00    +0.060 C 
BRANCH  64  65
ATOM     65  C   UNL     1       0.494  -7.053  25.305  0.00  0.00    -0.009 C 
ATOM     66  C   UNL     1       0.513  -6.777  23.994  0.00  0.00    +0.073 C 
BRANCH  66  67
ATOM     67  N   UNL     1       0.498  -7.699  22.963  0.00  0.00    -0.284 N 
ATOM     68  C   UNL     1       0.468  -9.068  23.255  0.00  0.00    +0.332 C 
ATOM     69  O   UNL     1       0.443  -9.971  22.426  0.00  0.00    -0.279 OA
ATOM     70  C   UNL     1       0.479  -7.337  21.562  0.00  0.00    +0.137 C 
ENDBRANCH  66  67
ENDBRANCH  64  65
ENDBRANCH  61  64
ENDBRANCH  59  61
ENDBRANCH  57  59
ENDBRANCH  56  57
ENDBRANCH  55  56
ENDBRANCH  53  55
ENDBRANCH  50  53
ENDBRANCH  48  50
ENDBRANCH   1  48
TORSDOF 19
ENDMDL
MODEL 4
REMARK VINA RESULT:      -2.2      2.090      4.571
REMARK  Name = 
REMARK  33 active torsions:
REMARK  status: ('A' for Active; 'I' for Inactive)
REMARK    1  A    between atoms: C_1  and  O_2
REMARK    2  A    between atoms: O_2  and  C_3
REMARK    3  A    between atoms: C_3  and  C_5
REMARK    4  A    between atoms: C_3  and  C_12
REMARK    5  A    between atoms: C_5  and  C_6
REMARK    6  A    between atoms: C_7  and  N_8
REMARK    7  A    between atoms: N_8  and  C_9
REMARK    8  A    between atoms: C_12  and  C_14
REMARK    9  A    between atoms: C_12  and  C_15
REMARK   10  A    between atoms: C_15  and  C_17
REMARK   11  A    between atoms: C_17  and  C_18
REMARK   12  A    between atoms: C_18  and  C_19
REMARK   13  A    between atoms: C_19  and  C_21
REMARK   14  A    between atoms: C_19  and  C_22
REMARK   15  A    between atoms: C_22  and  O_24
REMARK   16  A    between atoms: C_22  and  C_26
REMARK   17  A    between atoms: O_24  and  C_25
REMARK   18  A    between atoms: C_26  and  C_28
REMARK   19  A    between atoms: C_26  and  C_29
REMARK   20  A    between atoms: C_37  and  C_38
REMARK   21  A    between atoms: C_40  and  O_83
REMARK   22  A    between atoms: C_50  and  O_52
REMARK   23  A    between atoms: C_53  and  C_55
REMARK   24  A    between atoms: C_56  and  O_81
REMARK   25  A    between atoms: C_59  and  O_61
REMARK   26  A    between atoms: O_61  and  C_62
REMARK   27  A    between atoms: C_65  and  C_67
REMARK   28  A    between atoms: C_68  and  O_70
REMARK   29  A    between atoms: C_72  and  O_74
REMARK   30  A    between atoms: O_74  and  C_75
REMARK   31  A    between atoms: C_78  and  C_80
REMARK   32  A    between atoms: O_81  and  C_82
REMARK   33  A    between atoms: O_83  and  C_84
REMARK                            x       y       z     vdW  Elec       q    Type
REMARK                         _______ _______ _______ _____ _____    ______ ____
ROOT
ATOM      1  C   UNL     1       5.283  -3.539  25.881  0.00  0.00    +0.189 C 
ATOM      2  C   UNL     1       6.326  -3.450  27.076  0.00  0.00    +0.049 C 
ATOM      3  C   UNL     1       6.025  -4.293  28.319  0.00  0.00    +0.015 C 
ATOM      4  C   UNL     1       7.750  -3.884  26.706  0.00  0.00    -0.022 C 
ATOM      5  C   UNL     1       8.821  -3.106  26.483  0.00  0.00    +0.000 C 
ATOM      6  C   UNL     1       8.804  -1.622  26.237  0.00  0.00    +0.143 C 
ATOM      7  C   UNL     1       8.829  -0.811  27.556  0.00  0.00    +0.067 C 
ATOM      8  C   UNL     1       7.539   0.019  27.653  0.00  0.00    +0.124 C 
ATOM      9  C   UNL     1       6.982   0.256  29.092  0.00  0.00    +0.037 C 
ATOM     10  C   UNL     1       7.834   1.291  29.819  0.00  0.00    +0.014 C 
ATOM     11  C   UNL     1       5.531   0.702  29.005  0.00  0.00    -0.023 C 
ATOM     12  C   UNL     1       4.636   1.038  29.959  0.00  0.00    +0.000 C 
ATOM     13  C   UNL     1       3.471   1.915  29.519  0.00  0.00    +0.143 C 
ATOM     14  C   UNL     1       2.626   2.750  30.484  0.00  0.00    +0.067 C 
ATOM     15  C   UNL     1       1.659   3.812  29.852  0.00  0.00    +0.127 C 
ATOM     16  C   UNL     1       2.206   4.998  28.953  0.00  0.00    +0.058 C 
ATOM     17  C   UNL     1       3.215   5.827  29.743  0.00  0.00    +0.014 C 
ATOM     18  C   UNL     1       2.683   4.670  27.502  0.00  0.00    +0.214 C 
ATOM     19  C   UNL     1       2.922   5.846  26.489  0.00  0.00    +0.182 C 
ATOM     20  C   UNL     1       4.352   5.950  25.997  0.00  0.00    -0.029 C 
ATOM     21  C   UNL     1       5.358   5.243  26.526  0.00  0.00    +0.093 C 
ATOM     22  C   UNL     1       5.092   4.088  27.342  0.00  0.00    +0.332 C 
ATOM     23  O   UNL     1       6.022   3.368  27.684  0.00  0.00    -0.246 OA
ATOM     24  C   UNL     1       4.674   6.736  24.753  0.00  0.00    +0.065 C 
ATOM     25  C   UNL     1       4.195   6.095  23.411  0.00  0.00    +0.126 C 
ATOM     26  C   UNL     1       4.760   4.688  23.006  0.00  0.00    +0.062 C 
ATOM     27  C   UNL     1       4.343   3.371  23.682  0.00  0.00    -0.070 C 
ATOM     28  C   UNL     1       2.935   3.262  24.210  0.00  0.00    +0.039 C 
ATOM     29  C   UNL     1       5.167   2.294  23.713  0.00  0.00    -0.001 C 
ATOM     30  C   UNL     1       4.917   1.095  24.496  0.00  0.00    +0.007 C 
ATOM     31  C   UNL     1       5.376  -0.148  24.262  0.00  0.00    +0.091 C 
ATOM     32  C   UNL     1       5.114  -1.168  25.306  0.00  0.00    +0.332 C 
ATOM     33  O   UNL     1       4.718  -0.859  26.417  0.00  0.00    -0.246 OA
ATOM     34  O   UNL     1       3.798   3.759  27.495  0.00  0.00    -0.455 OA
ATOM     35  O   UNL     1       5.442  -2.428  24.924  0.00  0.00    -0.457 OA
ENDROOT
BRANCH   6  36
ATOM     36  O   UNL     1       9.926  -1.286  25.404  0.00  0.00    -0.376 OA
ATOM     37  C   UNL     1      10.145   0.123  25.325  0.00  0.00    +0.194 C 
ENDBRANCH   6  36
BRANCH  25  38
ATOM     38  O   UNL     1       2.759   6.197  23.381  0.00  0.00    -0.379 OA
ATOM     39  C   UNL     1       2.200   6.015  22.091  0.00  0.00    +0.194 C 
ENDBRANCH  25  38
BRANCH  19  40
ATOM     40  O   UNL     1       2.519   7.108  27.010  0.00  0.00    -0.384 OA
ATOM     41  H   UNL     1       2.810   7.132  27.938  0.00  0.00    +0.210 HD
ENDBRANCH  19  40
BRANCH  15  42
ATOM     42  O   UNL     1       0.569   3.122  29.229  0.00  0.00    -0.379 OA
ATOM     43  C   UNL     1       0.444   3.308  27.829  0.00  0.00    +0.194 C 
ENDBRANCH  15  42
BRANCH  13  44
ATOM     44  O   UNL     1       2.788   1.373  28.393  0.00  0.00    -0.376 OA
ATOM     45  C   UNL     1       2.194   0.104  28.574  0.00  0.00    +0.194 C 
ENDBRANCH  13  44
BRANCH   8  46
ATOM     46  O   UNL     1       7.729   1.219  26.899  0.00  0.00    -0.391 OA
ATOM     47  H   UNL     1       7.781   0.976  25.950  0.00  0.00    +0.210 HD
ENDBRANCH   8  46
BRANCH   1  48
ATOM     48  C   UNL     1       3.774  -3.900  26.213  0.00  0.00    +0.056 C 
ATOM     49  C   UNL     1       2.770  -3.579  25.089  0.00  0.00    +0.014 C 
BRANCH  48  50
ATOM     50  C   UNL     1       3.479  -5.371  26.698  0.00  0.00    +0.127 C 
BRANCH  50  51
ATOM     51  O   UNL     1       2.817  -5.312  27.977  0.00  0.00    -0.379 OA
ATOM     52  C   UNL     1       2.783  -6.547  28.691  0.00  0.00    +0.194 C 
ENDBRANCH  50  51
BRANCH  50  53
ATOM     53  C   UNL     1       2.699  -6.342  25.751  0.00  0.00    +0.016 C 
ATOM     54  C   UNL     1       1.355  -5.800  25.259  0.00  0.00    +0.010 C 
BRANCH  53  55
ATOM     55  C   UNL     1       3.507  -7.066  24.653  0.00  0.00    +0.013 C 
BRANCH  55  56
ATOM     56  C   UNL     1       4.005  -6.204  23.509  0.00  0.00    +0.075 C 
BRANCH  56  57
ATOM     57  C   UNL     1       5.509  -5.985  23.502  0.00  0.00    +0.139 C 
ATOM     58  O   UNL     1       6.237  -6.332  24.429  0.00  0.00    -0.297 OA
BRANCH  57  59
ATOM     59  C   UNL     1       6.062  -5.395  22.209  0.00  0.00    +0.081 C 
ATOM     60  C   UNL     1       7.456  -5.982  21.981  0.00  0.00    +0.018 C 
BRANCH  59  61
ATOM     61  C   UNL     1       6.026  -3.856  22.238  0.00  0.00    +0.132 C 
BRANCH  61  63
ATOM     62  C   UNL     1       5.824  -3.803  19.798  0.00  0.00    +0.194 C 
ATOM     63  O   UNL     1       5.424  -3.293  21.057  0.00  0.00    -0.379 OA
ENDBRANCH  61  63
BRANCH  61  64
ATOM     64  C   UNL     1       7.436  -3.271  22.503  0.00  0.00    +0.060 C 
BRANCH  64  65
ATOM     65  C   UNL     1       7.499  -1.794  22.239  0.00  0.00    -0.009 C 
ATOM     66  C   UNL     1       8.618  -1.071  22.374  0.00  0.00    +0.073 C 
BRANCH  66  67
ATOM     67  N   UNL     1       8.764   0.272  22.079  0.00  0.00    -0.284 N 
ATOM     68  C   UNL     1      10.037   0.855  22.099  0.00  0.00    +0.332 C 
ATOM     69  O   UNL     1      10.287   2.028  21.847  0.00  0.00    -0.279 OA
ATOM     70  C   UNL     1       7.664   1.138  21.710  0.00  0.00    +0.137 C 
ENDBRANCH  66  67
ENDBRANCH  64  65
ENDBRANCH  61  64
ENDBRANCH  59  61
ENDBRANCH  57  59
ENDBRANCH  56  57
ENDBRANCH  55  56
ENDBRANCH  53  55
ENDBRANCH  50  53
ENDBRANCH  48  50
ENDBRANCH   1  48
TORSDOF 19
ENDMDL
