MODEL 1
REMARK VINA RESULT:      -5.3      0.000      0.000
REMARK  Name = 
REMARK  7 active torsions:
REMARK  status: ('A' for Active; 'I' for Inactive)
REMARK    1  A    between atoms: C_1  and  C_2
REMARK    2  A    between atoms: C_2  and  C_3
REMARK    3  A    between atoms: C_3  and  C_4
REMARK    4  A    between atoms: C_4  and  C_5
REMARK    5  A    between atoms: C_4  and  C_6
REMARK    6  A    between atoms: C_6  and  C_7
REMARK    7  A    between atoms: C_7  and  C_8
REMARK                            x       y       z     vdW  Elec       q    Type
REMARK                         _______ _______ _______ _____ _____    ______ ____
ROOT
ATOM      1  C   UNL     1       7.757  -4.136  24.568  0.00  0.00    +0.129 C 
ATOM      2  C   UNL     1       6.293  -4.082  24.989  0.00  0.00    +0.234 C 
ATOM      3  O   UNL     1       5.398  -3.591  24.301  0.00  0.00    -0.274 OA
ATOM      4  N   UNL     1       6.002  -4.525  26.251  0.00  0.00    -0.267 N 
ATOM      5  H   UNL     1       5.050  -4.379  26.563  0.00  0.00    +0.157 HD
ATOM      6  C   UNL     1       6.793  -5.340  26.997  0.00  0.00    +0.143 C 
ATOM      7  S   UNL     1       6.296  -5.905  28.478  0.00  0.00    -0.018 S 
ATOM      8  N   UNL     1       7.993  -5.696  26.470  0.00  0.00    -0.267 N 
ATOM      9  H   UNL     1       8.549  -6.377  26.971  0.00  0.00    +0.157 HD
ATOM     10  C   UNL     1       8.509  -5.264  25.274  0.00  0.00    +0.234 C 
ATOM     11  O   UNL     1       9.574  -5.727  24.871  0.00  0.00    -0.274 OA
ENDROOT
BRANCH   1  12
ATOM     12  C   UNL     1       8.461  -2.756  24.945  0.00  0.00    +0.010 C 
ATOM     13  C   UNL     1       7.502  -1.551  24.964  0.00  0.00    +0.009 C 
BRANCH  12  14
ATOM     14  C   UNL     1       9.679  -2.441  24.032  0.00  0.00    +0.004 C 
BRANCH  14  16
ATOM     15  C   UNL     1       9.677  -1.090  21.918  0.00  0.00    +0.004 C 
ATOM     16  C   UNL     1       9.707  -1.029  23.440  0.00  0.00    -0.003 C 
ENDBRANCH  14  16
ENDBRANCH  12  14
ENDBRANCH   1  12
BRANCH   1  17
ATOM     17  C   UNL     1       7.858  -4.380  23.032  0.00  0.00    +0.052 C 
BRANCH  17  18
ATOM     18  C   UNL     1       7.289  -5.686  22.528  0.00  0.00    -0.033 C 
ATOM     19  C   UNL     1       6.497  -5.772  21.452  0.00  0.00    +0.004 C 
ENDBRANCH  17  18
ENDBRANCH   1  17
TORSDOF 5
ENDMDL
MODEL 2
REMARK VINA RESULT:      -5.1      2.815      4.690
REMARK  Name = 
REMARK  7 active torsions:
REMARK  status: ('A' for Active; 'I' for Inactive)
REMARK    1  A    between atoms: C_1  and  C_2
REMARK    2  A    between atoms: C_2  and  C_3
REMARK    3  A    between atoms: C_3  and  C_4
REMARK    4  A    between atoms: C_4  and  C_5
REMARK    5  A    between atoms: C_4  and  C_6
REMARK    6  A    between atoms: C_6  and  C_7
REMARK    7  A    between atoms: C_7  and  C_8
REMARK                            x       y       z     vdW  Elec       q    Type
REMARK                         _______ _______ _______ _____ _____    ______ ____
ROOT
ATOM      1  C   UNL     1       7.328  -3.800  24.053  0.00  0.00    +0.129 C 
ATOM      2  C   UNL     1       8.837  -3.966  24.190  0.00  0.00    +0.234 C 
ATOM      3  O   UNL     1       9.384  -5.015  24.529  0.00  0.00    -0.274 OA
ATOM      4  N   UNL     1       9.595  -2.841  24.013  0.00  0.00    -0.267 N 
ATOM      5  H   UNL     1      10.582  -2.935  24.219  0.00  0.00    +0.157 HD
ATOM      6  C   UNL     1       9.190  -1.716  23.369  0.00  0.00    +0.143 C 
ATOM      7  S   UNL     1      10.228  -0.443  23.117  0.00  0.00    -0.018 S 
ATOM      8  N   UNL     1       7.910  -1.686  22.915  0.00  0.00    -0.267 N 
ATOM      9  H   UNL     1       7.625  -0.895  22.350  0.00  0.00    +0.157 HD
ATOM     10  C   UNL     1       6.967  -2.667  23.093  0.00  0.00    +0.234 C 
ATOM     11  O   UNL     1       5.865  -2.553  22.560  0.00  0.00    -0.274 OA
ENDROOT
BRANCH   1  12
ATOM     12  C   UNL     1       6.707  -3.460  25.482  0.00  0.00    +0.010 C 
ATOM     13  C   UNL     1       7.678  -2.725  26.426  0.00  0.00    +0.009 C 
BRANCH  12  14
ATOM     14  C   UNL     1       6.134  -4.717  26.196  0.00  0.00    +0.004 C 
BRANCH  14  16
ATOM     15  C   UNL     1       6.224  -5.942  28.383  0.00  0.00    +0.004 C 
ATOM     16  C   UNL     1       7.049  -5.348  27.248  0.00  0.00    -0.003 C 
ENDBRANCH  14  16
ENDBRANCH  12  14
ENDBRANCH   1  12
BRANCH   1  17
ATOM     17  C   UNL     1       6.698  -5.114  23.502  0.00  0.00    +0.052 C 
BRANCH  17  18
ATOM     18  C   UNL     1       7.173  -5.556  22.137  0.00  0.00    -0.033 C 
ATOM     19  C   UNL     1       6.342  -5.788  21.112  0.00  0.00    +0.004 C 
ENDBRANCH  17  18
ENDBRANCH   1  17
TORSDOF 5
ENDMDL
MODEL 3
REMARK VINA RESULT:      -5.1      1.169      3.579
REMARK  Name = 
REMARK  7 active torsions:
REMARK  status: ('A' for Active; 'I' for Inactive)
REMARK    1  A    between atoms: C_1  and  C_2
REMARK    2  A    between atoms: C_2  and  C_3
REMARK    3  A    between atoms: C_3  and  C_4
REMARK    4  A    between atoms: C_4  and  C_5
REMARK    5  A    between atoms: C_4  and  C_6
REMARK    6  A    between atoms: C_6  and  C_7
REMARK    7  A    between atoms: C_7  and  C_8
REMARK                            x       y       z     vdW  Elec       q    Type
REMARK                         _______ _______ _______ _____ _____    ______ ____
ROOT
ATOM      1  C   UNL     1       8.055  -3.732  25.042  0.00  0.00    +0.129 C 
ATOM      2  C   UNL     1       8.579  -5.103  25.455  0.00  0.00    +0.234 C 
ATOM      3  O   UNL     1       9.533  -5.664  24.916  0.00  0.00    -0.274 OA
ATOM      4  N   UNL     1       7.867  -5.766  26.417  0.00  0.00    -0.267 N 
ATOM      5  H   UNL     1       8.154  -6.719  26.602  0.00  0.00    +0.157 HD
ATOM      6  C   UNL     1       7.001  -5.187  27.289  0.00  0.00    +0.143 C 
ATOM      7  S   UNL     1       6.266  -6.069  28.490  0.00  0.00    -0.018 S 
ATOM      8  N   UNL     1       6.781  -3.853  27.155  0.00  0.00    -0.267 N 
ATOM      9  H   UNL     1       6.214  -3.393  27.856  0.00  0.00    +0.157 HD
ATOM     10  C   UNL     1       7.312  -3.041  26.185  0.00  0.00    +0.234 C 
ATOM     11  O   UNL     1       7.099  -1.831  26.224  0.00  0.00    -0.274 OA
ENDROOT
BRANCH   1  12
ATOM     12  C   UNL     1       7.044  -3.904  23.822  0.00  0.00    +0.010 C 
ATOM     13  C   UNL     1       5.700  -3.177  24.016  0.00  0.00    +0.009 C 
BRANCH  12  14
ATOM     14  C   UNL     1       6.785  -5.397  23.470  0.00  0.00    +0.004 C 
BRANCH  14  16
ATOM     15  C   UNL     1       6.205  -5.639  21.042  0.00  0.00    +0.004 C 
ATOM     16  C   UNL     1       7.287  -5.843  22.095  0.00  0.00    -0.003 C 
ENDBRANCH  14  16
ENDBRANCH  12  14
ENDBRANCH   1  12
BRANCH   1  17
ATOM     17  C   UNL     1       9.243  -2.816  24.620  0.00  0.00    +0.052 C 
BRANCH  17  18
ATOM     18  C   UNL     1       9.297  -2.429  23.160  0.00  0.00    -0.033 C 
ATOM     19  C   UNL     1      10.099  -1.467  22.687  0.00  0.00    +0.004 C 
ENDBRANCH  17  18
ENDBRANCH   1  17
TORSDOF 5
ENDMDL
MODEL 4
REMARK VINA RESULT:      -4.9      2.283      4.065
REMARK  Name = 
REMARK  7 active torsions:
REMARK  status: ('A' for Active; 'I' for Inactive)
REMARK    1  A    between atoms: C_1  and  C_2
REMARK    2  A    between atoms: C_2  and  C_3
REMARK    3  A    between atoms: C_3  and  C_4
REMARK    4  A    between atoms: C_4  and  C_5
REMARK    5  A    between atoms: C_4  and  C_6
REMARK    6  A    between atoms: C_6  and  C_7
REMARK    7  A    between atoms: C_7  and  C_8
REMARK                            x       y       z     vdW  Elec       q    Type
REMARK                         _______ _______ _______ _____ _____    ______ ____
ROOT
ATOM      1  C   UNL     1       8.240  -2.304  24.306  0.00  0.00    +0.129 C 
ATOM      2  C   UNL     1       7.009  -2.098  23.430  0.00  0.00    +0.234 C 
ATOM      3  O   UNL     1       6.600  -0.995  23.069  0.00  0.00    -0.274 OA
ATOM      4  N   UNL     1       6.284  -3.217  23.122  0.00  0.00    -0.267 N 
ATOM      5  H   UNL     1       5.409  -3.058  22.638  0.00  0.00    +0.157 HD
ATOM      6  C   UNL     1       6.745  -4.493  23.188  0.00  0.00    +0.143 C 
ATOM      7  S   UNL     1       5.814  -5.775  22.689  0.00  0.00    -0.018 S 
ATOM      8  N   UNL     1       8.009  -4.675  23.652  0.00  0.00    -0.267 N 
ATOM      9  H   UNL     1       8.399  -5.609  23.616  0.00  0.00    +0.157 HD
ATOM     10  C   UNL     1       8.848  -3.692  24.113  0.00  0.00    +0.234 C 
ATOM     11  O   UNL     1      10.001  -3.979  24.430  0.00  0.00    -0.274 OA
ENDROOT
BRANCH   1  12
ATOM     12  C   UNL     1       7.823  -2.150  25.837  0.00  0.00    +0.010 C 
ATOM     13  C   UNL     1       8.682  -1.140  26.621  0.00  0.00    +0.009 C 
BRANCH  12  14
ATOM     14  C   UNL     1       7.801  -3.512  26.588  0.00  0.00    +0.004 C 
BRANCH  14  16
ATOM     15  C   UNL     1       6.332  -5.537  26.765  0.00  0.00    +0.004 C 
ATOM     16  C   UNL     1       6.411  -4.029  26.967  0.00  0.00    -0.003 C 
ENDBRANCH  14  16
ENDBRANCH  12  14
ENDBRANCH   1  12
BRANCH   1  17
ATOM     17  C   UNL     1       9.329  -1.249  23.946  0.00  0.00    +0.052 C 
BRANCH  17  18
ATOM     18  C   UNL     1       9.850  -1.290  22.528  0.00  0.00    -0.033 C 
ATOM     19  C   UNL     1       9.765  -0.252  21.686  0.00  0.00    +0.004 C 
ENDBRANCH  17  18
ENDBRANCH   1  17
TORSDOF 5
ENDMDL
MODEL 5
REMARK VINA RESULT:      -4.8      5.277      7.461
REMARK  Name = 
REMARK  7 active torsions:
REMARK  status: ('A' for Active; 'I' for Inactive)
REMARK    1  A    between atoms: C_1  and  C_2
REMARK    2  A    between atoms: C_2  and  C_3
REMARK    3  A    between atoms: C_3  and  C_4
REMARK    4  A    between atoms: C_4  and  C_5
REMARK    5  A    between atoms: C_4  and  C_6
REMARK    6  A    between atoms: C_6  and  C_7
REMARK    7  A    between atoms: C_7  and  C_8
REMARK                            x       y       z     vdW  Elec       q    Type
REMARK                         _______ _______ _______ _____ _____    ______ ____
ROOT
ATOM      1  C   UNL     1       9.130   2.298  23.439  0.00  0.00    +0.129 C 
ATOM      2  C   UNL     1       9.408   1.512  24.716  0.00  0.00    +0.234 C 
ATOM      3  O   UNL     1      10.385   0.780  24.871  0.00  0.00    -0.274 OA
ATOM      4  N   UNL     1       8.450   1.569  25.690  0.00  0.00    -0.267 N 
ATOM      5  H   UNL     1       8.588   0.955  26.483  0.00  0.00    +0.157 HD
ATOM      6  C   UNL     1       7.493   2.527  25.794  0.00  0.00    +0.143 C 
ATOM      7  S   UNL     1       6.440   2.562  27.079  0.00  0.00    -0.018 S 
ATOM      8  N   UNL     1       7.450   3.472  24.819  0.00  0.00    -0.267 N 
ATOM      9  H   UNL     1       6.807   4.245  24.934  0.00  0.00    +0.157 HD
ATOM     10  C   UNL     1       8.251   3.519  23.706  0.00  0.00    +0.234 C 
ATOM     11  O   UNL     1       8.167   4.476  22.938  0.00  0.00    -0.274 OA
ENDROOT
BRANCH   1  12
ATOM     12  C   UNL     1       8.373   1.356  22.399  0.00  0.00    +0.010 C 
ATOM     13  C   UNL     1       7.359   0.396  23.050  0.00  0.00    +0.009 C 
BRANCH  12  14
ATOM     14  C   UNL     1       9.355   0.550  21.502  0.00  0.00    +0.004 C 
BRANCH  14  16
ATOM     15  C   UNL     1      10.413  -1.530  22.422  0.00  0.00    +0.004 C 
ATOM     16  C   UNL     1       9.247  -0.972  21.614  0.00  0.00    -0.003 C 
ENDBRANCH  14  16
ENDBRANCH  12  14
ENDBRANCH   1  12
BRANCH   1  17
ATOM     17  C   UNL     1      10.470   2.798  22.821  0.00  0.00    +0.052 C 
BRANCH  17  18
ATOM     18  C   UNL     1      11.248   3.799  23.644  0.00  0.00    -0.033 C 
ATOM     19  C   UNL     1      12.200   4.588  23.130  0.00  0.00    +0.004 C 
ENDBRANCH  17  18
ENDBRANCH   1  17
TORSDOF 5
ENDMDL
MODEL 6
REMARK VINA RESULT:      -4.8      2.261      3.517
REMARK  Name = 
REMARK  7 active torsions:
REMARK  status: ('A' for Active; 'I' for Inactive)
REMARK    1  A    between atoms: C_1  and  C_2
REMARK    2  A    between atoms: C_2  and  C_3
REMARK    3  A    between atoms: C_3  and  C_4
REMARK    4  A    between atoms: C_4  and  C_5
REMARK    5  A    between atoms: C_4  and  C_6
REMARK    6  A    between atoms: C_6  and  C_7
REMARK    7  A    between atoms: C_7  and  C_8
REMARK                            x       y       z     vdW  Elec       q    Type
REMARK                         _______ _______ _______ _____ _____    ______ ____
ROOT
ATOM      1  C   UNL     1       8.428  -2.553  24.622  0.00  0.00    +0.129 C 
ATOM      2  C   UNL     1       7.140  -2.258  23.861  0.00  0.00    +0.234 C 
ATOM      3  O   UNL     1       6.778  -1.128  23.535  0.00  0.00    -0.274 OA
ATOM      4  N   UNL     1       6.312  -3.322  23.624  0.00  0.00    -0.267 N 
ATOM      5  H   UNL     1       5.410  -3.100  23.222  0.00  0.00    +0.157 HD
ATOM      6  C   UNL     1       6.687  -4.628  23.653  0.00  0.00    +0.143 C 
ATOM      7  S   UNL     1       5.625  -5.839  23.246  0.00  0.00    -0.018 S 
ATOM      8  N   UNL     1       7.972  -4.899  24.000  0.00  0.00    -0.267 N 
ATOM      9  H   UNL     1       8.289  -5.858  23.932  0.00  0.00    +0.157 HD
ATOM     10  C   UNL     1       8.917  -3.980  24.379  0.00  0.00    +0.234 C 
ATOM     11  O   UNL     1      10.071  -4.348  24.590  0.00  0.00    -0.274 OA
ENDROOT
BRANCH   1  12
ATOM     12  C   UNL     1       8.165  -2.374  26.184  0.00  0.00    +0.010 C 
ATOM     13  C   UNL     1       6.699  -2.597  26.600  0.00  0.00    +0.009 C 
BRANCH  12  14
ATOM     14  C   UNL     1       8.657  -0.998  26.717  0.00  0.00    +0.004 C 
BRANCH  14  16
ATOM     15  C   UNL     1       7.659   1.175  25.958  0.00  0.00    +0.004 C 
ATOM     16  C   UNL     1       7.559   0.038  26.968  0.00  0.00    -0.003 C 
ENDBRANCH  14  16
ENDBRANCH  12  14
ENDBRANCH   1  12
BRANCH   1  17
ATOM     17  C   UNL     1       9.551  -1.576  24.159  0.00  0.00    +0.052 C 
BRANCH  17  18
ATOM     18  C   UNL     1       9.928  -1.642  22.697  0.00  0.00    -0.033 C 
ATOM     19  C   UNL     1       9.857  -0.588  21.875  0.00  0.00    +0.004 C 
ENDBRANCH  17  18
ENDBRANCH   1  17
TORSDOF 5
ENDMDL
MODEL 7
REMARK VINA RESULT:      -4.8      2.845      4.253
REMARK  Name = 
REMARK  7 active torsions:
REMARK  status: ('A' for Active; 'I' for Inactive)
REMARK    1  A    between atoms: C_1  and  C_2
REMARK    2  A    between atoms: C_2  and  C_3
REMARK    3  A    between atoms: C_3  and  C_4
REMARK    4  A    between atoms: C_4  and  C_5
REMARK    5  A    between atoms: C_4  and  C_6
REMARK    6  A    between atoms: C_6  and  C_7
REMARK    7  A    between atoms: C_7  and  C_8
REMARK                            x       y       z     vdW  Elec       q    Type
REMARK                         _______ _______ _______ _____ _____    ______ ____
ROOT
ATOM      1  C   UNL     1       8.078  -1.193  23.832  0.00  0.00    +0.129 C 
ATOM      2  C   UNL     1       8.306  -1.406  25.324  0.00  0.00    +0.234 C 
ATOM      3  O   UNL     1       8.099  -0.547  26.180  0.00  0.00    -0.274 OA
ATOM      4  N   UNL     1       8.866  -2.599  25.693  0.00  0.00    -0.267 N 
ATOM      5  H   UNL     1       9.119  -2.686  26.670  0.00  0.00    +0.157 HD
ATOM      6  C   UNL     1       8.879  -3.727  24.935  0.00  0.00    +0.143 C 
ATOM      7  S   UNL     1       9.493  -5.155  25.522  0.00  0.00    -0.018 S 
ATOM      8  N   UNL     1       8.345  -3.645  23.689  0.00  0.00    -0.267 N 
ATOM      9  H   UNL     1       8.261  -4.499  23.151  0.00  0.00    +0.157 HD
ATOM     10  C   UNL     1       7.840  -2.513  23.100  0.00  0.00    +0.234 C 
ATOM     11  O   UNL     1       7.308  -2.591  21.994  0.00  0.00    -0.274 OA
ENDROOT
BRANCH   1  12
ATOM     12  C   UNL     1       9.367  -0.498  23.200  0.00  0.00    +0.010 C 
ATOM     13  C   UNL     1      10.244  -1.450  22.366  0.00  0.00    +0.009 C 
BRANCH  12  14
ATOM     14  C   UNL     1      10.241   0.217  24.269  0.00  0.00    +0.004 C 
BRANCH  14  16
ATOM     15  C   UNL     1      10.340   2.272  22.834  0.00  0.00    +0.004 C 
ATOM     16  C   UNL     1      10.174   1.746  24.254  0.00  0.00    -0.003 C 
ENDBRANCH  14  16
ENDBRANCH  12  14
ENDBRANCH   1  12
BRANCH   1  17
ATOM     17  C   UNL     1       6.828  -0.290  23.610  0.00  0.00    +0.052 C 
BRANCH  17  18
ATOM     18  C   UNL     1       6.985   0.827  22.604  0.00  0.00    -0.033 C 
ATOM     19  C   UNL     1       6.532   2.070  22.813  0.00  0.00    +0.004 C 
ENDBRANCH  17  18
ENDBRANCH   1  17
TORSDOF 5
ENDMDL
MODEL 8
REMARK VINA RESULT:      -4.8      3.657      5.038
REMARK  Name = 
REMARK  7 active torsions:
REMARK  status: ('A' for Active; 'I' for Inactive)
REMARK    1  A    between atoms: C_1  and  C_2
REMARK    2  A    between atoms: C_2  and  C_3
REMARK    3  A    between atoms: C_3  and  C_4
REMARK    4  A    between atoms: C_4  and  C_5
REMARK    5  A    between atoms: C_4  and  C_6
REMARK    6  A    between atoms: C_6  and  C_7
REMARK    7  A    between atoms: C_7  and  C_8
REMARK                            x       y       z     vdW  Elec       q    Type
REMARK                         _______ _______ _______ _____ _____    ______ ____
ROOT
ATOM      1  C   UNL     1       7.877  -1.650  24.632  0.00  0.00    +0.129 C 
ATOM      2  C   UNL     1       6.505  -1.359  24.033  0.00  0.00    +0.234 C 
ATOM      3  O   UNL     1       5.524  -2.086  24.182  0.00  0.00    -0.274 OA
ATOM      4  N   UNL     1       6.416  -0.271  23.209  0.00  0.00    -0.267 N 
ATOM      5  H   UNL     1       5.533  -0.153  22.727  0.00  0.00    +0.157 HD
ATOM      6  C   UNL     1       7.295   0.764  23.178  0.00  0.00    +0.143 C 
ATOM      7  S   UNL     1       7.036   2.090  22.211  0.00  0.00    -0.018 S 
ATOM      8  N   UNL     1       8.381   0.682  23.991  0.00  0.00    -0.267 N 
ATOM      9  H   UNL     1       8.992   1.487  24.048  0.00  0.00    +0.157 HD
ATOM     10  C   UNL     1       8.703  -0.375  24.803  0.00  0.00    +0.234 C 
ATOM     11  O   UNL     1       9.673  -0.290  25.554  0.00  0.00    -0.274 OA
ENDROOT
BRANCH   1  12
ATOM     12  C   UNL     1       8.673  -2.633  23.661  0.00  0.00    +0.010 C 
ATOM     13  C   UNL     1       9.809  -1.951  22.876  0.00  0.00    +0.009 C 
BRANCH  12  14
ATOM     14  C   UNL     1       7.734  -3.385  22.676  0.00  0.00    +0.004 C 
BRANCH  14  16
ATOM     15  C   UNL     1       7.122  -5.632  21.744  0.00  0.00    +0.004 C 
ATOM     16  C   UNL     1       7.483  -4.858  23.006  0.00  0.00    -0.003 C 
ENDBRANCH  14  16
ENDBRANCH  12  14
ENDBRANCH   1  12
BRANCH   1  17
ATOM     17  C   UNL     1       7.715  -2.308  26.035  0.00  0.00    +0.052 C 
BRANCH  17  18
ATOM     18  C   UNL     1       8.548  -3.543  26.290  0.00  0.00    -0.033 C 
ATOM     19  C   UNL     1       8.031  -4.697  26.729  0.00  0.00    +0.004 C 
ENDBRANCH  17  18
ENDBRANCH   1  17
TORSDOF 5
ENDMDL
MODEL 9
REMARK VINA RESULT:      -4.8      3.638      5.500
REMARK  Name = 
REMARK  7 active torsions:
REMARK  status: ('A' for Active; 'I' for Inactive)
REMARK    1  A    between atoms: C_1  and  C_2
REMARK    2  A    between atoms: C_2  and  C_3
REMARK    3  A    between atoms: C_3  and  C_4
REMARK    4  A    between atoms: C_4  and  C_5
REMARK    5  A    between atoms: C_4  and  C_6
REMARK    6  A    between atoms: C_6  and  C_7
REMARK    7  A    between atoms: C_7  and  C_8
REMARK                            x       y       z     vdW  Elec       q    Type
REMARK                         _______ _______ _______ _____ _____    ______ ____
ROOT
ATOM      1  C   UNL     1       8.147  -0.286  23.587  0.00  0.00    +0.129 C 
ATOM      2  C   UNL     1       8.888  -1.553  23.173  0.00  0.00    +0.234 C 
ATOM      3  O   UNL     1      10.097  -1.721  23.328  0.00  0.00    -0.274 OA
ATOM      4  N   UNL     1       8.158  -2.499  22.508  0.00  0.00    -0.267 N 
ATOM      5  H   UNL     1       8.682  -3.282  22.138  0.00  0.00    +0.157 HD
ATOM      6  C   UNL     1       6.803  -2.596  22.520  0.00  0.00    +0.143 C 
ATOM      7  S   UNL     1       6.019  -3.849  21.762  0.00  0.00    -0.018 S 
ATOM      8  N   UNL     1       6.117  -1.640  23.201  0.00  0.00    -0.267 N 
ATOM      9  H   UNL     1       5.116  -1.753  23.298  0.00  0.00    +0.157 HD
ATOM     10  C   UNL     1       6.663  -0.553  23.834  0.00  0.00    +0.234 C 
ATOM     11  O   UNL     1       5.937   0.196  24.487  0.00  0.00    -0.274 OA
ENDROOT
BRANCH   1  12
ATOM     12  C   UNL     1       8.272   0.796  22.422  0.00  0.00    +0.010 C 
ATOM     13  C   UNL     1       9.391   0.496  21.408  0.00  0.00    +0.009 C 
BRANCH  12  14
ATOM     14  C   UNL     1       8.435   2.243  22.969  0.00  0.00    +0.004 C 
BRANCH  14  16
ATOM     15  C   UNL     1       6.123   2.999  22.358  0.00  0.00    +0.004 C 
ATOM     16  C   UNL     1       7.610   3.312  22.250  0.00  0.00    -0.003 C 
ENDBRANCH  14  16
ENDBRANCH  12  14
ENDBRANCH   1  12
BRANCH   1  17
ATOM     17  C   UNL     1       8.758   0.281  24.903  0.00  0.00    +0.052 C 
BRANCH  17  18
ATOM     18  C   UNL     1       8.795  -0.667  26.080  0.00  0.00    -0.033 C 
ATOM     19  C   UNL     1       8.142  -0.435  27.226  0.00  0.00    +0.004 C 
ENDBRANCH  17  18
ENDBRANCH   1  17
TORSDOF 5
ENDMDL
