MODEL 1
REMARK VINA RESULT:      -7.1      0.000      0.000
REMARK  Name = 
REMARK  15 active torsions:
REMARK  status: ('A' for Active; 'I' for Inactive)
REMARK    1  A    between atoms: N_1  and  C_2
REMARK    2  A    between atoms: N_6  and  C_7
REMARK    3  A    between atoms: C_10  and  C_12
REMARK    4  A    between atoms: C_12  and  O_13
REMARK    5  A    between atoms: O_13  and  P_14
REMARK    6  A    between atoms: P_14  and  O_15
REMARK    7  A    between atoms: P_14  and  O_17
REMARK    8  A    between atoms: O_17  and  C_18
REMARK    9  A    between atoms: C_18  and  C_19
REMARK   10  A    between atoms: C_19  and  C_20
REMARK   11  A    between atoms: C_20  and  C_21
REMARK   12  A    between atoms: C_21  and  C_22
REMARK   13  A    between atoms: C_22  and  C_23
REMARK   14  A    between atoms: C_35  and  O_37
REMARK   15  A    between atoms: C_38  and  O_40
REMARK                            x       y       z     vdW  Elec       q    Type
REMARK                         _______ _______ _______ _____ _____    ______ ____
ROOT
ATOM      1  C   UNL     1       5.681  -2.404  24.057  0.00  0.00    +0.206 C 
ENDROOT
BRANCH   1   5
ATOM      2  C   UNL     1       7.699  -4.896  23.711  0.00  0.00    +0.253 C 
ATOM      3  C   UNL     1       6.736  -5.425  22.641  0.00  0.00    +0.195 C 
ATOM      4  C   UNL     1       5.808  -4.245  22.348  0.00  0.00    +0.178 C 
ATOM      5  C   UNL     1       6.522  -3.025  22.934  0.00  0.00    +0.178 C 
ATOM      6  O   UNL     1       7.798  -3.482  23.438  0.00  0.00    -0.346 OA
BRANCH   2  12
ATOM      7  C   UNL     1       5.683  -6.083  27.981  0.00  0.00    +0.147 A 
ATOM      8  N   UNL     1       4.602  -6.704  27.458  0.00  0.00    -0.219 NA
ATOM      9  C   UNL     1       4.492  -6.782  26.117  0.00  0.00    +0.225 A 
ATOM     10  N   UNL     1       5.319  -6.279  25.178  0.00  0.00    -0.216 NA
ATOM     11  C   UNL     1       6.374  -5.669  25.740  0.00  0.00    +0.167 A 
ATOM     12  N   UNL     1       7.419  -5.056  25.119  0.00  0.00    -0.286 N 
ATOM     13  C   UNL     1       8.211  -4.498  26.109  0.00  0.00    +0.203 A 
ATOM     14  N   UNL     1       7.765  -4.784  27.311  0.00  0.00    -0.231 NA
ATOM     15  C   UNL     1       6.618  -5.515  27.098  0.00  0.00    +0.147 A 
BRANCH   7  16
ATOM     16  N   UNL     1       5.796  -6.023  29.357  0.00  0.00    -0.341 N 
ATOM     17  H   UNL     1       5.291  -5.260  29.781  0.00  0.00    +0.144 HD
ATOM     18  H   UNL     1       6.714  -6.252  29.722  0.00  0.00    +0.144 HD
ENDBRANCH   7  16
ENDBRANCH   2  12
BRANCH   3  19
ATOM     19  O   UNL     1       7.451  -5.757  21.424  0.00  0.00    -0.385 OA
ATOM     20  H   UNL     1       6.822  -5.747  20.678  0.00  0.00    +0.210 HD
ENDBRANCH   3  19
BRANCH   4  21
ATOM     21  O   UNL     1       5.596  -4.062  20.945  0.00  0.00    -0.386 OA
ATOM     22  H   UNL     1       4.753  -4.510  20.728  0.00  0.00    +0.210 HD
ENDBRANCH   4  21
ENDBRANCH   1   5
BRANCH   1  23
ATOM     23  O   UNL     1       6.496  -1.639  24.937  0.00  0.00    -0.284 OA
BRANCH  23  24
ATOM     24  P   UNL     1       5.673  -0.211  25.464  0.00  0.00    +0.475 P 
ATOM     25  O   UNL     1       4.422  -1.058  25.712  0.00  0.00    -0.227 OA
BRANCH  24  26
ATOM     26  O   UNL     1       5.631   0.209  23.888  0.00  0.00    -0.302 OA
ATOM     27  H   UNL     1       5.571   1.183  23.861  0.00  0.00    +0.222 HD
ENDBRANCH  24  26
BRANCH  24  28
ATOM     28  O   UNL     1       4.850   1.216  25.990  0.00  0.00    -0.287 OA
BRANCH  28  29
ATOM     29  C   UNL     1       5.623   2.024  26.895  0.00  0.00    +0.172 C 
BRANCH  29  30
ATOM     30  C   UNL     1       7.089   2.058  26.526  0.00  0.00    +0.029 C 
BRANCH  30  31
ATOM     31  C   UNL     1       7.574   3.457  26.150  0.00  0.00    +0.002 C 
BRANCH  31  32
ATOM     32  C   UNL     1       8.460   3.473  24.897  0.00  0.00    +0.001 C 
BRANCH  32  33
ATOM     33  C   UNL     1       8.371   2.187  24.062  0.00  0.00    +0.016 C 
BRANCH  33  34
ATOM     34  C   UNL     1       9.656   1.812  23.302  0.00  0.00    +0.069 C 
ATOM     35  C   UNL     1      10.597   0.791  23.977  0.00  0.00    +0.108 C 
ATOM     36  C   UNL     1      10.281  -0.609  23.448  0.00  0.00    +0.105 C 
ATOM     37  N   UNL     1       9.318  -1.096  24.410  0.00  0.00    -0.294 N 
ATOM     38  H   UNL     1       8.946  -2.037  24.435  0.00  0.00    +0.151 HD
ATOM     39  C   UNL     1       9.565  -0.484  25.633  0.00  0.00    +0.300 C 
ATOM     40  O   UNL     1       9.166  -0.857  26.717  0.00  0.00    -0.253 OA
ATOM     41  C   UNL     1       9.855  -0.555  21.997  0.00  0.00    +0.093 C 
ATOM     42  N   UNL     1      10.380   0.613  25.394  0.00  0.00    -0.294 N 
ATOM     43  H   UNL     1      10.675   1.221  26.146  0.00  0.00    +0.151 HD
ATOM     44  S   UNL     1       9.260   1.115  21.658  0.00  0.00    -0.154 S 
ENDBRANCH  33  34
ENDBRANCH  32  33
ENDBRANCH  31  32
ENDBRANCH  30  31
ENDBRANCH  29  30
ENDBRANCH  28  29
ENDBRANCH  24  28
ENDBRANCH  23  24
ENDBRANCH   1  23
TORSDOF 15
ENDMDL
MODEL 2
REMARK VINA RESULT:      -7.0      2.317      3.333
REMARK  Name = 
REMARK  15 active torsions:
REMARK  status: ('A' for Active; 'I' for Inactive)
REMARK    1  A    between atoms: N_1  and  C_2
REMARK    2  A    between atoms: N_6  and  C_7
REMARK    3  A    between atoms: C_10  and  C_12
REMARK    4  A    between atoms: C_12  and  O_13
REMARK    5  A    between atoms: O_13  and  P_14
REMARK    6  A    between atoms: P_14  and  O_15
REMARK    7  A    between atoms: P_14  and  O_17
REMARK    8  A    between atoms: O_17  and  C_18
REMARK    9  A    between atoms: C_18  and  C_19
REMARK   10  A    between atoms: C_19  and  C_20
REMARK   11  A    between atoms: C_20  and  C_21
REMARK   12  A    between atoms: C_21  and  C_22
REMARK   13  A    between atoms: C_22  and  C_23
REMARK   14  A    between atoms: C_35  and  O_37
REMARK   15  A    between atoms: C_38  and  O_40
REMARK                            x       y       z     vdW  Elec       q    Type
REMARK                         _______ _______ _______ _____ _____    ______ ____
ROOT
ATOM      1  C   UNL     1       6.703  -1.769  26.480  0.00  0.00    +0.206 C 
ENDROOT
BRANCH   1   5
ATOM      2  C   UNL     1       8.539  -4.195  25.411  0.00  0.00    +0.253 C 
ATOM      3  C   UNL     1       8.852  -3.316  24.194  0.00  0.00    +0.195 C 
ATOM      4  C   UNL     1       8.355  -1.926  24.591  0.00  0.00    +0.178 C 
ATOM      5  C   UNL     1       8.175  -1.988  26.110  0.00  0.00    +0.178 C 
ATOM      6  O   UNL     1       8.625  -3.295  26.535  0.00  0.00    -0.346 OA
BRANCH   2  12
ATOM      7  C   UNL     1       4.769  -6.823  27.019  0.00  0.00    +0.147 A 
ATOM      8  N   UNL     1       5.256  -7.019  28.265  0.00  0.00    -0.219 NA
ATOM      9  C   UNL     1       6.446  -6.470  28.584  0.00  0.00    +0.225 A 
ATOM     10  N   UNL     1       7.275  -5.754  27.798  0.00  0.00    -0.216 NA
ATOM     11  C   UNL     1       6.756  -5.589  26.572  0.00  0.00    +0.167 A 
ATOM     12  N   UNL     1       7.292  -4.917  25.516  0.00  0.00    -0.286 N 
ATOM     13  C   UNL     1       6.436  -5.095  24.442  0.00  0.00    +0.203 A 
ATOM     14  N   UNL     1       5.363  -5.775  24.779  0.00  0.00    -0.231 NA
ATOM     15  C   UNL     1       5.548  -6.091  26.106  0.00  0.00    +0.147 A 
BRANCH   7  16
ATOM     16  N   UNL     1       3.541  -7.374  26.707  0.00  0.00    -0.341 N 
ATOM     17  H   UNL     1       2.764  -6.961  27.200  0.00  0.00    +0.144 HD
ATOM     18  H   UNL     1       3.544  -8.379  26.573  0.00  0.00    +0.144 HD
ENDBRANCH   7  16
ENDBRANCH   2  12
BRANCH   3  19
ATOM     19  O   UNL     1      10.283  -3.242  23.967  0.00  0.00    -0.385 OA
ATOM     20  H   UNL     1      10.736  -3.779  24.644  0.00  0.00    +0.210 HD
ENDBRANCH   3  19
BRANCH   4  21
ATOM     21  O   UNL     1       9.294  -0.901  24.251  0.00  0.00    -0.386 OA
ATOM     22  H   UNL     1      10.128  -1.120  24.714  0.00  0.00    +0.210 HD
ENDBRANCH   4  21
ENDBRANCH   1   5
BRANCH   1  23
ATOM     23  O   UNL     1       6.522  -0.508  27.114  0.00  0.00    -0.284 OA
BRANCH  23  24
ATOM     24  P   UNL     1       5.374   0.461  26.256  0.00  0.00    +0.475 P 
ATOM     25  O   UNL     1       4.970  -0.779  25.454  0.00  0.00    -0.227 OA
BRANCH  24  26
ATOM     26  O   UNL     1       6.661   1.100  25.485  0.00  0.00    -0.302 OA
ATOM     27  H   UNL     1       6.457   1.071  24.530  0.00  0.00    +0.222 HD
ENDBRANCH  24  26
BRANCH  24  28
ATOM     28  O   UNL     1       4.226   1.430  25.398  0.00  0.00    -0.287 OA
BRANCH  28  29
ATOM     29  C   UNL     1       4.782   2.644  24.867  0.00  0.00    +0.172 C 
BRANCH  29  30
ATOM     30  C   UNL     1       4.218   2.988  23.506  0.00  0.00    +0.029 C 
BRANCH  30  31
ATOM     31  C   UNL     1       5.288   3.456  22.521  0.00  0.00    +0.002 C 
BRANCH  31  32
ATOM     32  C   UNL     1       6.175   4.576  23.080  0.00  0.00    +0.001 C 
BRANCH  32  33
ATOM     33  C   UNL     1       7.655   4.445  22.688  0.00  0.00    +0.016 C 
BRANCH  33  34
ATOM     34  C   UNL     1       8.624   4.219  23.862  0.00  0.00    +0.069 C 
ATOM     35  C   UNL     1       9.296   2.831  23.960  0.00  0.00    +0.108 C 
ATOM     36  C   UNL     1      10.666   2.890  23.284  0.00  0.00    +0.105 C 
ATOM     37  N   UNL     1      10.366   2.474  21.932  0.00  0.00    -0.294 N 
ATOM     38  H   UNL     1      11.054   2.303  21.210  0.00  0.00    +0.151 HD
ATOM     39  C   UNL     1       9.262   1.630  21.965  0.00  0.00    +0.300 C 
ATOM     40  O   UNL     1       8.915   0.868  21.085  0.00  0.00    -0.253 OA
ATOM     41  C   UNL     1      11.306   4.247  23.473  0.00  0.00    +0.093 C 
ATOM     42  N   UNL     1       8.648   1.791  23.197  0.00  0.00    -0.294 N 
ATOM     43  H   UNL     1       7.807   1.281  23.435  0.00  0.00    +0.151 HD
ATOM     44  S   UNL     1       9.990   5.434  23.821  0.00  0.00    -0.154 S 
ENDBRANCH  33  34
ENDBRANCH  32  33
ENDBRANCH  31  32
ENDBRANCH  30  31
ENDBRANCH  29  30
ENDBRANCH  28  29
ENDBRANCH  24  28
ENDBRANCH  23  24
ENDBRANCH   1  23
TORSDOF 15
ENDMDL
MODEL 3
REMARK VINA RESULT:      -6.9      1.941      2.579
REMARK  Name = 
REMARK  15 active torsions:
REMARK  status: ('A' for Active; 'I' for Inactive)
REMARK    1  A    between atoms: N_1  and  C_2
REMARK    2  A    between atoms: N_6  and  C_7
REMARK    3  A    between atoms: C_10  and  C_12
REMARK    4  A    between atoms: C_12  and  O_13
REMARK    5  A    between atoms: O_13  and  P_14
REMARK    6  A    between atoms: P_14  and  O_15
REMARK    7  A    between atoms: P_14  and  O_17
REMARK    8  A    between atoms: O_17  and  C_18
REMARK    9  A    between atoms: C_18  and  C_19
REMARK   10  A    between atoms: C_19  and  C_20
REMARK   11  A    between atoms: C_20  and  C_21
REMARK   12  A    between atoms: C_21  and  C_22
REMARK   13  A    between atoms: C_22  and  C_23
REMARK   14  A    between atoms: C_35  and  O_37
REMARK   15  A    between atoms: C_38  and  O_40
REMARK                            x       y       z     vdW  Elec       q    Type
REMARK                         _______ _______ _______ _____ _____    ______ ____
ROOT
ATOM      1  C   UNL     1       7.078  -2.231  26.006  0.00  0.00    +0.206 C 
ENDROOT
BRANCH   1   5
ATOM      2  C   UNL     1       8.426  -5.153  26.217  0.00  0.00    +0.253 C 
ATOM      3  C   UNL     1       9.047  -4.879  24.842  0.00  0.00    +0.195 C 
ATOM      4  C   UNL     1       8.834  -3.381  24.621  0.00  0.00    +0.178 C 
ATOM      5  C   UNL     1       8.493  -2.821  26.004  0.00  0.00    +0.178 C 
ATOM      6  O   UNL     1       8.597  -3.917  26.941  0.00  0.00    -0.346 OA
BRANCH   2  12
ATOM      7  C   UNL     1       4.148  -6.715  27.942  0.00  0.00    +0.147 A 
ATOM      8  N   UNL     1       4.577  -6.929  29.206  0.00  0.00    -0.219 NA
ATOM      9  C   UNL     1       5.861  -6.649  29.506  0.00  0.00    +0.225 A 
ATOM     10  N   UNL     1       6.835  -6.202  28.685  0.00  0.00    -0.216 NA
ATOM     11  C   UNL     1       6.368  -6.009  27.442  0.00  0.00    +0.167 A 
ATOM     12  N   UNL     1       7.045  -5.557  26.351  0.00  0.00    -0.286 N 
ATOM     13  C   UNL     1       6.171  -5.609  25.279  0.00  0.00    +0.203 A 
ATOM     14  N   UNL     1       4.970  -5.997  25.644  0.00  0.00    -0.231 NA
ATOM     15  C   UNL     1       5.076  -6.251  26.993  0.00  0.00    +0.147 A 
BRANCH   7  16
ATOM     16  N   UNL     1       2.826  -6.988  27.648  0.00  0.00    -0.341 N 
ATOM     17  H   UNL     1       2.334  -6.226  27.207  0.00  0.00    +0.144 HD
ATOM     18  H   UNL     1       2.336  -7.536  28.347  0.00  0.00    +0.144 HD
ENDBRANCH   7  16
ENDBRANCH   2  12
BRANCH   3  19
ATOM     19  O   UNL     1      10.473  -5.141  24.860  0.00  0.00    -0.385 OA
ATOM     20  H   UNL     1      10.731  -5.411  25.761  0.00  0.00    +0.210 HD
ENDBRANCH   3  19
BRANCH   4  21
ATOM     21  O   UNL     1      10.006  -2.740  24.108  0.00  0.00    -0.386 OA
ATOM     22  H   UNL     1       9.700  -1.970  23.588  0.00  0.00    +0.210 HD
ENDBRANCH   4  21
ENDBRANCH   1   5
BRANCH   1  23
ATOM     23  O   UNL     1       6.974  -1.159  25.076  0.00  0.00    -0.284 OA
BRANCH  23  24
ATOM     24  P   UNL     1       5.659  -0.110  25.480  0.00  0.00    +0.475 P 
ATOM     25  O   UNL     1       4.709  -1.305  25.373  0.00  0.00    -0.227 OA
BRANCH  24  26
ATOM     26  O   UNL     1       5.816   0.483  23.969  0.00  0.00    -0.302 OA
ATOM     27  H   UNL     1       4.944   0.845  23.719  0.00  0.00    +0.222 HD
ENDBRANCH  24  26
BRANCH  24  28
ATOM     28  O   UNL     1       4.344   0.939  25.884  0.00  0.00    -0.287 OA
BRANCH  28  29
ATOM     29  C   UNL     1       4.653   1.868  26.937  0.00  0.00    +0.172 C 
BRANCH  29  30
ATOM     30  C   UNL     1       6.128   2.192  27.003  0.00  0.00    +0.029 C 
BRANCH  30  31
ATOM     31  C   UNL     1       6.438   3.633  26.599  0.00  0.00    +0.002 C 
BRANCH  31  32
ATOM     32  C   UNL     1       6.883   3.768  25.137  0.00  0.00    +0.001 C 
BRANCH  32  33
ATOM     33  C   UNL     1       8.380   3.499  24.920  0.00  0.00    +0.016 C 
BRANCH  33  34
ATOM     34  C   UNL     1       8.851   3.572  23.456  0.00  0.00    +0.069 C 
ATOM     35  C   UNL     1       9.903   2.535  23.006  0.00  0.00    +0.108 C 
ATOM     36  C   UNL     1       9.191   1.345  22.362  0.00  0.00    +0.105 C 
ATOM     37  N   UNL     1       9.012   0.445  23.480  0.00  0.00    -0.294 N 
ATOM     38  H   UNL     1       8.653  -0.499  23.416  0.00  0.00    +0.151 HD
ATOM     39  C   UNL     1      10.035   0.669  24.394  0.00  0.00    +0.300 C 
ATOM     40  O   UNL     1      10.379  -0.081  25.286  0.00  0.00    -0.253 OA
ATOM     41  C   UNL     1       7.951   1.792  21.620  0.00  0.00    +0.093 C 
ATOM     42  N   UNL     1      10.615   1.889  24.083  0.00  0.00    -0.294 N 
ATOM     43  H   UNL     1      11.377   2.264  24.634  0.00  0.00    +0.151 HD
ATOM     44  S   UNL     1       7.439   3.381  22.309  0.00  0.00    -0.154 S 
ENDBRANCH  33  34
ENDBRANCH  32  33
ENDBRANCH  31  32
ENDBRANCH  30  31
ENDBRANCH  29  30
ENDBRANCH  28  29
ENDBRANCH  24  28
ENDBRANCH  23  24
ENDBRANCH   1  23
TORSDOF 15
ENDMDL
MODEL 4
REMARK VINA RESULT:      -6.9      2.753      4.804
REMARK  Name = 
REMARK  15 active torsions:
REMARK  status: ('A' for Active; 'I' for Inactive)
REMARK    1  A    between atoms: N_1  and  C_2
REMARK    2  A    between atoms: N_6  and  C_7
REMARK    3  A    between atoms: C_10  and  C_12
REMARK    4  A    between atoms: C_12  and  O_13
REMARK    5  A    between atoms: O_13  and  P_14
REMARK    6  A    between atoms: P_14  and  O_15
REMARK    7  A    between atoms: P_14  and  O_17
REMARK    8  A    between atoms: O_17  and  C_18
REMARK    9  A    between atoms: C_18  and  C_19
REMARK   10  A    between atoms: C_19  and  C_20
REMARK   11  A    between atoms: C_20  and  C_21
REMARK   12  A    between atoms: C_21  and  C_22
REMARK   13  A    between atoms: C_22  and  C_23
REMARK   14  A    between atoms: C_35  and  O_37
REMARK   15  A    between atoms: C_38  and  O_40
REMARK                            x       y       z     vdW  Elec       q    Type
REMARK                         _______ _______ _______ _____ _____    ______ ____
ROOT
ATOM      1  C   UNL     1       5.584  -2.907  24.916  0.00  0.00    +0.206 C 
ENDROOT
BRANCH   1   5
ATOM      2  C   UNL     1       7.583  -3.862  22.573  0.00  0.00    +0.253 C 
ATOM      3  C   UNL     1       7.433  -5.282  23.131  0.00  0.00    +0.195 C 
ATOM      4  C   UNL     1       6.246  -5.189  24.091  0.00  0.00    +0.178 C 
ATOM      5  C   UNL     1       5.545  -3.877  23.729  0.00  0.00    +0.178 C 
ATOM      6  O   UNL     1       6.244  -3.326  22.588  0.00  0.00    -0.346 OA
BRANCH   2  12
ATOM      7  C   UNL     1      10.357   0.028  23.517  0.00  0.00    +0.147 A 
ATOM      8  N   UNL     1      10.187   0.616  22.311  0.00  0.00    -0.219 NA
ATOM      9  C   UNL     1       9.397   0.008  21.404  0.00  0.00    +0.225 A 
ATOM     10  N   UNL     1       8.750  -1.171  21.513  0.00  0.00    -0.216 NA
ATOM     11  C   UNL     1       8.950  -1.722  22.720  0.00  0.00    +0.167 A 
ATOM     12  N   UNL     1       8.455  -2.895  23.201  0.00  0.00    -0.286 N 
ATOM     13  C   UNL     1       9.005  -3.086  24.457  0.00  0.00    +0.203 A 
ATOM     14  N   UNL     1       9.756  -2.072  24.822  0.00  0.00    -0.231 NA
ATOM     15  C   UNL     1       9.732  -1.211  23.748  0.00  0.00    +0.147 A 
BRANCH   7  16
ATOM     16  N   UNL     1      11.154   0.667  24.446  0.00  0.00    -0.341 N 
ATOM     17  H   UNL     1      10.692   1.409  24.949  0.00  0.00    +0.144 HD
ATOM     18  H   UNL     1      12.117   0.809  24.160  0.00  0.00    +0.144 HD
ENDBRANCH   7  16
ENDBRANCH   2  12
BRANCH   3  19
ATOM     19  O   UNL     1       7.095  -6.218  22.076  0.00  0.00    -0.385 OA
ATOM     20  H   UNL     1       7.762  -6.145  21.367  0.00  0.00    +0.210 HD
ENDBRANCH   3  19
BRANCH   4  21
ATOM     21  O   UNL     1       5.341  -6.287  23.937  0.00  0.00    -0.386 OA
ATOM     22  H   UNL     1       5.877  -7.053  23.650  0.00  0.00    +0.210 HD
ENDBRANCH   4  21
ENDBRANCH   1   5
BRANCH   1  23
ATOM     23  O   UNL     1       4.986  -1.663  24.573  0.00  0.00    -0.284 OA
BRANCH  23  24
ATOM     24  P   UNL     1       6.083  -0.352  24.842  0.00  0.00    +0.475 P 
ATOM     25  O   UNL     1       4.891   0.532  25.217  0.00  0.00    -0.227 OA
BRANCH  24  26
ATOM     26  O   UNL     1       6.212  -0.276  23.217  0.00  0.00    -0.302 OA
ATOM     27  H   UNL     1       5.328  -0.487  22.858  0.00  0.00    +0.222 HD
ENDBRANCH  24  26
BRANCH  24  28
ATOM     28  O   UNL     1       7.180   0.959  25.110  0.00  0.00    -0.287 OA
BRANCH  28  29
ATOM     29  C   UNL     1       7.165   1.453  26.460  0.00  0.00    +0.172 C 
BRANCH  29  30
ATOM     30  C   UNL     1       7.228   2.963  26.520  0.00  0.00    +0.029 C 
BRANCH  30  31
ATOM     31  C   UNL     1       5.901   3.597  26.931  0.00  0.00    +0.002 C 
BRANCH  31  32
ATOM     32  C   UNL     1       5.576   4.878  26.151  0.00  0.00    +0.001 C 
BRANCH  32  33
ATOM     33  C   UNL     1       6.663   5.279  25.142  0.00  0.00    +0.016 C 
BRANCH  33  34
ATOM     34  C   UNL     1       6.206   5.322  23.673  0.00  0.00    +0.069 C 
ATOM     35  C   UNL     1       7.266   4.991  22.599  0.00  0.00    +0.108 C 
ATOM     36  C   UNL     1       7.161   3.509  22.233  0.00  0.00    +0.105 C 
ATOM     37  N   UNL     1       8.111   2.897  23.135  0.00  0.00    -0.294 N 
ATOM     38  H   UNL     1       8.383   1.922  23.119  0.00  0.00    +0.151 HD
ATOM     39  C   UNL     1       9.105   3.824  23.425  0.00  0.00    +0.300 C 
ATOM     40  O   UNL     1      10.200   3.581  23.893  0.00  0.00    -0.253 OA
ATOM     41  C   UNL     1       5.726   3.035  22.301  0.00  0.00    +0.093 C 
ATOM     42  N   UNL     1       8.634   5.074  23.053  0.00  0.00    -0.294 N 
ATOM     43  H   UNL     1       9.190   5.907  23.191  0.00  0.00    +0.151 HD
ATOM     44  S   UNL     1       4.823   4.160  23.387  0.00  0.00    -0.154 S 
ENDBRANCH  33  34
ENDBRANCH  32  33
ENDBRANCH  31  32
ENDBRANCH  30  31
ENDBRANCH  29  30
ENDBRANCH  28  29
ENDBRANCH  24  28
ENDBRANCH  23  24
ENDBRANCH   1  23
TORSDOF 15
ENDMDL
MODEL 5
REMARK VINA RESULT:      -6.8      3.206      5.764
REMARK  Name = 
REMARK  15 active torsions:
REMARK  status: ('A' for Active; 'I' for Inactive)
REMARK    1  A    between atoms: N_1  and  C_2
REMARK    2  A    between atoms: N_6  and  C_7
REMARK    3  A    between atoms: C_10  and  C_12
REMARK    4  A    between atoms: C_12  and  O_13
REMARK    5  A    between atoms: O_13  and  P_14
REMARK    6  A    between atoms: P_14  and  O_15
REMARK    7  A    between atoms: P_14  and  O_17
REMARK    8  A    between atoms: O_17  and  C_18
REMARK    9  A    between atoms: C_18  and  C_19
REMARK   10  A    between atoms: C_19  and  C_20
REMARK   11  A    between atoms: C_20  and  C_21
REMARK   12  A    between atoms: C_21  and  C_22
REMARK   13  A    between atoms: C_22  and  C_23
REMARK   14  A    between atoms: C_35  and  O_37
REMARK   15  A    between atoms: C_38  and  O_40
REMARK                            x       y       z     vdW  Elec       q    Type
REMARK                         _______ _______ _______ _____ _____    ______ ____
ROOT
ATOM      1  C   UNL     1       6.102  -2.326  24.240  0.00  0.00    +0.206 C 
ENDROOT
BRANCH   1   5
ATOM      2  C   UNL     1       9.128  -3.372  23.857  0.00  0.00    +0.253 C 
ATOM      3  C   UNL     1       9.207  -3.462  25.386  0.00  0.00    +0.195 C 
ATOM      4  C   UNL     1       7.756  -3.326  25.849  0.00  0.00    +0.178 C 
ATOM      5  C   UNL     1       6.914  -3.577  24.596  0.00  0.00    +0.178 C 
ATOM      6  O   UNL     1       7.832  -3.917  23.531  0.00  0.00    -0.346 OA
BRANCH   2  12
ATOM      7  C   UNL     1      10.073   1.269  22.729  0.00  0.00    +0.147 A 
ATOM      8  N   UNL     1      10.535   1.619  23.951  0.00  0.00    -0.219 NA
ATOM      9  C   UNL     1      10.584   0.677  24.913  0.00  0.00    +0.225 A 
ATOM     10  N   UNL     1      10.189  -0.611  24.846  0.00  0.00    -0.216 NA
ATOM     11  C   UNL     1       9.734  -0.913  23.620  0.00  0.00    +0.167 A 
ATOM     12  N   UNL     1       9.263  -2.108  23.170  0.00  0.00    -0.286 N 
ATOM     13  C   UNL     1       8.828  -1.912  21.870  0.00  0.00    +0.203 A 
ATOM     14  N   UNL     1       9.062  -0.687  21.455  0.00  0.00    -0.231 NA
ATOM     15  C   UNL     1       9.628  -0.050  22.537  0.00  0.00    +0.147 A 
BRANCH   7  16
ATOM     16  N   UNL     1      10.042   2.237  21.744  0.00  0.00    -0.341 N 
ATOM     17  H   UNL     1      10.508   1.973  20.889  0.00  0.00    +0.144 HD
ATOM     18  H   UNL     1      10.151   3.190  22.075  0.00  0.00    +0.144 HD
ENDBRANCH   7  16
ENDBRANCH   2  12
BRANCH   3  19
ATOM     19  O   UNL     1       9.699  -4.761  25.801  0.00  0.00    -0.385 OA
ATOM     20  H   UNL     1      10.130  -4.669  26.672  0.00  0.00    +0.210 HD
ENDBRANCH   3  19
BRANCH   4  21
ATOM     21  O   UNL     1       7.422  -4.279  26.863  0.00  0.00    -0.386 OA
ATOM     22  H   UNL     1       8.167  -4.912  26.908  0.00  0.00    +0.210 HD
ENDBRANCH   4  21
ENDBRANCH   1   5
BRANCH   1  23
ATOM     23  O   UNL     1       5.675  -1.648  25.415  0.00  0.00    -0.284 OA
BRANCH  23  24
ATOM     24  P   UNL     1       6.022   0.045  25.317  0.00  0.00    +0.475 P 
ATOM     25  O   UNL     1       4.559   0.336  25.656  0.00  0.00    -0.227 OA
BRANCH  24  26
ATOM     26  O   UNL     1       6.079  -0.177  23.701  0.00  0.00    -0.302 OA
ATOM     27  H   UNL     1       5.217   0.116  23.350  0.00  0.00    +0.222 HD
ENDBRANCH  24  26
BRANCH  24  28
ATOM     28  O   UNL     1       6.370   1.736  25.218  0.00  0.00    -0.287 OA
BRANCH  28  29
ATOM     29  C   UNL     1       6.285   2.415  26.483  0.00  0.00    +0.172 C 
BRANCH  29  30
ATOM     30  C   UNL     1       7.025   3.734  26.478  0.00  0.00    +0.029 C 
BRANCH  30  31
ATOM     31  C   UNL     1       8.309   3.692  25.651  0.00  0.00    +0.002 C 
BRANCH  31  32
ATOM     32  C   UNL     1       8.844   5.085  25.295  0.00  0.00    +0.001 C 
BRANCH  32  33
ATOM     33  C   UNL     1       8.983   5.325  23.784  0.00  0.00    +0.016 C 
BRANCH  33  34
ATOM     34  C   UNL     1       7.980   6.329  23.187  0.00  0.00    +0.069 C 
ATOM     35  C   UNL     1       6.970   5.781  22.156  0.00  0.00    +0.108 C 
ATOM     36  C   UNL     1       5.667   5.424  22.872  0.00  0.00    +0.105 C 
ATOM     37  N   UNL     1       5.858   4.027  23.192  0.00  0.00    -0.294 N 
ATOM     38  H   UNL     1       5.155   3.421  23.594  0.00  0.00    +0.151 HD
ATOM     39  C   UNL     1       6.704   3.468  22.240  0.00  0.00    +0.300 C 
ATOM     40  O   UNL     1       6.847   2.283  22.014  0.00  0.00    -0.253 OA
ATOM     41  C   UNL     1       5.401   6.374  24.019  0.00  0.00    +0.093 C 
ATOM     42  N   UNL     1       7.329   4.510  21.573  0.00  0.00    -0.294 N 
ATOM     43  H   UNL     1       8.007   4.333  20.843  0.00  0.00    +0.151 HD
ATOM     44  S   UNL     1       6.978   7.108  24.504  0.00  0.00    -0.154 S 
ENDBRANCH  33  34
ENDBRANCH  32  33
ENDBRANCH  31  32
ENDBRANCH  30  31
ENDBRANCH  29  30
ENDBRANCH  28  29
ENDBRANCH  24  28
ENDBRANCH  23  24
ENDBRANCH   1  23
TORSDOF 15
ENDMDL
MODEL 6
REMARK VINA RESULT:      -6.8      2.650      3.936
REMARK  Name = 
REMARK  15 active torsions:
REMARK  status: ('A' for Active; 'I' for Inactive)
REMARK    1  A    between atoms: N_1  and  C_2
REMARK    2  A    between atoms: N_6  and  C_7
REMARK    3  A    between atoms: C_10  and  C_12
REMARK    4  A    between atoms: C_12  and  O_13
REMARK    5  A    between atoms: O_13  and  P_14
REMARK    6  A    between atoms: P_14  and  O_15
REMARK    7  A    between atoms: P_14  and  O_17
REMARK    8  A    between atoms: O_17  and  C_18
REMARK    9  A    between atoms: C_18  and  C_19
REMARK   10  A    between atoms: C_19  and  C_20
REMARK   11  A    between atoms: C_20  and  C_21
REMARK   12  A    between atoms: C_21  and  C_22
REMARK   13  A    between atoms: C_22  and  C_23
REMARK   14  A    between atoms: C_35  and  O_37
REMARK   15  A    between atoms: C_38  and  O_40
REMARK                            x       y       z     vdW  Elec       q    Type
REMARK                         _______ _______ _______ _____ _____    ______ ____
ROOT
ATOM      1  C   UNL     1       2.948  -3.868  25.719  0.00  0.00    +0.206 C 
ENDROOT
BRANCH   1   5
ATOM      2  C   UNL     1       4.216  -6.291  24.010  0.00  0.00    +0.253 C 
ATOM      3  C   UNL     1       3.040  -7.146  24.498  0.00  0.00    +0.195 C 
ATOM      4  C   UNL     1       2.059  -6.136  25.095  0.00  0.00    +0.178 C 
ATOM      5  C   UNL     1       2.516  -4.776  24.562  0.00  0.00    +0.178 C 
ATOM      6  O   UNL     1       3.619  -5.025  23.660  0.00  0.00    -0.346 OA
BRANCH   2  12
ATOM      7  C   UNL     1       8.573  -4.944  25.716  0.00  0.00    +0.147 A 
ATOM      8  N   UNL     1       9.067  -4.528  24.528  0.00  0.00    -0.219 NA
ATOM      9  C   UNL     1       8.273  -4.604  23.441  0.00  0.00    +0.225 A 
ATOM     10  N   UNL     1       7.017  -5.088  23.352  0.00  0.00    -0.216 NA
ATOM     11  C   UNL     1       6.570  -5.493  24.550  0.00  0.00    +0.167 A 
ATOM     12  N   UNL     1       5.355  -6.024  24.858  0.00  0.00    -0.286 N 
ATOM     13  C   UNL     1       5.389  -6.369  26.199  0.00  0.00    +0.203 A 
ATOM     14  N   UNL     1       6.521  -6.021  26.766  0.00  0.00    -0.231 NA
ATOM     15  C   UNL     1       7.271  -5.473  25.749  0.00  0.00    +0.147 A 
BRANCH   7  16
ATOM     16  N   UNL     1       9.387  -4.847  26.828  0.00  0.00    -0.341 N 
ATOM     17  H   UNL     1      10.284  -4.420  26.649  0.00  0.00    +0.144 HD
ATOM     18  H   UNL     1       9.351  -5.641  27.457  0.00  0.00    +0.144 HD
ENDBRANCH   7  16
ENDBRANCH   2  12
BRANCH   3  19
ATOM     19  O   UNL     1       2.391  -7.811  23.385  0.00  0.00    -0.385 OA
ATOM     20  H   UNL     1       1.605  -8.285  23.719  0.00  0.00    +0.210 HD
ENDBRANCH   3  19
BRANCH   4  21
ATOM     21  O   UNL     1       0.710  -6.393  24.692  0.00  0.00    -0.386 OA
ATOM     22  H   UNL     1       0.404  -5.596  24.214  0.00  0.00    +0.210 HD
ENDBRANCH   4  21
ENDBRANCH   1   5
BRANCH   1  23
ATOM     23  O   UNL     1       3.351  -2.591  25.238  0.00  0.00    -0.284 OA
BRANCH  23  24
ATOM     24  P   UNL     1       4.997  -2.260  25.658  0.00  0.00    +0.475 P 
ATOM     25  O   UNL     1       4.649  -0.771  25.729  0.00  0.00    -0.227 OA
BRANCH  24  26
ATOM     26  O   UNL     1       5.338  -2.572  24.093  0.00  0.00    -0.302 OA
ATOM     27  H   UNL     1       5.515  -3.530  24.033  0.00  0.00    +0.222 HD
ENDBRANCH  24  26
BRANCH  24  28
ATOM     28  O   UNL     1       6.642  -1.929  26.077  0.00  0.00    -0.287 OA
BRANCH  28  29
ATOM     29  C   UNL     1       7.232  -0.872  25.300  0.00  0.00    +0.172 C 
BRANCH  29  30
ATOM     30  C   UNL     1       8.673  -1.159  24.941  0.00  0.00    +0.029 C 
BRANCH  30  31
ATOM     31  C   UNL     1       9.579   0.060  25.104  0.00  0.00    +0.002 C 
BRANCH  31  32
ATOM     32  C   UNL     1       8.802   1.369  25.300  0.00  0.00    +0.001 C 
BRANCH  32  33
ATOM     33  C   UNL     1       9.343   2.539  24.464  0.00  0.00    +0.016 C 
BRANCH  33  34
ATOM     34  C   UNL     1       8.270   3.381  23.748  0.00  0.00    +0.069 C 
ATOM     35  C   UNL     1       8.012   3.066  22.258  0.00  0.00    +0.108 C 
ATOM     36  C   UNL     1       6.836   2.094  22.149  0.00  0.00    +0.105 C 
ATOM     37  N   UNL     1       7.493   0.807  22.144  0.00  0.00    -0.294 N 
ATOM     38  H   UNL     1       7.033  -0.081  21.990  0.00  0.00    +0.151 HD
ATOM     39  C   UNL     1       8.763   0.961  21.600  0.00  0.00    +0.300 C 
ATOM     40  O   UNL     1       9.473   0.075  21.168  0.00  0.00    -0.253 OA
ATOM     41  C   UNL     1       5.815   2.355  23.235  0.00  0.00    +0.093 C 
ATOM     42  N   UNL     1       9.060   2.316  21.608  0.00  0.00    -0.294 N 
ATOM     43  H   UNL     1       9.949   2.660  21.269  0.00  0.00    +0.151 HD
ATOM     44  S   UNL     1       6.652   3.218  24.583  0.00  0.00    -0.154 S 
ENDBRANCH  33  34
ENDBRANCH  32  33
ENDBRANCH  31  32
ENDBRANCH  30  31
ENDBRANCH  29  30
ENDBRANCH  28  29
ENDBRANCH  24  28
ENDBRANCH  23  24
ENDBRANCH   1  23
TORSDOF 15
ENDMDL
MODEL 7
REMARK VINA RESULT:      -6.8      2.265      3.950
REMARK  Name = 
REMARK  15 active torsions:
REMARK  status: ('A' for Active; 'I' for Inactive)
REMARK    1  A    between atoms: N_1  and  C_2
REMARK    2  A    between atoms: N_6  and  C_7
REMARK    3  A    between atoms: C_10  and  C_12
REMARK    4  A    between atoms: C_12  and  O_13
REMARK    5  A    between atoms: O_13  and  P_14
REMARK    6  A    between atoms: P_14  and  O_15
REMARK    7  A    between atoms: P_14  and  O_17
REMARK    8  A    between atoms: O_17  and  C_18
REMARK    9  A    between atoms: C_18  and  C_19
REMARK   10  A    between atoms: C_19  and  C_20
REMARK   11  A    between atoms: C_20  and  C_21
REMARK   12  A    between atoms: C_21  and  C_22
REMARK   13  A    between atoms: C_22  and  C_23
REMARK   14  A    between atoms: C_35  and  O_37
REMARK   15  A    between atoms: C_38  and  O_40
REMARK                            x       y       z     vdW  Elec       q    Type
REMARK                         _______ _______ _______ _____ _____    ______ ____
ROOT
ATOM      1  C   UNL     1       3.674  -3.517  27.047  0.00  0.00    +0.206 C 
ENDROOT
BRANCH   1   5
ATOM      2  C   UNL     1       4.925  -6.418  26.399  0.00  0.00    +0.253 C 
ATOM      3  C   UNL     1       5.624  -6.334  27.761  0.00  0.00    +0.195 C 
ATOM      4  C   UNL     1       4.939  -5.163  28.467  0.00  0.00    +0.178 C 
ATOM      5  C   UNL     1       3.654  -4.917  27.672  0.00  0.00    +0.178 C 
ATOM      6  O   UNL     1       3.588  -5.939  26.650  0.00  0.00    -0.346 OA
BRANCH   2  12
ATOM      7  C   UNL     1       7.776  -4.042  23.247  0.00  0.00    +0.147 A 
ATOM      8  N   UNL     1       8.878  -4.035  24.031  0.00  0.00    -0.219 NA
ATOM      9  C   UNL     1       8.810  -4.630  25.239  0.00  0.00    +0.225 A 
ATOM     10  N   UNL     1       7.749  -5.226  25.821  0.00  0.00    -0.216 NA
ATOM     11  C   UNL     1       6.679  -5.205  25.012  0.00  0.00    +0.167 A 
ATOM     12  N   UNL     1       5.438  -5.714  25.245  0.00  0.00    -0.286 N 
ATOM     13  C   UNL     1       4.647  -5.375  24.161  0.00  0.00    +0.203 A 
ATOM     14  N   UNL     1       5.332  -4.748  23.232  0.00  0.00    -0.231 NA
ATOM     15  C   UNL     1       6.604  -4.633  23.748  0.00  0.00    +0.147 A 
BRANCH   7  16
ATOM     16  N   UNL     1       7.860  -3.445  22.004  0.00  0.00    -0.341 N 
ATOM     17  H   UNL     1       8.019  -4.090  21.244  0.00  0.00    +0.144 HD
ATOM     18  H   UNL     1       8.346  -2.555  21.987  0.00  0.00    +0.144 HD
ENDBRANCH   7  16
ENDBRANCH   2  12
BRANCH   3  19
ATOM     19  O   UNL     1       5.387  -7.536  28.536  0.00  0.00    -0.385 OA
ATOM     20  H   UNL     1       4.944  -7.290  29.370  0.00  0.00    +0.210 HD
ENDBRANCH   3  19
BRANCH   4  21
ATOM     21  O   UNL     1       4.622  -5.466  29.829  0.00  0.00    -0.386 OA
ATOM     22  H   UNL     1       5.261  -4.973  30.382  0.00  0.00    +0.210 HD
ENDBRANCH   4  21
ENDBRANCH   1   5
BRANCH   1  23
ATOM     23  O   UNL     1       4.686  -2.712  27.639  0.00  0.00    -0.284 OA
BRANCH  23  24
ATOM     24  P   UNL     1       5.250  -1.507  26.532  0.00  0.00    +0.475 P 
ATOM     25  O   UNL     1       4.359  -2.124  25.451  0.00  0.00    -0.227 OA
BRANCH  24  26
ATOM     26  O   UNL     1       6.647  -2.350  26.505  0.00  0.00    -0.302 OA
ATOM     27  H   UNL     1       7.269  -1.838  25.953  0.00  0.00    +0.222 HD
ENDBRANCH  24  26
BRANCH  24  28
ATOM     28  O   UNL     1       5.814  -0.303  25.426  0.00  0.00    -0.287 OA
BRANCH  28  29
ATOM     29  C   UNL     1       5.462   1.038  25.807  0.00  0.00    +0.172 C 
BRANCH  29  30
ATOM     30  C   UNL     1       6.549   2.034  25.472  0.00  0.00    +0.029 C 
BRANCH  30  31
ATOM     31  C   UNL     1       6.547   2.442  24.000  0.00  0.00    +0.002 C 
BRANCH  31  32
ATOM     32  C   UNL     1       7.867   3.079  23.547  0.00  0.00    +0.001 C 
BRANCH  32  33
ATOM     33  C   UNL     1       9.087   2.613  24.357  0.00  0.00    +0.016 C 
BRANCH  33  34
ATOM     34  C   UNL     1      10.168   1.877  23.544  0.00  0.00    +0.069 C 
ATOM     35  C   UNL     1      10.718   0.561  24.138  0.00  0.00    +0.108 C 
ATOM     36  C   UNL     1       9.948  -0.618  23.541  0.00  0.00    +0.105 C 
ATOM     37  N   UNL     1       8.883  -0.814  24.498  0.00  0.00    -0.294 N 
ATOM     38  H   UNL     1       8.218  -1.577  24.481  0.00  0.00    +0.151 HD
ATOM     39  C   UNL     1       9.329  -0.394  25.747  0.00  0.00    +0.300 C 
ATOM     40  O   UNL     1       8.834  -0.678  26.819  0.00  0.00    -0.253 OA
ATOM     41  C   UNL     1       9.556  -0.337  22.107  0.00  0.00    +0.093 C 
ATOM     42  N   UNL     1      10.461   0.381  25.548  0.00  0.00    -0.294 N 
ATOM     43  H   UNL     1      10.947   0.809  26.325  0.00  0.00    +0.151 HD
ATOM     44  S   UNL     1       9.552   1.454  21.876  0.00  0.00    -0.154 S 
ENDBRANCH  33  34
ENDBRANCH  32  33
ENDBRANCH  31  32
ENDBRANCH  30  31
ENDBRANCH  29  30
ENDBRANCH  28  29
ENDBRANCH  24  28
ENDBRANCH  23  24
ENDBRANCH   1  23
TORSDOF 15
ENDMDL
MODEL 8
REMARK VINA RESULT:      -6.7      2.127      3.159
REMARK  Name = 
REMARK  15 active torsions:
REMARK  status: ('A' for Active; 'I' for Inactive)
REMARK    1  A    between atoms: N_1  and  C_2
REMARK    2  A    between atoms: N_6  and  C_7
REMARK    3  A    between atoms: C_10  and  C_12
REMARK    4  A    between atoms: C_12  and  O_13
REMARK    5  A    between atoms: O_13  and  P_14
REMARK    6  A    between atoms: P_14  and  O_15
REMARK    7  A    between atoms: P_14  and  O_17
REMARK    8  A    between atoms: O_17  and  C_18
REMARK    9  A    between atoms: C_18  and  C_19
REMARK   10  A    between atoms: C_19  and  C_20
REMARK   11  A    between atoms: C_20  and  C_21
REMARK   12  A    between atoms: C_21  and  C_22
REMARK   13  A    between atoms: C_22  and  C_23
REMARK   14  A    between atoms: C_35  and  O_37
REMARK   15  A    between atoms: C_38  and  O_40
REMARK                            x       y       z     vdW  Elec       q    Type
REMARK                         _______ _______ _______ _____ _____    ______ ____
ROOT
ATOM      1  C   UNL     1       6.897  -2.570  25.327  0.00  0.00    +0.206 C 
ENDROOT
BRANCH   1   5
ATOM      2  C   UNL     1       8.299  -5.209  26.541  0.00  0.00    +0.253 C 
ATOM      3  C   UNL     1       9.094  -5.292  25.233  0.00  0.00    +0.195 C 
ATOM      4  C   UNL     1       8.866  -3.936  24.562  0.00  0.00    +0.178 C 
ATOM      5  C   UNL     1       8.318  -3.034  25.671  0.00  0.00    +0.178 C 
ATOM      6  O   UNL     1       8.327  -3.810  26.891  0.00  0.00    -0.346 OA
BRANCH   2  12
ATOM      7  C   UNL     1       3.921  -6.653  28.110  0.00  0.00    +0.147 A 
ATOM      8  N   UNL     1       4.221  -6.602  29.427  0.00  0.00    -0.219 NA
ATOM      9  C   UNL     1       5.455  -6.201  29.791  0.00  0.00    +0.225 A 
ATOM     10  N   UNL     1       6.494  -5.863  28.998  0.00  0.00    -0.216 NA
ATOM     11  C   UNL     1       6.154  -5.933  27.702  0.00  0.00    +0.167 A 
ATOM     12  N   UNL     1       6.926  -5.656  26.615  0.00  0.00    -0.286 N 
ATOM     13  C   UNL     1       6.173  -5.956  25.493  0.00  0.00    +0.203 A 
ATOM     14  N   UNL     1       4.955  -6.334  25.807  0.00  0.00    -0.231 NA
ATOM     15  C   UNL     1       4.927  -6.324  27.184  0.00  0.00    +0.147 A 
BRANCH   7  16
ATOM     16  N   UNL     1       2.648  -7.049  27.747  0.00  0.00    -0.341 N 
ATOM     17  H   UNL     1       2.045  -7.270  28.526  0.00  0.00    +0.144 HD
ATOM     18  H   UNL     1       2.600  -7.636  26.922  0.00  0.00    +0.144 HD
ENDBRANCH   7  16
ENDBRANCH   2  12
BRANCH   3  19
ATOM     19  O   UNL     1      10.513  -5.435  25.501  0.00  0.00    -0.385 OA
ATOM     20  H   UNL     1      11.001  -4.782  24.964  0.00  0.00    +0.210 HD
ENDBRANCH   3  19
BRANCH   4  21
ATOM     21  O   UNL     1      10.076  -3.385  24.034  0.00  0.00    -0.386 OA
ATOM     22  H   UNL     1       9.988  -3.399  23.060  0.00  0.00    +0.210 HD
ENDBRANCH   4  21
ENDBRANCH   1   5
BRANCH   1  23
ATOM     23  O   UNL     1       6.264  -1.993  26.462  0.00  0.00    -0.284 OA
BRANCH  23  24
ATOM     24  P   UNL     1       5.415  -0.548  26.034  0.00  0.00    +0.475 P 
ATOM     25  O   UNL     1       5.589  -0.916  24.559  0.00  0.00    -0.227 OA
BRANCH  24  26
ATOM     26  O   UNL     1       6.773   0.244  26.469  0.00  0.00    -0.302 OA
ATOM     27  H   UNL     1       6.559   0.736  27.284  0.00  0.00    +0.222 HD
ENDBRANCH  24  26
BRANCH  24  28
ATOM     28  O   UNL     1       4.566   0.897  25.605  0.00  0.00    -0.287 OA
BRANCH  28  29
ATOM     29  C   UNL     1       5.404   1.901  25.009  0.00  0.00    +0.172 C 
BRANCH  29  30
ATOM     30  C   UNL     1       4.714   2.627  23.875  0.00  0.00    +0.029 C 
BRANCH  30  31
ATOM     31  C   UNL     1       5.633   2.869  22.679  0.00  0.00    +0.002 C 
BRANCH  31  32
ATOM     32  C   UNL     1       6.640   1.734  22.450  0.00  0.00    +0.001 C 
BRANCH  32  33
ATOM     33  C   UNL     1       7.888   2.165  21.665  0.00  0.00    +0.016 C 
BRANCH  33  34
ATOM     34  C   UNL     1       9.169   1.374  21.990  0.00  0.00    +0.069 C 
ATOM     35  C   UNL     1      10.187   2.047  22.937  0.00  0.00    +0.108 C 
ATOM     36  C   UNL     1       9.934   1.567  24.366  0.00  0.00    +0.105 C 
ATOM     37  N   UNL     1       9.030   2.572  24.879  0.00  0.00    -0.294 N 
ATOM     38  H   UNL     1       8.714   2.635  25.838  0.00  0.00    +0.151 HD
ATOM     39  C   UNL     1       9.280   3.769  24.218  0.00  0.00    +0.300 C 
ATOM     40  O   UNL     1       8.936   4.876  24.581  0.00  0.00    -0.253 OA
ATOM     41  C   UNL     1       9.462   0.130  24.379  0.00  0.00    +0.093 C 
ATOM     42  N   UNL     1      10.023   3.474  23.085  0.00  0.00    -0.294 N 
ATOM     43  H   UNL     1      10.306   4.200  22.439  0.00  0.00    +0.151 HD
ATOM     44  S   UNL     1       8.762  -0.236  22.755  0.00  0.00    -0.154 S 
ENDBRANCH  33  34
ENDBRANCH  32  33
ENDBRANCH  31  32
ENDBRANCH  30  31
ENDBRANCH  29  30
ENDBRANCH  28  29
ENDBRANCH  24  28
ENDBRANCH  23  24
ENDBRANCH   1  23
TORSDOF 15
ENDMDL
MODEL 9
REMARK VINA RESULT:      -6.7      3.240      4.991
REMARK  Name = 
REMARK  15 active torsions:
REMARK  status: ('A' for Active; 'I' for Inactive)
REMARK    1  A    between atoms: N_1  and  C_2
REMARK    2  A    between atoms: N_6  and  C_7
REMARK    3  A    between atoms: C_10  and  C_12
REMARK    4  A    between atoms: C_12  and  O_13
REMARK    5  A    between atoms: O_13  and  P_14
REMARK    6  A    between atoms: P_14  and  O_15
REMARK    7  A    between atoms: P_14  and  O_17
REMARK    8  A    between atoms: O_17  and  C_18
REMARK    9  A    between atoms: C_18  and  C_19
REMARK   10  A    between atoms: C_19  and  C_20
REMARK   11  A    between atoms: C_20  and  C_21
REMARK   12  A    between atoms: C_21  and  C_22
REMARK   13  A    between atoms: C_22  and  C_23
REMARK   14  A    between atoms: C_35  and  O_37
REMARK   15  A    between atoms: C_38  and  O_40
REMARK                            x       y       z     vdW  Elec       q    Type
REMARK                         _______ _______ _______ _____ _____    ______ ____
ROOT
ATOM      1  C   UNL     1       4.405  -5.734  26.777  0.00  0.00    +0.206 C 
ENDROOT
BRANCH   1   5
ATOM      2  C   UNL     1       2.989  -5.531  23.886  0.00  0.00    +0.253 C 
ATOM      3  C   UNL     1       3.151  -7.052  23.788  0.00  0.00    +0.195 C 
ATOM      4  C   UNL     1       3.519  -7.488  25.207  0.00  0.00    +0.178 C 
ATOM      5  C   UNL     1       3.152  -6.296  26.095  0.00  0.00    +0.178 C 
ATOM      6  O   UNL     1       2.540  -5.304  25.239  0.00  0.00    -0.346 OA
BRANCH   2  12
ATOM      7  C   UNL     1       7.166  -3.576  22.324  0.00  0.00    +0.147 A 
ATOM      8  N   UNL     1       7.589  -4.669  21.649  0.00  0.00    -0.219 NA
ATOM      9  C   UNL     1       6.797  -5.760  21.632  0.00  0.00    +0.225 A 
ATOM     10  N   UNL     1       5.610  -5.943  22.247  0.00  0.00    -0.216 NA
ATOM     11  C   UNL     1       5.232  -4.838  22.908  0.00  0.00    +0.167 A 
ATOM     12  N   UNL     1       4.097  -4.639  23.632  0.00  0.00    -0.286 N 
ATOM     13  C   UNL     1       4.190  -3.379  24.198  0.00  0.00    +0.203 A 
ATOM     14  N   UNL     1       5.278  -2.749  23.816  0.00  0.00    -0.231 NA
ATOM     15  C   UNL     1       5.941  -3.648  23.009  0.00  0.00    +0.147 A 
BRANCH   7  16
ATOM     16  N   UNL     1       7.976  -2.457  22.322  0.00  0.00    -0.341 N 
ATOM     17  H   UNL     1       7.616  -1.684  22.861  0.00  0.00    +0.144 HD
ATOM     18  H   UNL     1       8.427  -2.255  21.436  0.00  0.00    +0.144 HD
ENDBRANCH   7  16
ENDBRANCH   2  12
BRANCH   3  19
ATOM     19  O   UNL     1       1.895  -7.682  23.428  0.00  0.00    -0.385 OA
ATOM     20  H   UNL     1       1.835  -8.543  23.883  0.00  0.00    +0.210 HD
ENDBRANCH   3  19
BRANCH   4  21
ATOM     21  O   UNL     1       2.792  -8.649  25.620  0.00  0.00    -0.386 OA
ATOM     22  H   UNL     1       1.888  -8.557  25.258  0.00  0.00    +0.210 HD
ENDBRANCH   4  21
ENDBRANCH   1   5
BRANCH   1  23
ATOM     23  O   UNL     1       5.585  -6.261  26.182  0.00  0.00    -0.284 OA
BRANCH  23  24
ATOM     24  P   UNL     1       6.952  -5.251  26.511  0.00  0.00    +0.475 P 
ATOM     25  O   UNL     1       7.152  -6.001  27.830  0.00  0.00    -0.227 OA
BRANCH  24  26
ATOM     26  O   UNL     1       5.864  -4.074  26.818  0.00  0.00    -0.302 OA
ATOM     27  H   UNL     1       5.686  -3.631  25.967  0.00  0.00    +0.222 HD
ENDBRANCH  24  26
BRANCH  24  28
ATOM     28  O   UNL     1       8.317  -4.241  26.840  0.00  0.00    -0.287 OA
BRANCH  28  29
ATOM     29  C   UNL     1       8.734  -3.454  25.712  0.00  0.00    +0.172 C 
BRANCH  29  30
ATOM     30  C   UNL     1       8.489  -1.976  25.921  0.00  0.00    +0.029 C 
BRANCH  30  31
ATOM     31  C   UNL     1       9.422  -1.096  25.090  0.00  0.00    +0.002 C 
BRANCH  31  32
ATOM     32  C   UNL     1       9.182   0.405  25.299  0.00  0.00    +0.001 C 
BRANCH  32  33
ATOM     33  C   UNL     1      10.203   1.299  24.581  0.00  0.00    +0.016 C 
BRANCH  33  34
ATOM     34  C   UNL     1       9.672   2.677  24.143  0.00  0.00    +0.069 C 
ATOM     35  C   UNL     1       9.340   2.857  22.646  0.00  0.00    +0.108 C 
ATOM     36  C   UNL     1       7.850   2.591  22.428  0.00  0.00    +0.105 C 
ATOM     37  N   UNL     1       7.828   1.182  22.102  0.00  0.00    -0.294 N 
ATOM     38  H   UNL     1       7.010   0.667  21.802  0.00  0.00    +0.151 HD
ATOM     39  C   UNL     1       9.038   0.848  21.504  0.00  0.00    +0.300 C 
ATOM     40  O   UNL     1       9.262  -0.145  20.842  0.00  0.00    -0.253 OA
ATOM     41  C   UNL     1       7.038   3.045  23.621  0.00  0.00    +0.093 C 
ATOM     42  N   UNL     1       9.933   1.872  21.772  0.00  0.00    -0.294 N 
ATOM     43  H   UNL     1      10.890   1.832  21.445  0.00  0.00    +0.151 HD
ATOM     44  S   UNL     1       8.141   3.101  25.049  0.00  0.00    -0.154 S 
ENDBRANCH  33  34
ENDBRANCH  32  33
ENDBRANCH  31  32
ENDBRANCH  30  31
ENDBRANCH  29  30
ENDBRANCH  28  29
ENDBRANCH  24  28
ENDBRANCH  23  24
ENDBRANCH   1  23
TORSDOF 15
ENDMDL
