MODEL 1
REMARK VINA RESULT:      -7.5      0.000      0.000
REMARK  Name = 
REMARK  4 active torsions:
REMARK  status: ('A' for Active; 'I' for Inactive)
REMARK    1  A    between atoms: C_2  and  C_6
REMARK    2  A    between atoms: C_11  and  C_15
REMARK    3  A    between atoms: C_17  and  O_18
REMARK    4  A    between atoms: O_18  and  C_19
REMARK                            x       y       z     vdW  Elec       q    Type
REMARK                         _______ _______ _______ _____ _____    ______ ____
ROOT
ATOM      1  C   UNL     1      11.383   4.830  23.704  0.00  0.00    +0.063 A 
ATOM      2  C   UNL     1      11.585   3.458  23.457  0.00  0.00    +0.045 A 
ATOM      3  C   UNL     1      10.517   2.568  23.624  0.00  0.00    +0.090 A 
ATOM      4  C   UNL     1       9.286   3.057  24.032  0.00  0.00    +0.067 A 
ATOM      5  N   UNL     1       8.506   1.940  24.095  0.00  0.00    -0.338 N 
ATOM      6  H   UNL     1       7.515   1.834  24.331  0.00  0.00    +0.167 HD
ATOM      7  C   UNL     1       9.247   0.846  23.714  0.00  0.00    +0.139 A 
ATOM      8  C   UNL     1       9.032   4.399  24.286  0.00  0.00    +0.028 A 
ATOM      9  N   UNL     1      10.491   1.214  23.436  0.00  0.00    -0.228 NA
ATOM     10  C   UNL     1      10.108   5.277  24.108  0.00  0.00    +0.018 A 
ENDROOT
BRANCH   1  14
ATOM     11  N   UNL     1      13.303   5.686  22.514  0.00  0.00    -0.250 N 
ATOM     12  H   UNL     1      13.127   4.987  21.797  0.00  0.00    +0.288 HD
ATOM     13  H   UNL     1      14.099   6.294  22.383  0.00  0.00    +0.288 HD
ATOM     14  C   UNL     1      12.501   5.775  23.554  0.00  0.00    +0.266 C 
ATOM     15  N   UNL     1      12.700   6.699  24.471  0.00  0.00    -0.288 N 
ATOM     16  H   UNL     1      13.452   7.370  24.414  0.00  0.00    +0.301 HD
ATOM     17  H   UNL     1      12.100   6.733  25.289  0.00  0.00    +0.301 HD
ENDBRANCH   1  14
BRANCH   7  18
ATOM     18  C   UNL     1       8.638  -0.495  23.625  0.00  0.00    +0.013 A 
ATOM     19  C   UNL     1       7.315  -0.679  23.100  0.00  0.00    -0.097 A 
ATOM     20  O   UNL     1       6.543   0.266  22.704  0.00  0.00    -0.873 OA
ATOM     21  C   UNL     1       6.888  -2.020  23.045  0.00  0.00    -0.004 A 
ATOM     22  C   UNL     1       7.687  -3.103  23.438  0.00  0.00    +0.045 A 
ATOM     23  C   UNL     1       8.972  -2.892  23.920  0.00  0.00    +0.131 A 
ATOM     24  C   UNL     1       9.425  -1.587  24.054  0.00  0.00    +0.057 A 
BRANCH  23  25
ATOM     25  O   UNL     1       9.652  -4.011  24.284  0.00  0.00    -0.406 OA
BRANCH  25  26
ATOM     26  C   UNL     1       9.382  -4.604  25.544  0.00  0.00    +0.575 C 
ATOM     27  F   UNL     1      10.507  -5.217  25.985  0.00  0.00    -0.133 F 
ATOM     28  F   UNL     1       8.435  -5.560  25.389  0.00  0.00    -0.133 F 
ATOM     29  F   UNL     1       8.974  -3.758  26.512  0.00  0.00    -0.133 F 
ENDBRANCH  25  26
ENDBRANCH  23  25
ENDBRANCH   7  18
TORSDOF 4
ENDMDL
MODEL 2
REMARK VINA RESULT:      -7.3      3.078      4.014
REMARK  Name = 
REMARK  4 active torsions:
REMARK  status: ('A' for Active; 'I' for Inactive)
REMARK    1  A    between atoms: C_2  and  C_6
REMARK    2  A    between atoms: C_11  and  C_15
REMARK    3  A    between atoms: C_17  and  O_18
REMARK    4  A    between atoms: O_18  and  C_19
REMARK                            x       y       z     vdW  Elec       q    Type
REMARK                         _______ _______ _______ _____ _____    ______ ____
ROOT
ATOM      1  C   UNL     1       7.760   3.787  22.810  0.00  0.00    +0.063 A 
ATOM      2  C   UNL     1       7.138   2.548  22.564  0.00  0.00    +0.045 A 
ATOM      3  C   UNL     1       7.726   1.377  23.057  0.00  0.00    +0.090 A 
ATOM      4  C   UNL     1       8.909   1.463  23.775  0.00  0.00    +0.067 A 
ATOM      5  N   UNL     1       9.188   0.165  24.085  0.00  0.00    -0.338 N 
ATOM      6  H   UNL     1       9.957  -0.238  24.627  0.00  0.00    +0.167 HD
ATOM      7  C   UNL     1       8.193  -0.645  23.589  0.00  0.00    +0.139 A 
ATOM      8  C   UNL     1       9.562   2.659  24.049  0.00  0.00    +0.028 A 
ATOM      9  N   UNL     1       7.294   0.084  22.941  0.00  0.00    -0.228 NA
ATOM     10  C   UNL     1       8.957   3.821  23.554  0.00  0.00    +0.018 A 
ENDROOT
BRANCH   1  14
ATOM     11  N   UNL     1       7.943   6.002  21.864  0.00  0.00    -0.250 N 
ATOM     12  H   UNL     1       8.952   5.887  21.878  0.00  0.00    +0.288 HD
ATOM     13  H   UNL     1       7.581   6.880  21.520  0.00  0.00    +0.288 HD
ATOM     14  C   UNL     1       7.166   5.024  22.280  0.00  0.00    +0.266 C 
ATOM     15  N   UNL     1       5.856   5.150  22.235  0.00  0.00    -0.288 N 
ATOM     16  H   UNL     1       5.400   5.978  21.880  0.00  0.00    +0.301 HD
ATOM     17  H   UNL     1       5.267   4.406  22.595  0.00  0.00    +0.301 HD
ENDBRANCH   1  14
BRANCH   7  18
ATOM     18  C   UNL     1       8.201  -2.100  23.833  0.00  0.00    +0.013 A 
ATOM     19  C   UNL     1       8.432  -2.635  25.144  0.00  0.00    -0.097 A 
ATOM     20  O   UNL     1       8.680  -1.935  26.190  0.00  0.00    -0.873 OA
ATOM     21  C   UNL     1       8.371  -4.040  25.222  0.00  0.00    -0.004 A 
ATOM     22  C   UNL     1       8.083  -4.864  24.126  0.00  0.00    +0.045 A 
ATOM     23  C   UNL     1       7.841  -4.313  22.875  0.00  0.00    +0.131 A 
ATOM     24  C   UNL     1       7.946  -2.938  22.723  0.00  0.00    +0.057 A 
BRANCH  23  25
ATOM     25  O   UNL     1       7.584  -5.205  21.881  0.00  0.00    -0.406 OA
BRANCH  25  26
ATOM     26  C   UNL     1       6.244  -5.606  21.644  0.00  0.00    +0.575 C 
ATOM     27  F   UNL     1       6.034  -6.797  22.254  0.00  0.00    -0.133 F 
ATOM     28  F   UNL     1       6.068  -5.795  20.315  0.00  0.00    -0.133 F 
ATOM     29  F   UNL     1       5.294  -4.754  22.080  0.00  0.00    -0.133 F 
ENDBRANCH  25  26
ENDBRANCH  23  25
ENDBRANCH   7  18
TORSDOF 4
ENDMDL
MODEL 3
REMARK VINA RESULT:      -7.1      5.016      8.806
REMARK  Name = 
REMARK  4 active torsions:
REMARK  status: ('A' for Active; 'I' for Inactive)
REMARK    1  A    between atoms: C_2  and  C_6
REMARK    2  A    between atoms: C_11  and  C_15
REMARK    3  A    between atoms: C_17  and  O_18
REMARK    4  A    between atoms: O_18  and  C_19
REMARK                            x       y       z     vdW  Elec       q    Type
REMARK                         _______ _______ _______ _____ _____    ______ ____
ROOT
ATOM      1  C   UNL     1       6.199  -5.567  26.248  0.00  0.00    +0.063 A 
ATOM      2  C   UNL     1       5.873  -4.682  25.203  0.00  0.00    +0.045 A 
ATOM      3  C   UNL     1       6.774  -3.667  24.859  0.00  0.00    +0.090 A 
ATOM      4  C   UNL     1       7.967  -3.556  25.555  0.00  0.00    +0.067 A 
ATOM      5  N   UNL     1       8.576  -2.485  24.972  0.00  0.00    -0.338 N 
ATOM      6  H   UNL     1       9.489  -2.059  25.155  0.00  0.00    +0.167 HD
ATOM      7  C   UNL     1       7.781  -2.006  23.957  0.00  0.00    +0.139 A 
ATOM      8  C   UNL     1       8.340  -4.403  26.592  0.00  0.00    +0.028 A 
ATOM      9  N   UNL     1       6.662  -2.714  23.884  0.00  0.00    -0.228 NA
ATOM     10  C   UNL     1       7.430  -5.416  26.920  0.00  0.00    +0.018 A 
ENDROOT
BRANCH   1  14
ATOM     11  N   UNL     1       4.318  -7.014  25.796  0.00  0.00    -0.250 N 
ATOM     12  H   UNL     1       4.275  -6.608  24.865  0.00  0.00    +0.288 HD
ATOM     13  H   UNL     1       3.630  -7.716  26.028  0.00  0.00    +0.288 HD
ATOM     14  C   UNL     1       5.253  -6.625  26.637  0.00  0.00    +0.266 C 
ATOM     15  N   UNL     1       5.340  -7.169  27.833  0.00  0.00    -0.288 N 
ATOM     16  H   UNL     1       4.716  -7.898  28.147  0.00  0.00    +0.301 HD
ATOM     17  H   UNL     1       6.039  -6.834  28.488  0.00  0.00    +0.301 HD
ENDBRANCH   1  14
BRANCH   7  18
ATOM     18  C   UNL     1       8.222  -0.885  23.106  0.00  0.00    +0.013 A 
ATOM     19  C   UNL     1       9.467  -0.935  22.393  0.00  0.00    -0.097 A 
ATOM     20  O   UNL     1      10.307  -1.903  22.447  0.00  0.00    -0.873 OA
ATOM     21  C   UNL     1       9.730   0.195  21.594  0.00  0.00    -0.004 A 
ATOM     22  C   UNL     1       8.848   1.277  21.470  0.00  0.00    +0.045 A 
ATOM     23  C   UNL     1       7.640   1.284  22.155  0.00  0.00    +0.131 A 
ATOM     24  C   UNL     1       7.353   0.225  23.005  0.00  0.00    +0.057 A 
BRANCH  23  25
ATOM     25  O   UNL     1       6.868   2.388  21.971  0.00  0.00    -0.406 OA
BRANCH  25  26
ATOM     26  C   UNL     1       7.134   3.551  22.738  0.00  0.00    +0.575 C 
ATOM     27  F   UNL     1       5.997   3.920  23.375  0.00  0.00    -0.133 F 
ATOM     28  F   UNL     1       7.476   4.562  21.904  0.00  0.00    -0.133 F 
ATOM     29  F   UNL     1       8.101   3.427  23.671  0.00  0.00    -0.133 F 
ENDBRANCH  25  26
ENDBRANCH  23  25
ENDBRANCH   7  18
TORSDOF 4
ENDMDL
MODEL 4
REMARK VINA RESULT:      -7.1      5.606      9.739
REMARK  Name = 
REMARK  4 active torsions:
REMARK  status: ('A' for Active; 'I' for Inactive)
REMARK    1  A    between atoms: C_2  and  C_6
REMARK    2  A    between atoms: C_11  and  C_15
REMARK    3  A    between atoms: C_17  and  O_18
REMARK    4  A    between atoms: O_18  and  C_19
REMARK                            x       y       z     vdW  Elec       q    Type
REMARK                         _______ _______ _______ _____ _____    ______ ____
ROOT
ATOM      1  C   UNL     1       3.741  -7.121  24.761  0.00  0.00    +0.063 A 
ATOM      2  C   UNL     1       4.327  -6.262  23.811  0.00  0.00    +0.045 A 
ATOM      3  C   UNL     1       5.375  -5.421  24.203  0.00  0.00    +0.090 A 
ATOM      4  C   UNL     1       5.812  -5.451  25.518  0.00  0.00    +0.067 A 
ATOM      5  N   UNL     1       6.811  -4.524  25.542  0.00  0.00    -0.338 N 
ATOM      6  H   UNL     1       7.429  -4.232  26.305  0.00  0.00    +0.167 HD
ATOM      7  C   UNL     1       6.969  -3.993  24.283  0.00  0.00    +0.139 A 
ATOM      8  C   UNL     1       5.272  -6.280  26.494  0.00  0.00    +0.028 A 
ATOM      9  N   UNL     1       6.083  -4.523  23.451  0.00  0.00    -0.228 NA
ATOM     10  C   UNL     1       4.228  -7.119  26.084  0.00  0.00    +0.018 A 
ENDROOT
BRANCH   1  14
ATOM     11  N   UNL     1       2.125  -7.922  23.154  0.00  0.00    -0.250 N 
ATOM     12  H   UNL     1       2.536  -7.286  22.476  0.00  0.00    +0.288 HD
ATOM     13  H   UNL     1       1.340  -8.481  22.850  0.00  0.00    +0.288 HD
ATOM     14  C   UNL     1       2.624  -7.995  24.370  0.00  0.00    +0.266 C 
ATOM     15  N   UNL     1       2.121  -8.840  25.246  0.00  0.00    -0.288 N 
ATOM     16  H   UNL     1       1.356  -9.461  25.027  0.00  0.00    +0.301 HD
ATOM     17  H   UNL     1       2.487  -8.860  26.192  0.00  0.00    +0.301 HD
ENDBRANCH   1  14
BRANCH   7  18
ATOM     18  C   UNL     1       8.029  -3.006  23.998  0.00  0.00    +0.013 A 
ATOM     19  C   UNL     1       9.416  -3.332  24.172  0.00  0.00    -0.097 A 
ATOM     20  O   UNL     1       9.859  -4.454  24.610  0.00  0.00    -0.873 OA
ATOM     21  C   UNL     1      10.308  -2.299  23.823  0.00  0.00    -0.004 A 
ATOM     22  C   UNL     1       9.896  -1.059  23.318  0.00  0.00    +0.045 A 
ATOM     23  C   UNL     1       8.546  -0.784  23.139  0.00  0.00    +0.131 A 
ATOM     24  C   UNL     1       7.617  -1.741  23.522  0.00  0.00    +0.057 A 
BRANCH  23  25
ATOM     25  O   UNL     1       8.259   0.453  22.655  0.00  0.00    -0.406 OA
BRANCH  25  26
ATOM     26  C   UNL     1       8.903   0.898  21.471  0.00  0.00    +0.575 C 
ATOM     27  F   UNL     1       8.066   1.732  20.809  0.00  0.00    -0.133 F 
ATOM     28  F   UNL     1       9.133  -0.167  20.666  0.00  0.00    -0.133 F 
ATOM     29  F   UNL     1      10.069   1.551  21.651  0.00  0.00    -0.133 F 
ENDBRANCH  25  26
ENDBRANCH  23  25
ENDBRANCH   7  18
TORSDOF 4
ENDMDL
MODEL 5
REMARK VINA RESULT:      -7.1      2.815      3.905
REMARK  Name = 
REMARK  4 active torsions:
REMARK  status: ('A' for Active; 'I' for Inactive)
REMARK    1  A    between atoms: C_2  and  C_6
REMARK    2  A    between atoms: C_11  and  C_15
REMARK    3  A    between atoms: C_17  and  O_18
REMARK    4  A    between atoms: O_18  and  C_19
REMARK                            x       y       z     vdW  Elec       q    Type
REMARK                         _______ _______ _______ _____ _____    ______ ____
ROOT
ATOM      1  C   UNL     1       9.478   1.968  23.197  0.00  0.00    +0.063 A 
ATOM      2  C   UNL     1       8.705   1.190  24.080  0.00  0.00    +0.045 A 
ATOM      3  C   UNL     1       8.250  -0.067  23.665  0.00  0.00    +0.090 A 
ATOM      4  C   UNL     1       8.568  -0.517  22.394  0.00  0.00    +0.067 A 
ATOM      5  N   UNL     1       7.971  -1.741  22.330  0.00  0.00    -0.338 N 
ATOM      6  H   UNL     1       7.964  -2.439  21.582  0.00  0.00    +0.167 HD
ATOM      7  C   UNL     1       7.350  -2.006  23.529  0.00  0.00    +0.139 A 
ATOM      8  C   UNL     1       9.329   0.209  21.484  0.00  0.00    +0.028 A 
ATOM      9  N   UNL     1       7.500  -0.980  24.355  0.00  0.00    -0.228 NA
ATOM     10  C   UNL     1       9.781   1.461  21.917  0.00  0.00    +0.018 A 
ENDROOT
BRANCH   1  14
ATOM     11  N   UNL     1      11.110   3.750  23.192  0.00  0.00    -0.250 N 
ATOM     12  H   UNL     1      11.669   3.189  22.555  0.00  0.00    +0.288 HD
ATOM     13  H   UNL     1      11.485   4.645  23.472  0.00  0.00    +0.288 HD
ATOM     14  C   UNL     1       9.945   3.301  23.611  0.00  0.00    +0.266 C 
ATOM     15  N   UNL     1       9.198   4.034  24.409  0.00  0.00    -0.288 N 
ATOM     16  H   UNL     1       9.473   4.954  24.721  0.00  0.00    +0.301 HD
ATOM     17  H   UNL     1       8.320   3.663  24.758  0.00  0.00    +0.301 HD
ENDBRANCH   1  14
BRANCH   7  18
ATOM     18  C   UNL     1       6.675  -3.296  23.769  0.00  0.00    +0.013 A 
ATOM     19  C   UNL     1       5.742  -3.837  22.822  0.00  0.00    -0.097 A 
ATOM     20  O   UNL     1       5.386  -3.264  21.731  0.00  0.00    -0.873 OA
ATOM     21  C   UNL     1       5.211  -5.092  23.176  0.00  0.00    -0.004 A 
ATOM     22  C   UNL     1       5.571  -5.785  24.340  0.00  0.00    +0.045 A 
ATOM     23  C   UNL     1       6.494  -5.243  25.224  0.00  0.00    +0.131 A 
ATOM     24  C   UNL     1       7.008  -3.982  24.959  0.00  0.00    +0.057 A 
BRANCH  23  25
ATOM     25  O   UNL     1       6.761  -5.995  26.326  0.00  0.00    -0.406 OA
BRANCH  25  26
ATOM     26  C   UNL     1       5.830  -6.006  27.396  0.00  0.00    +0.575 C 
ATOM     27  F   UNL     1       6.511  -6.108  28.562  0.00  0.00    -0.133 F 
ATOM     28  F   UNL     1       5.046  -7.105  27.288  0.00  0.00    -0.133 F 
ATOM     29  F   UNL     1       5.031  -4.923  27.485  0.00  0.00    -0.133 F 
ENDBRANCH  25  26
ENDBRANCH  23  25
ENDBRANCH   7  18
TORSDOF 4
ENDMDL
MODEL 6
REMARK VINA RESULT:      -7.1      2.590      3.321
REMARK  Name = 
REMARK  4 active torsions:
REMARK  status: ('A' for Active; 'I' for Inactive)
REMARK    1  A    between atoms: C_2  and  C_6
REMARK    2  A    between atoms: C_11  and  C_15
REMARK    3  A    between atoms: C_17  and  O_18
REMARK    4  A    between atoms: O_18  and  C_19
REMARK                            x       y       z     vdW  Elec       q    Type
REMARK                         _______ _______ _______ _____ _____    ______ ____
ROOT
ATOM      1  C   UNL     1      10.017   3.532  23.779  0.00  0.00    +0.063 A 
ATOM      2  C   UNL     1      10.411   2.221  23.446  0.00  0.00    +0.045 A 
ATOM      3  C   UNL     1       9.626   1.142  23.870  0.00  0.00    +0.090 A 
ATOM      4  C   UNL     1       8.480   1.388  24.610  0.00  0.00    +0.067 A 
ATOM      5  N   UNL     1       7.983   0.141  24.849  0.00  0.00    -0.338 N 
ATOM      6  H   UNL     1       7.135  -0.153  25.340  0.00  0.00    +0.167 HD
ATOM      7  C   UNL     1       8.794  -0.794  24.250  0.00  0.00    +0.139 A 
ATOM      8  C   UNL     1       8.045   2.660  24.963  0.00  0.00    +0.028 A 
ATOM      9  N   UNL     1       9.818  -0.195  23.656  0.00  0.00    -0.228 NA
ATOM     10  C   UNL     1       8.838   3.728  24.526  0.00  0.00    +0.018 A 
ENDROOT
BRANCH   1  14
ATOM     11  N   UNL     1      10.325   5.885  23.326  0.00  0.00    -0.250 N 
ATOM     12  H   UNL     1       9.365   6.032  23.624  0.00  0.00    +0.288 HD
ATOM     13  H   UNL     1      10.845   6.695  23.018  0.00  0.00    +0.288 HD
ATOM     14  C   UNL     1      10.843   4.675  23.360  0.00  0.00    +0.266 C 
ATOM     15  N   UNL     1      12.097   4.478  23.008  0.00  0.00    -0.288 N 
ATOM     16  H   UNL     1      12.705   5.228  22.713  0.00  0.00    +0.301 HD
ATOM     17  H   UNL     1      12.475   3.536  23.000  0.00  0.00    +0.301 HD
ENDBRANCH   1  14
BRANCH   7  18
ATOM     18  C   UNL     1       8.460  -2.232  24.289  0.00  0.00    +0.013 A 
ATOM     19  C   UNL     1       8.361  -2.940  25.534  0.00  0.00    -0.097 A 
ATOM     20  O   UNL     1       8.578  -2.429  26.690  0.00  0.00    -0.873 OA
ATOM     21  C   UNL     1       7.998  -4.295  25.408  0.00  0.00    -0.004 A 
ATOM     22  C   UNL     1       7.725  -4.912  24.180  0.00  0.00    +0.045 A 
ATOM     23  C   UNL     1       7.807  -4.192  22.996  0.00  0.00    +0.131 A 
ATOM     24  C   UNL     1       8.218  -2.868  23.051  0.00  0.00    +0.057 A 
BRANCH  23  25
ATOM     25  O   UNL     1       7.533  -4.893  21.863  0.00  0.00    -0.406 OA
BRANCH  25  26
ATOM     26  C   UNL     1       6.224  -5.404  21.668  0.00  0.00    +0.575 C 
ATOM     27  F   UNL     1       6.020  -5.577  20.340  0.00  0.00    -0.133 F 
ATOM     28  F   UNL     1       5.324  -4.489  22.099  0.00  0.00    -0.133 F 
ATOM     29  F   UNL     1       5.959  -6.578  22.276  0.00  0.00    -0.133 F 
ENDBRANCH  25  26
ENDBRANCH  23  25
ENDBRANCH   7  18
TORSDOF 4
ENDMDL
MODEL 7
REMARK VINA RESULT:      -6.9      2.863      4.162
REMARK  Name = 
REMARK  4 active torsions:
REMARK  status: ('A' for Active; 'I' for Inactive)
REMARK    1  A    between atoms: C_2  and  C_6
REMARK    2  A    between atoms: C_11  and  C_15
REMARK    3  A    between atoms: C_17  and  O_18
REMARK    4  A    between atoms: O_18  and  C_19
REMARK                            x       y       z     vdW  Elec       q    Type
REMARK                         _______ _______ _______ _____ _____    ______ ____
ROOT
ATOM      1  C   UNL     1      10.126   2.344  23.384  0.00  0.00    +0.063 A 
ATOM      2  C   UNL     1       9.765   1.656  24.559  0.00  0.00    +0.045 A 
ATOM      3  C   UNL     1       9.387   0.310  24.475  0.00  0.00    +0.090 A 
ATOM      4  C   UNL     1       9.375  -0.314  23.239  0.00  0.00    +0.067 A 
ATOM      5  N   UNL     1       8.962  -1.581  23.526  0.00  0.00    -0.338 N 
ATOM      6  H   UNL     1       8.832  -2.392  22.916  0.00  0.00    +0.167 HD
ATOM      7  C   UNL     1       8.766  -1.698  24.883  0.00  0.00    +0.139 A 
ATOM      8  C   UNL     1       9.724   0.316  22.050  0.00  0.00    +0.028 A 
ATOM      9  N   UNL     1       9.009  -0.539  25.479  0.00  0.00    -0.228 NA
ATOM     10  C   UNL     1      10.105   1.660  22.151  0.00  0.00    +0.018 A 
ENDROOT
BRANCH   1  14
ATOM     11  N   UNL     1      11.663   4.161  22.971  0.00  0.00    -0.250 N 
ATOM     12  H   UNL     1      12.280   3.491  22.520  0.00  0.00    +0.288 HD
ATOM     13  H   UNL     1      11.978   5.120  23.020  0.00  0.00    +0.288 HD
ATOM     14  C   UNL     1      10.504   3.764  23.452  0.00  0.00    +0.266 C 
ATOM     15  N   UNL     1       9.682   4.631  24.007  0.00  0.00    -0.288 N 
ATOM     16  H   UNL     1       9.895   5.615  24.078  0.00  0.00    +0.301 HD
ATOM     17  H   UNL     1       8.809   4.308  24.410  0.00  0.00    +0.301 HD
ENDBRANCH   1  14
BRANCH   7  18
ATOM     18  C   UNL     1       8.378  -2.987  25.490  0.00  0.00    +0.013 A 
ATOM     19  C   UNL     1       9.130  -4.184  25.242  0.00  0.00    -0.097 A 
ATOM     20  O   UNL     1      10.153  -4.263  24.472  0.00  0.00    -0.873 OA
ATOM     21  C   UNL     1       8.657  -5.323  25.922  0.00  0.00    -0.004 A 
ATOM     22  C   UNL     1       7.562  -5.303  26.795  0.00  0.00    +0.045 A 
ATOM     23  C   UNL     1       6.870  -4.123  27.031  0.00  0.00    +0.131 A 
ATOM     24  C   UNL     1       7.252  -2.980  26.343  0.00  0.00    +0.057 A 
BRANCH  23  25
ATOM     25  O   UNL     1       5.817  -4.221  27.886  0.00  0.00    -0.406 OA
BRANCH  25  26
ATOM     26  C   UNL     1       4.564  -4.664  27.389  0.00  0.00    +0.575 C 
ATOM     27  F   UNL     1       3.588  -3.893  27.926  0.00  0.00    -0.133 F 
ATOM     28  F   UNL     1       4.348  -5.935  27.802  0.00  0.00    -0.133 F 
ATOM     29  F   UNL     1       4.421  -4.624  26.048  0.00  0.00    -0.133 F 
ENDBRANCH  25  26
ENDBRANCH  23  25
ENDBRANCH   7  18
TORSDOF 4
ENDMDL
MODEL 8
REMARK VINA RESULT:      -6.9      5.121      9.124
REMARK  Name = 
REMARK  4 active torsions:
REMARK  status: ('A' for Active; 'I' for Inactive)
REMARK    1  A    between atoms: C_2  and  C_6
REMARK    2  A    between atoms: C_11  and  C_15
REMARK    3  A    between atoms: C_17  and  O_18
REMARK    4  A    between atoms: O_18  and  C_19
REMARK                            x       y       z     vdW  Elec       q    Type
REMARK                         _______ _______ _______ _____ _____    ______ ____
ROOT
ATOM      1  C   UNL     1       5.069  -6.120  25.038  0.00  0.00    +0.063 A 
ATOM      2  C   UNL     1       5.951  -5.092  25.420  0.00  0.00    +0.045 A 
ATOM      3  C   UNL     1       6.513  -4.270  24.436  0.00  0.00    +0.090 A 
ATOM      4  C   UNL     1       6.191  -4.489  23.106  0.00  0.00    +0.067 A 
ATOM      5  N   UNL     1       6.905  -3.535  22.444  0.00  0.00    -0.338 N 
ATOM      6  H   UNL     1       6.951  -3.313  21.446  0.00  0.00    +0.167 HD
ATOM      7  C   UNL     1       7.598  -2.773  23.356  0.00  0.00    +0.139 A 
ATOM      8  C   UNL     1       5.325  -5.487  22.674  0.00  0.00    +0.028 A 
ATOM      9  N   UNL     1       7.379  -3.222  24.584  0.00  0.00    -0.228 NA
ATOM     10  C   UNL     1       4.766  -6.295  23.672  0.00  0.00    +0.018 A 
ENDROOT
BRANCH   1  14
ATOM     11  N   UNL     1       5.070  -7.131  27.232  0.00  0.00    -0.250 N 
ATOM     12  H   UNL     1       5.902  -6.587  27.443  0.00  0.00    +0.288 HD
ATOM     13  H   UNL     1       4.724  -7.748  27.953  0.00  0.00    +0.288 HD
ATOM     14  C   UNL     1       4.487  -7.006  26.059  0.00  0.00    +0.266 C 
ATOM     15  N   UNL     1       3.388  -7.679  25.787  0.00  0.00    -0.288 N 
ATOM     16  H   UNL     1       2.950  -8.298  26.452  0.00  0.00    +0.301 HD
ATOM     17  H   UNL     1       2.969  -7.606  24.865  0.00  0.00    +0.301 HD
ENDBRANCH   1  14
BRANCH   7  18
ATOM     18  C   UNL     1       8.409  -1.617  22.924  0.00  0.00    +0.013 A 
ATOM     19  C   UNL     1       9.843  -1.682  22.896  0.00  0.00    -0.097 A 
ATOM     20  O   UNL     1      10.540  -2.695  23.261  0.00  0.00    -0.873 OA
ATOM     21  C   UNL     1      10.472  -0.513  22.426  0.00  0.00    -0.004 A 
ATOM     22  C   UNL     1       9.773   0.620  21.990  0.00  0.00    +0.045 A 
ATOM     23  C   UNL     1       8.384   0.642  22.008  0.00  0.00    +0.131 A 
ATOM     24  C   UNL     1       7.710  -0.459  22.517  0.00  0.00    +0.057 A 
BRANCH  23  25
ATOM     25  O   UNL     1       7.810   1.795  21.575  0.00  0.00    -0.406 OA
BRANCH  25  26
ATOM     26  C   UNL     1       7.522   2.818  22.515  0.00  0.00    +0.575 C 
ATOM     27  F   UNL     1       6.568   3.628  21.996  0.00  0.00    -0.133 F 
ATOM     28  F   UNL     1       8.632   3.571  22.704  0.00  0.00    -0.133 F 
ATOM     29  F   UNL     1       7.086   2.397  23.720  0.00  0.00    -0.133 F 
ENDBRANCH  25  26
ENDBRANCH  23  25
ENDBRANCH   7  18
TORSDOF 4
ENDMDL
MODEL 9
REMARK VINA RESULT:      -6.9      3.702      5.501
REMARK  Name = 
REMARK  4 active torsions:
REMARK  status: ('A' for Active; 'I' for Inactive)
REMARK    1  A    between atoms: C_2  and  C_6
REMARK    2  A    between atoms: C_11  and  C_15
REMARK    3  A    between atoms: C_17  and  O_18
REMARK    4  A    between atoms: O_18  and  C_19
REMARK                            x       y       z     vdW  Elec       q    Type
REMARK                         _______ _______ _______ _____ _____    ______ ____
ROOT
ATOM      1  C   UNL     1       8.769   0.353  22.295  0.00  0.00    +0.063 A 
ATOM      2  C   UNL     1       7.528  -0.135  22.747  0.00  0.00    +0.045 A 
ATOM      3  C   UNL     1       7.399  -1.494  23.057  0.00  0.00    +0.090 A 
ATOM      4  C   UNL     1       8.495  -2.330  22.911  0.00  0.00    +0.067 A 
ATOM      5  N   UNL     1       8.017  -3.550  23.286  0.00  0.00    -0.338 N 
ATOM      6  H   UNL     1       8.489  -4.456  23.354  0.00  0.00    +0.167 HD
ATOM      7  C   UNL     1       6.700  -3.426  23.662  0.00  0.00    +0.139 A 
ATOM      8  C   UNL     1       9.742  -1.900  22.472  0.00  0.00    +0.028 A 
ATOM      9  N   UNL     1       6.300  -2.170  23.512  0.00  0.00    -0.228 NA
ATOM     10  C   UNL     1       9.856  -0.537  22.172  0.00  0.00    +0.018 A 
ENDROOT
BRANCH   1  14
ATOM     11  N   UNL     1       7.852   2.548  21.873  0.00  0.00    -0.250 N 
ATOM     12  H   UNL     1       6.936   2.169  22.096  0.00  0.00    +0.288 HD
ATOM     13  H   UNL     1       7.900   3.521  21.608  0.00  0.00    +0.288 HD
ATOM     14  C   UNL     1       8.915   1.774  21.944  0.00  0.00    +0.266 C 
ATOM     15  N   UNL     1      10.111   2.263  21.690  0.00  0.00    -0.288 N 
ATOM     16  H   UNL     1      10.265   3.230  21.446  0.00  0.00    +0.301 HD
ATOM     17  H   UNL     1      10.920   1.649  21.709  0.00  0.00    +0.301 HD
ENDBRANCH   1  14
BRANCH   7  18
ATOM     18  C   UNL     1       5.942  -4.582  24.179  0.00  0.00    +0.013 A 
ATOM     19  C   UNL     1       4.983  -5.271  23.363  0.00  0.00    -0.097 A 
ATOM     20  O   UNL     1       4.672  -4.947  22.161  0.00  0.00    -0.873 OA
ATOM     21  C   UNL     1       4.370  -6.375  23.986  0.00  0.00    -0.004 A 
ATOM     22  C   UNL     1       4.678  -6.800  25.286  0.00  0.00    +0.045 A 
ATOM     23  C   UNL     1       5.628  -6.124  26.041  0.00  0.00    +0.131 A 
ATOM     24  C   UNL     1       6.222  -4.992  25.502  0.00  0.00    +0.057 A 
BRANCH  23  25
ATOM     25  O   UNL     1       5.839  -6.614  27.292  0.00  0.00    -0.406 OA
BRANCH  25  26
ATOM     26  C   UNL     1       5.241  -5.959  28.399  0.00  0.00    +0.575 C 
ATOM     27  F   UNL     1       4.086  -5.382  27.989  0.00  0.00    -0.133 F 
ATOM     28  F   UNL     1       6.061  -4.968  28.822  0.00  0.00    -0.133 F 
ATOM     29  F   UNL     1       4.949  -6.747  29.454  0.00  0.00    -0.133 F 
ENDBRANCH  25  26
ENDBRANCH  23  25
ENDBRANCH   7  18
TORSDOF 4
ENDMDL
