MODEL 1
REMARK VINA RESULT:      -3.6      0.000      0.000
REMARK  Name = 
REMARK  6 active torsions:
REMARK  status: ('A' for Active; 'I' for Inactive)
REMARK    1  A    between atoms: CG1_1  and  CB_2
REMARK    2  A    between atoms: CB_2  and  CG2_3
REMARK    3  A    between atoms: CB_2  and  CA_4
REMARK    4  A    between atoms: CA_4  and  N_6
REMARK    5  A    between atoms: CA_4  and  C_7
REMARK    6  A    between atoms: C_7  and  O_8
REMARK                            x       y       z     vdW  Elec       q    Type
REMARK                         _______ _______ _______ _____ _____    ______ ____
ROOT
ATOM      1  CA  VAL A   1      10.078   0.851  22.284  0.00  0.00    +0.079 C 
ENDROOT
BRANCH   1   3
ATOM      2  CG1 VAL A   1       9.426   2.456  24.171  0.00  0.00    +0.009 C 
ATOM      3  CB  VAL A   1       9.664   0.990  23.775  0.00  0.00    +0.002 C 
ATOM      4  CG2 VAL A   1      10.717   0.404  24.726  0.00  0.00    +0.009 C 
ENDBRANCH   1   3
BRANCH   1   5
ATOM      5  N   VAL A   1       9.784   2.093  21.535  0.00  0.00    -0.325 NA
ATOM      6  H1  VAL A   1      10.531   2.770  21.696  0.00  0.00    +0.119 HD
ATOM      7  H2  VAL A   1       9.830   1.897  20.537  0.00  0.00    +0.119 HD
ENDBRANCH   1   5
BRANCH   1   8
ATOM      8  C   VAL A   1       9.385  -0.331  21.570  0.00  0.00    +0.174 C 
BRANCH   8   9
ATOM      9  O   VAL A   1      10.245  -1.473  21.555  0.00  0.00    -0.393 OA
ATOM     10  H   VAL A   1      11.085  -1.168  21.178  0.00  0.00    +0.209 HD
ENDBRANCH   8   9
ENDBRANCH   1   8
TORSDOF 4
ENDMDL
MODEL 2
REMARK VINA RESULT:      -3.5      2.250      2.485
REMARK  Name = 
REMARK  6 active torsions:
REMARK  status: ('A' for Active; 'I' for Inactive)
REMARK    1  A    between atoms: CG1_1  and  CB_2
REMARK    2  A    between atoms: CB_2  and  CG2_3
REMARK    3  A    between atoms: CB_2  and  CA_4
REMARK    4  A    between atoms: CA_4  and  N_6
REMARK    5  A    between atoms: CA_4  and  C_7
REMARK    6  A    between atoms: C_7  and  O_8
REMARK                            x       y       z     vdW  Elec       q    Type
REMARK                         _______ _______ _______ _____ _____    ______ ____
ROOT
ATOM      1  CA  VAL A   1      10.232  -1.240  22.888  0.00  0.00    +0.079 C 
ENDROOT
BRANCH   1   3
ATOM      2  CG1 VAL A   1       9.980   1.166  22.047  0.00  0.00    +0.009 C 
ATOM      3  CB  VAL A   1       9.925   0.235  23.267  0.00  0.00    +0.002 C 
ATOM      4  CG2 VAL A   1      10.897   0.776  24.325  0.00  0.00    +0.009 C 
ENDBRANCH   1   3
BRANCH   1   5
ATOM      5  N   VAL A   1      10.047  -1.462  21.436  0.00  0.00    -0.325 NA
ATOM      6  H1  VAL A   1       9.055  -1.400  21.208  0.00  0.00    +0.119 HD
ATOM      7  H2  VAL A   1      10.473  -0.690  20.926  0.00  0.00    +0.119 HD
ENDBRANCH   1   5
BRANCH   1   8
ATOM      8  C   VAL A   1       9.362  -2.259  23.657  0.00  0.00    +0.174 C 
BRANCH   8   9
ATOM      9  O   VAL A   1      10.155  -3.373  24.073  0.00  0.00    -0.393 OA
ATOM     10  H   VAL A   1      11.044  -3.021  24.237  0.00  0.00    +0.209 HD
ENDBRANCH   8   9
ENDBRANCH   1   8
TORSDOF 4
ENDMDL
MODEL 3
REMARK VINA RESULT:      -3.3      5.908      6.439
REMARK  Name = 
REMARK  6 active torsions:
REMARK  status: ('A' for Active; 'I' for Inactive)
REMARK    1  A    between atoms: CG1_1  and  CB_2
REMARK    2  A    between atoms: CB_2  and  CG2_3
REMARK    3  A    between atoms: CB_2  and  CA_4
REMARK    4  A    between atoms: CA_4  and  N_6
REMARK    5  A    between atoms: CA_4  and  C_7
REMARK    6  A    between atoms: C_7  and  O_8
REMARK                            x       y       z     vdW  Elec       q    Type
REMARK                         _______ _______ _______ _____ _____    ______ ____
ROOT
ATOM      1  CA  VAL A   1       9.048  -4.451  25.600  0.00  0.00    +0.079 C 
ENDROOT
BRANCH   1   3
ATOM      2  CG1 VAL A   1       7.851  -4.049  23.371  0.00  0.00    +0.009 C 
ATOM      3  CB  VAL A   1       8.634  -3.406  24.527  0.00  0.00    +0.002 C 
ATOM      4  CG2 VAL A   1       9.845  -2.675  23.933  0.00  0.00    +0.009 C 
ENDBRANCH   1   3
BRANCH   1   5
ATOM      5  N   VAL A   1      10.139  -5.318  25.101  0.00  0.00    -0.325 NA
ATOM      6  H1  VAL A   1       9.741  -6.181  24.730  0.00  0.00    +0.119 HD
ATOM      7  H2  VAL A   1      10.573  -4.872  24.294  0.00  0.00    +0.119 HD
ENDBRANCH   1   5
BRANCH   1   8
ATOM      8  C   VAL A   1       7.875  -5.347  26.058  0.00  0.00    +0.174 C 
BRANCH   8   9
ATOM      9  O   VAL A   1       8.087  -5.791  27.400  0.00  0.00    -0.393 OA
ATOM     10  H   VAL A   1       8.602  -5.093  27.833  0.00  0.00    +0.209 HD
ENDBRANCH   8   9
ENDBRANCH   1   8
TORSDOF 4
ENDMDL
MODEL 4
REMARK VINA RESULT:      -3.3      2.291      2.579
REMARK  Name = 
REMARK  6 active torsions:
REMARK  status: ('A' for Active; 'I' for Inactive)
REMARK    1  A    between atoms: CG1_1  and  CB_2
REMARK    2  A    between atoms: CB_2  and  CG2_3
REMARK    3  A    between atoms: CB_2  and  CA_4
REMARK    4  A    between atoms: CA_4  and  N_6
REMARK    5  A    between atoms: CA_4  and  C_7
REMARK    6  A    between atoms: C_7  and  O_8
REMARK                            x       y       z     vdW  Elec       q    Type
REMARK                         _______ _______ _______ _____ _____    ______ ____
ROOT
ATOM      1  CA  VAL A   1       9.303  -0.463  22.247  0.00  0.00    +0.079 C 
ENDROOT
BRANCH   1   3
ATOM      2  CG1 VAL A   1      10.424   0.128  24.473  0.00  0.00    +0.009 C 
ATOM      3  CB  VAL A   1       9.413  -0.786  23.763  0.00  0.00    +0.002 C 
ATOM      4  CG2 VAL A   1       9.828  -2.242  24.016  0.00  0.00    +0.009 C 
ENDBRANCH   1   3
BRANCH   1   5
ATOM      5  N   VAL A   1      10.054  -1.451  21.440  0.00  0.00    -0.325 NA
ATOM      6  H1  VAL A   1       9.514  -2.314  21.375  0.00  0.00    +0.119 HD
ATOM      7  H2  VAL A   1      10.113  -1.116  20.480  0.00  0.00    +0.119 HD
ENDBRANCH   1   5
BRANCH   1   8
ATOM      8  C   VAL A   1       9.809   0.953  21.891  0.00  0.00    +0.174 C 
BRANCH   8   9
ATOM      9  O   VAL A   1       8.878   1.609  21.026  0.00  0.00    -0.393 OA
ATOM     10  H   VAL A   1       8.001   1.447  21.409  0.00  0.00    +0.209 HD
ENDBRANCH   8   9
ENDBRANCH   1   8
TORSDOF 4
ENDMDL
MODEL 5
REMARK VINA RESULT:      -3.3      2.179      2.927
REMARK  Name = 
REMARK  6 active torsions:
REMARK  status: ('A' for Active; 'I' for Inactive)
REMARK    1  A    between atoms: CG1_1  and  CB_2
REMARK    2  A    between atoms: CB_2  and  CG2_3
REMARK    3  A    between atoms: CB_2  and  CA_4
REMARK    4  A    between atoms: CA_4  and  N_6
REMARK    5  A    between atoms: CA_4  and  C_7
REMARK    6  A    between atoms: C_7  and  O_8
REMARK                            x       y       z     vdW  Elec       q    Type
REMARK                         _______ _______ _______ _____ _____    ______ ____
ROOT
ATOM      1  CA  VAL A   1      10.061   2.138  23.285  0.00  0.00    +0.079 C 
ENDROOT
BRANCH   1   3
ATOM      2  CG1 VAL A   1       8.167   1.825  21.589  0.00  0.00    +0.009 C 
ATOM      3  CB  VAL A   1       9.639   1.534  21.917  0.00  0.00    +0.002 C 
ATOM      4  CG2 VAL A   1       9.847   0.014  21.867  0.00  0.00    +0.009 C 
ENDBRANCH   1   3
BRANCH   1   5
ATOM      5  N   VAL A   1      10.878   3.358  23.094  0.00  0.00    -0.325 NA
ATOM      6  H1  VAL A   1      11.242   3.665  23.996  0.00  0.00    +0.119 HD
ATOM      7  H2  VAL A   1      11.708   3.118  22.554  0.00  0.00    +0.119 HD
ENDBRANCH   1   5
BRANCH   1   8
ATOM      8  C   VAL A   1      10.851   1.147  24.168  0.00  0.00    +0.174 C 
BRANCH   8   9
ATOM      9  O   VAL A   1      10.095   0.811  25.334  0.00  0.00    -0.393 OA
ATOM     10  H   VAL A   1      10.699   0.317  25.909  0.00  0.00    +0.209 HD
ENDBRANCH   8   9
ENDBRANCH   1   8
TORSDOF 4
ENDMDL
MODEL 6
REMARK VINA RESULT:      -3.3      6.880      7.506
REMARK  Name = 
REMARK  6 active torsions:
REMARK  status: ('A' for Active; 'I' for Inactive)
REMARK    1  A    between atoms: CG1_1  and  CB_2
REMARK    2  A    between atoms: CB_2  and  CG2_3
REMARK    3  A    between atoms: CB_2  and  CA_4
REMARK    4  A    between atoms: CA_4  and  N_6
REMARK    5  A    between atoms: CA_4  and  C_7
REMARK    6  A    between atoms: C_7  and  O_8
REMARK                            x       y       z     vdW  Elec       q    Type
REMARK                         _______ _______ _______ _____ _____    ______ ____
ROOT
ATOM      1  CA  VAL A   1       8.113  -5.525  25.965  0.00  0.00    +0.079 C 
ENDROOT
BRANCH   1   3
ATOM      2  CG1 VAL A   1       5.597  -5.788  25.560  0.00  0.00    +0.009 C 
ATOM      3  CB  VAL A   1       6.856  -4.966  25.242  0.00  0.00    +0.002 C 
ATOM      4  CG2 VAL A   1       7.031  -4.934  23.717  0.00  0.00    +0.009 C 
ENDBRANCH   1   3
BRANCH   1   5
ATOM      5  N   VAL A   1       7.849  -5.722  27.408  0.00  0.00    -0.325 NA
ATOM      6  H1  VAL A   1       6.856  -5.908  27.548  0.00  0.00    +0.119 HD
ATOM      7  H2  VAL A   1       8.312  -6.576  27.715  0.00  0.00    +0.119 HD
ENDBRANCH   1   5
BRANCH   1   8
ATOM      8  C   VAL A   1       9.355  -4.619  25.809  0.00  0.00    +0.174 C 
BRANCH   8   9
ATOM      9  O   VAL A   1      10.394  -5.318  25.120  0.00  0.00    -0.393 OA
ATOM     10  H   VAL A   1      10.080  -5.431  24.209  0.00  0.00    +0.209 HD
ENDBRANCH   8   9
ENDBRANCH   1   8
TORSDOF 4
ENDMDL
MODEL 7
REMARK VINA RESULT:      -3.2      2.277      2.997
REMARK  Name = 
REMARK  6 active torsions:
REMARK  status: ('A' for Active; 'I' for Inactive)
REMARK    1  A    between atoms: CG1_1  and  CB_2
REMARK    2  A    between atoms: CB_2  and  CG2_3
REMARK    3  A    between atoms: CB_2  and  CA_4
REMARK    4  A    between atoms: CA_4  and  N_6
REMARK    5  A    between atoms: CA_4  and  C_7
REMARK    6  A    between atoms: C_7  and  O_8
REMARK                            x       y       z     vdW  Elec       q    Type
REMARK                         _______ _______ _______ _____ _____    ______ ____
ROOT
ATOM      1  CA  VAL A   1       9.670   2.085  23.040  0.00  0.00    +0.079 C 
ENDROOT
BRANCH   1   3
ATOM      2  CG1 VAL A   1      10.769   0.504  24.729  0.00  0.00    +0.009 C 
ATOM      3  CB  VAL A   1       9.720   0.642  23.615  0.00  0.00    +0.002 C 
ATOM      4  CG2 VAL A   1      10.033  -0.402  22.534  0.00  0.00    +0.009 C 
ENDBRANCH   1   3
BRANCH   1   5
ATOM      5  N   VAL A   1       9.881   2.078  21.574  0.00  0.00    -0.325 NA
ATOM      6  H1  VAL A   1       9.911   3.039  21.233  0.00  0.00    +0.119 HD
ATOM      7  H2  VAL A   1      10.810   1.709  21.376  0.00  0.00    +0.119 HD
ENDBRANCH   1   5
BRANCH   1   8
ATOM      8  C   VAL A   1      10.707   3.031  23.684  0.00  0.00    +0.174 C 
BRANCH   8   9
ATOM      9  O   VAL A   1      11.281   3.886  22.691  0.00  0.00    -0.393 OA
ATOM     10  H   VAL A   1      12.163   3.527  22.510  0.00  0.00    +0.209 HD
ENDBRANCH   8   9
ENDBRANCH   1   8
TORSDOF 4
ENDMDL
MODEL 8
REMARK VINA RESULT:      -3.2      2.518      3.374
REMARK  Name = 
REMARK  6 active torsions:
REMARK  status: ('A' for Active; 'I' for Inactive)
REMARK    1  A    between atoms: CG1_1  and  CB_2
REMARK    2  A    between atoms: CB_2  and  CG2_3
REMARK    3  A    between atoms: CB_2  and  CA_4
REMARK    4  A    between atoms: CA_4  and  N_6
REMARK    5  A    between atoms: CA_4  and  C_7
REMARK    6  A    between atoms: C_7  and  O_8
REMARK                            x       y       z     vdW  Elec       q    Type
REMARK                         _______ _______ _______ _____ _____    ______ ____
ROOT
ATOM      1  CA  VAL A   1       9.171  -0.302  21.787  0.00  0.00    +0.079 C 
ENDROOT
BRANCH   1   3
ATOM      2  CG1 VAL A   1       7.564  -2.125  22.596  0.00  0.00    +0.009 C 
ATOM      3  CB  VAL A   1       8.154  -0.735  22.879  0.00  0.00    +0.002 C 
ATOM      4  CG2 VAL A   1       6.992   0.258  23.014  0.00  0.00    +0.009 C 
ENDBRANCH   1   3
BRANCH   1   5
ATOM      5  N   VAL A   1      10.084  -1.416  21.443  0.00  0.00    -0.325 NA
ATOM      6  H1  VAL A   1       9.798  -1.826  20.554  0.00  0.00    +0.119 HD
ATOM      7  H2  VAL A   1      11.013  -1.038  21.261  0.00  0.00    +0.119 HD
ENDBRANCH   1   5
BRANCH   1   8
ATOM      8  C   VAL A   1      10.019   0.922  22.199  0.00  0.00    +0.174 C 
BRANCH   8   9
ATOM      9  O   VAL A   1       9.698   2.046  21.375  0.00  0.00    -0.393 OA
ATOM     10  H   VAL A   1       9.652   1.705  20.468  0.00  0.00    +0.209 HD
ENDBRANCH   8   9
ENDBRANCH   1   8
TORSDOF 4
ENDMDL
MODEL 9
REMARK VINA RESULT:      -3.2      1.815      2.380
REMARK  Name = 
REMARK  6 active torsions:
REMARK  status: ('A' for Active; 'I' for Inactive)
REMARK    1  A    between atoms: CG1_1  and  CB_2
REMARK    2  A    between atoms: CB_2  and  CG2_3
REMARK    3  A    between atoms: CB_2  and  CA_4
REMARK    4  A    between atoms: CA_4  and  N_6
REMARK    5  A    between atoms: CA_4  and  C_7
REMARK    6  A    between atoms: C_7  and  O_8
REMARK                            x       y       z     vdW  Elec       q    Type
REMARK                         _______ _______ _______ _____ _____    ______ ____
ROOT
ATOM      1  CA  VAL A   1       9.810  -0.039  23.319  0.00  0.00    +0.079 C 
ENDROOT
BRANCH   1   3
ATOM      2  CG1 VAL A   1      10.517   2.331  22.651  0.00  0.00    +0.009 C 
ATOM      3  CB  VAL A   1       9.890   1.011  22.176  0.00  0.00    +0.002 C 
ATOM      4  CG2 VAL A   1       8.510   1.325  21.582  0.00  0.00    +0.009 C 
ENDBRANCH   1   3
BRANCH   1   5
ATOM      5  N   VAL A   1      10.675   0.351  24.456  0.00  0.00    -0.325 NA
ATOM      6  H1  VAL A   1      11.403   0.984  24.125  0.00  0.00    +0.119 HD
ATOM      7  H2  VAL A   1      10.129   0.911  25.109  0.00  0.00    +0.119 HD
ENDBRANCH   1   5
BRANCH   1   8
ATOM      8  C   VAL A   1      10.206  -1.461  22.864  0.00  0.00    +0.174 C 
BRANCH   8   9
ATOM      9  O   VAL A   1      10.275  -1.524  21.437  0.00  0.00    -0.393 OA
ATOM     10  H   VAL A   1      10.034  -0.639  21.121  0.00  0.00    +0.209 HD
ENDBRANCH   8   9
ENDBRANCH   1   8
TORSDOF 4
ENDMDL
