MODEL 1
REMARK VINA RESULT:      -6.1      0.000      0.000
REMARK  Name = 
REMARK  11 active torsions:
REMARK  status: ('A' for Active; 'I' for Inactive)
REMARK    1  A    between atoms: C_2  and  C_3
REMARK    2  A    between atoms: C_3  and  C_4
REMARK    3  A    between atoms: C_5  and  C_6
REMARK    4  A    between atoms: C_5  and  C_7
REMARK    5  A    between atoms: C_9  and  C_10
REMARK    6  A    between atoms: C_9  and  C_11
REMARK    7  A    between atoms: C_11  and  O_12
REMARK    8  A    between atoms: C_13  and  O_15
REMARK    9  A    between atoms: O_15  and  C_16
REMARK   10  A    between atoms: C_21  and  C_22
REMARK   11  A    between atoms: C_21  and  O_23
REMARK                            x       y       z     vdW  Elec       q    Type
REMARK                         _______ _______ _______ _____ _____    ______ ____
ROOT
ATOM      1  C   UNL     1       7.656  -2.696  24.069  0.00  0.00    +0.158 C 
ATOM      2  C   UNL     1       6.259  -1.951  23.884  0.00  0.00    +0.098 C 
ATOM      3  C   UNL     1       5.045  -2.676  24.514  0.00  0.00    +0.044 C 
ATOM      4  C   UNL     1       6.312  -0.525  24.449  0.00  0.00    +0.045 C 
ATOM      5  C   UNL     1       6.828  -0.456  25.884  0.00  0.00    +0.080 C 
ATOM      6  C   UNL     1       8.024  -1.342  26.152  0.00  0.00    +0.165 C 
ATOM      7  O   UNL     1       8.937  -0.975  26.894  0.00  0.00    -0.295 OA
ATOM      8  C   UNL     1       8.000  -2.766  25.587  0.00  0.00    +0.221 C 
ENDROOT
BRANCH   1  10
ATOM      9  C   UNL     1       8.620  -0.847  22.250  0.00  0.00    +0.157 C 
ATOM     10  C   UNL     1       8.831  -2.080  23.193  0.00  0.00    +0.127 C 
ATOM     11  C   UNL     1      10.242  -2.458  23.594  0.00  0.00    +0.047 C 
ATOM     12  O   UNL     1       8.622  -2.191  21.778  0.00  0.00    -0.362 OA
BRANCH   9  13
ATOM     13  C   UNL     1       9.692   0.007  21.639  0.00  0.00    +0.061 C 
BRANCH  13  14
ATOM     14  C   UNL     1       9.745   1.438  22.115  0.00  0.00    -0.026 C 
ATOM     15  C   UNL     1      10.269   1.904  23.265  0.00  0.00    -0.080 C 
ATOM     16  C   UNL     1      10.386   3.385  23.516  0.00  0.00    +0.038 C 
ATOM     17  C   UNL     1      10.779   1.039  24.383  0.00  0.00    +0.038 C 
ENDBRANCH  13  14
ENDBRANCH   9  13
ENDBRANCH   1  10
BRANCH   2  18
ATOM     18  O   UNL     1       5.924  -1.835  22.490  0.00  0.00    -0.386 OA
ATOM     19  H   UNL     1       6.439  -1.086  22.138  0.00  0.00    +0.210 HD
ENDBRANCH   2  18
BRANCH   8  20
ATOM     20  O   UNL     1       7.059  -3.437  26.440  0.00  0.00    -0.369 OA
ATOM     21  C   UNL     1       7.483  -4.665  27.009  0.00  0.00    +0.195 C 
ENDBRANCH   8  20
BRANCH   1  22
ATOM     22  O   UNL     1       7.504  -4.048  23.568  0.00  0.00    -0.380 OA
ATOM     23  H   UNL     1       6.864  -4.016  22.835  0.00  0.00    +0.211 HD
ENDBRANCH   1  22
TORSDOF 6
ENDMDL
MODEL 2
REMARK VINA RESULT:      -6.0      1.756      2.824
REMARK  Name = 
REMARK  11 active torsions:
REMARK  status: ('A' for Active; 'I' for Inactive)
REMARK    1  A    between atoms: C_2  and  C_3
REMARK    2  A    between atoms: C_3  and  C_4
REMARK    3  A    between atoms: C_5  and  C_6
REMARK    4  A    between atoms: C_5  and  C_7
REMARK    5  A    between atoms: C_9  and  C_10
REMARK    6  A    between atoms: C_9  and  C_11
REMARK    7  A    between atoms: C_11  and  O_12
REMARK    8  A    between atoms: C_13  and  O_15
REMARK    9  A    between atoms: O_15  and  C_16
REMARK   10  A    between atoms: C_21  and  C_22
REMARK   11  A    between atoms: C_21  and  O_23
REMARK                            x       y       z     vdW  Elec       q    Type
REMARK                         _______ _______ _______ _____ _____    ______ ____
ROOT
ATOM      1  C   UNL     1       7.043  -2.914  23.272  0.00  0.00    +0.158 C 
ATOM      2  C   UNL     1       6.113  -2.755  24.556  0.00  0.00    +0.098 C 
ATOM      3  C   UNL     1       4.839  -3.636  24.553  0.00  0.00    +0.044 C 
ATOM      4  C   UNL     1       6.894  -3.047  25.845  0.00  0.00    +0.045 C 
ATOM      5  C   UNL     1       7.637  -4.380  25.820  0.00  0.00    +0.080 C 
ATOM      6  C   UNL     1       8.343  -4.667  24.514  0.00  0.00    +0.165 C 
ATOM      7  O   UNL     1       9.441  -5.225  24.491  0.00  0.00    -0.295 OA
ATOM      8  C   UNL     1       7.588  -4.372  23.214  0.00  0.00    +0.221 C 
ENDROOT
BRANCH   1  10
ATOM      9  C   UNL     1       8.781  -1.101  24.433  0.00  0.00    +0.157 C 
ATOM     10  C   UNL     1       8.189  -1.817  23.172  0.00  0.00    +0.127 C 
ATOM     11  C   UNL     1       8.971  -1.772  21.875  0.00  0.00    +0.047 C 
ATOM     12  O   UNL     1       7.784  -0.510  23.605  0.00  0.00    -0.362 OA
BRANCH   9  13
ATOM     13  C   UNL     1      10.054  -0.310  24.499  0.00  0.00    +0.061 C 
BRANCH  13  14
ATOM     14  C   UNL     1       9.895   1.187  24.609  0.00  0.00    -0.026 C 
ATOM     15  C   UNL     1       9.853   2.086  23.606  0.00  0.00    -0.080 C 
ATOM     16  C   UNL     1       9.526   3.532  23.878  0.00  0.00    +0.038 C 
ATOM     17  C   UNL     1      10.115   1.767  22.161  0.00  0.00    +0.038 C 
ENDBRANCH  13  14
ENDBRANCH   9  13
ENDBRANCH   1  10
BRANCH   2  18
ATOM     18  O   UNL     1       5.618  -1.409  24.664  0.00  0.00    -0.386 OA
ATOM     19  H   UNL     1       5.672  -1.017  23.774  0.00  0.00    +0.210 HD
ENDBRANCH   2  18
BRANCH   8  20
ATOM     20  O   UNL     1       6.619  -5.431  23.154  0.00  0.00    -0.369 OA
ATOM     21  C   UNL     1       6.607  -6.213  21.971  0.00  0.00    +0.195 C 
ENDBRANCH   8  20
BRANCH   1  22
ATOM     22  O   UNL     1       6.220  -2.683  22.101  0.00  0.00    -0.380 OA
ATOM     23  H   UNL     1       5.450  -3.277  22.165  0.00  0.00    +0.211 HD
ENDBRANCH   1  22
TORSDOF 6
ENDMDL
MODEL 3
REMARK VINA RESULT:      -5.9      2.332      5.424
REMARK  Name = 
REMARK  11 active torsions:
REMARK  status: ('A' for Active; 'I' for Inactive)
REMARK    1  A    between atoms: C_2  and  C_3
REMARK    2  A    between atoms: C_3  and  C_4
REMARK    3  A    between atoms: C_5  and  C_6
REMARK    4  A    between atoms: C_5  and  C_7
REMARK    5  A    between atoms: C_9  and  C_10
REMARK    6  A    between atoms: C_9  and  C_11
REMARK    7  A    between atoms: C_11  and  O_12
REMARK    8  A    between atoms: C_13  and  O_15
REMARK    9  A    between atoms: O_15  and  C_16
REMARK   10  A    between atoms: C_21  and  C_22
REMARK   11  A    between atoms: C_21  and  O_23
REMARK                            x       y       z     vdW  Elec       q    Type
REMARK                         _______ _______ _______ _____ _____    ______ ____
ROOT
ATOM      1  C   UNL     1       8.041   0.073  23.153  0.00  0.00    +0.158 C 
ATOM      2  C   UNL     1       9.448   0.158  22.409  0.00  0.00    +0.098 C 
ATOM      3  C   UNL     1       9.915   1.592  22.057  0.00  0.00    +0.044 C 
ATOM      4  C   UNL     1      10.552  -0.516  23.235  0.00  0.00    +0.045 C 
ATOM      5  C   UNL     1      10.622  -0.025  24.679  0.00  0.00    +0.080 C 
ATOM      6  C   UNL     1       9.271   0.130  25.342  0.00  0.00    +0.165 C 
ATOM      7  O   UNL     1       9.106  -0.158  26.528  0.00  0.00    -0.295 OA
ATOM      8  C   UNL     1       8.149   0.788  24.533  0.00  0.00    +0.221 C 
ENDROOT
BRANCH   1  10
ATOM      9  C   UNL     1       8.375  -2.674  23.174  0.00  0.00    +0.157 C 
ATOM     10  C   UNL     1       7.463  -1.404  23.262  0.00  0.00    +0.127 C 
ATOM     11  C   UNL     1       6.073  -1.544  23.849  0.00  0.00    +0.047 C 
ATOM     12  O   UNL     1       7.627  -2.183  22.067  0.00  0.00    -0.362 OA
BRANCH   9  13
ATOM     13  C   UNL     1       8.006  -4.071  23.578  0.00  0.00    +0.061 C 
BRANCH  13  14
ATOM     14  C   UNL     1       7.571  -4.986  22.459  0.00  0.00    -0.026 C 
ATOM     15  C   UNL     1       6.313  -5.304  22.099  0.00  0.00    -0.080 C 
ATOM     16  C   UNL     1       6.046  -6.108  20.853  0.00  0.00    +0.038 C 
ATOM     17  C   UNL     1       5.080  -4.909  22.862  0.00  0.00    +0.038 C 
ENDBRANCH  13  14
ENDBRANCH   9  13
ENDBRANCH   1  10
BRANCH   2  18
ATOM     18  O   UNL     1       9.398  -0.525  21.144  0.00  0.00    -0.386 OA
ATOM     19  H   UNL     1       8.877  -1.336  21.282  0.00  0.00    +0.210 HD
ENDBRANCH   2  18
BRANCH   8  20
ATOM     20  O   UNL     1       8.527   2.174  24.523  0.00  0.00    -0.369 OA
ATOM     21  C   UNL     1       7.867   3.018  25.454  0.00  0.00    +0.195 C 
ENDBRANCH   8  20
BRANCH   1  22
ATOM     22  O   UNL     1       7.071   0.781  22.342  0.00  0.00    -0.380 OA
ATOM     23  H   UNL     1       6.803   1.576  22.837  0.00  0.00    +0.211 HD
ENDBRANCH   1  22
TORSDOF 6
ENDMDL
MODEL 4
REMARK VINA RESULT:      -5.8      1.857      3.701
REMARK  Name = 
REMARK  11 active torsions:
REMARK  status: ('A' for Active; 'I' for Inactive)
REMARK    1  A    between atoms: C_2  and  C_3
REMARK    2  A    between atoms: C_3  and  C_4
REMARK    3  A    between atoms: C_5  and  C_6
REMARK    4  A    between atoms: C_5  and  C_7
REMARK    5  A    between atoms: C_9  and  C_10
REMARK    6  A    between atoms: C_9  and  C_11
REMARK    7  A    between atoms: C_11  and  O_12
REMARK    8  A    between atoms: C_13  and  O_15
REMARK    9  A    between atoms: O_15  and  C_16
REMARK   10  A    between atoms: C_21  and  C_22
REMARK   11  A    between atoms: C_21  and  O_23
REMARK                            x       y       z     vdW  Elec       q    Type
REMARK                         _______ _______ _______ _____ _____    ______ ____
ROOT
ATOM      1  C   UNL     1       6.751  -3.153  24.570  0.00  0.00    +0.158 C 
ATOM      2  C   UNL     1       7.542  -4.477  24.973  0.00  0.00    +0.098 C 
ATOM      3  C   UNL     1       6.740  -5.476  25.844  0.00  0.00    +0.044 C 
ATOM      4  C   UNL     1       8.046  -5.222  23.730  0.00  0.00    +0.045 C 
ATOM      5  C   UNL     1       6.958  -5.482  22.691  0.00  0.00    +0.080 C 
ATOM      6  C   UNL     1       6.037  -4.306  22.456  0.00  0.00    +0.165 C 
ATOM      7  O   UNL     1       5.615  -4.041  21.329  0.00  0.00    -0.295 OA
ATOM      8  C   UNL     1       5.531  -3.538  23.682  0.00  0.00    +0.221 C 
ENDROOT
BRANCH   1  10
ATOM      9  C   UNL     1       9.194  -2.256  23.630  0.00  0.00    +0.157 C 
ATOM     10  C   UNL     1       7.670  -2.034  23.913  0.00  0.00    +0.127 C 
ATOM     11  C   UNL     1       6.954  -0.903  23.204  0.00  0.00    +0.047 C 
ATOM     12  O   UNL     1       8.714  -1.558  24.774  0.00  0.00    -0.362 OA
BRANCH   9  13
ATOM     13  C   UNL     1      10.071  -1.423  22.741  0.00  0.00    +0.061 C 
BRANCH  13  14
ATOM     14  C   UNL     1      10.509  -0.094  23.307  0.00  0.00    -0.026 C 
ATOM     15  C   UNL     1      10.158   1.136  22.884  0.00  0.00    -0.080 C 
ATOM     16  C   UNL     1      10.557   2.363  23.663  0.00  0.00    +0.038 C 
ATOM     17  C   UNL     1       9.360   1.417  21.642  0.00  0.00    +0.038 C 
ENDBRANCH  13  14
ENDBRANCH   9  13
ENDBRANCH   1  10
BRANCH   2  18
ATOM     18  O   UNL     1       8.699  -4.158  25.766  0.00  0.00    -0.386 OA
ATOM     19  H   UNL     1       9.050  -5.001  26.104  0.00  0.00    +0.210 HD
ENDBRANCH   2  18
BRANCH   8  20
ATOM     20  O   UNL     1       4.566  -4.437  24.251  0.00  0.00    -0.369 OA
ATOM     21  C   UNL     1       3.368  -3.854  24.741  0.00  0.00    +0.195 C 
ENDBRANCH   8  20
BRANCH   1  22
ATOM     22  O   UNL     1       6.259  -2.545  25.790  0.00  0.00    -0.380 OA
ATOM     23  H   UNL     1       5.306  -2.382  25.670  0.00  0.00    +0.211 HD
ENDBRANCH   1  22
TORSDOF 6
ENDMDL
MODEL 5
REMARK VINA RESULT:      -5.8      1.778      5.268
REMARK  Name = 
REMARK  11 active torsions:
REMARK  status: ('A' for Active; 'I' for Inactive)
REMARK    1  A    between atoms: C_2  and  C_3
REMARK    2  A    between atoms: C_3  and  C_4
REMARK    3  A    between atoms: C_5  and  C_6
REMARK    4  A    between atoms: C_5  and  C_7
REMARK    5  A    between atoms: C_9  and  C_10
REMARK    6  A    between atoms: C_9  and  C_11
REMARK    7  A    between atoms: C_11  and  O_12
REMARK    8  A    between atoms: C_13  and  O_15
REMARK    9  A    between atoms: O_15  and  C_16
REMARK   10  A    between atoms: C_21  and  C_22
REMARK   11  A    between atoms: C_21  and  O_23
REMARK                            x       y       z     vdW  Elec       q    Type
REMARK                         _______ _______ _______ _____ _____    ______ ____
ROOT
ATOM      1  C   UNL     1       7.923  -0.248  23.099  0.00  0.00    +0.158 C 
ATOM      2  C   UNL     1       9.290   0.049  22.336  0.00  0.00    +0.098 C 
ATOM      3  C   UNL     1       9.557   1.543  22.032  0.00  0.00    +0.044 C 
ATOM      4  C   UNL     1      10.491  -0.503  23.116  0.00  0.00    +0.045 C 
ATOM      5  C   UNL     1      10.527  -0.059  24.577  0.00  0.00    +0.080 C 
ATOM      6  C   UNL     1       9.182  -0.109  25.267  0.00  0.00    +0.165 C 
ATOM      7  O   UNL     1       9.082  -0.458  26.445  0.00  0.00    -0.295 OA
ATOM      8  C   UNL     1       7.966   0.425  24.504  0.00  0.00    +0.221 C 
ENDROOT
BRANCH   1  10
ATOM      9  C   UNL     1       8.599  -2.902  23.494  0.00  0.00    +0.157 C 
ATOM     10  C   UNL     1       7.546  -1.791  23.160  0.00  0.00    +0.127 C 
ATOM     11  C   UNL     1       6.073  -2.123  23.283  0.00  0.00    +0.047 C 
ATOM     12  O   UNL     1       8.200  -2.590  22.163  0.00  0.00    -0.362 OA
BRANCH   9  13
ATOM     13  C   UNL     1       8.310  -4.320  23.892  0.00  0.00    +0.061 C 
BRANCH  13  14
ATOM     14  C   UNL     1       8.080  -4.556  25.365  0.00  0.00    -0.026 C 
ATOM     15  C   UNL     1       7.022  -5.152  25.948  0.00  0.00    -0.080 C 
ATOM     16  C   UNL     1       7.023  -5.454  27.424  0.00  0.00    +0.038 C 
ATOM     17  C   UNL     1       5.773  -5.571  25.226  0.00  0.00    +0.038 C 
ENDBRANCH  13  14
ENDBRANCH   9  13
ENDBRANCH   1  10
BRANCH   2  18
ATOM     18  O   UNL     1       9.303  -0.588  21.046  0.00  0.00    -0.386 OA
ATOM     19  H   UNL     1      10.192  -0.450  20.673  0.00  0.00    +0.210 HD
ENDBRANCH   2  18
BRANCH   8  20
ATOM     20  O   UNL     1       8.158   1.848  24.541  0.00  0.00    -0.369 OA
ATOM     21  C   UNL     1       7.487   2.551  25.575  0.00  0.00    +0.195 C 
ENDBRANCH   8  20
BRANCH   1  22
ATOM     22  O   UNL     1       6.851   0.355  22.332  0.00  0.00    -0.380 OA
ATOM     23  H   UNL     1       7.220   1.135  21.880  0.00  0.00    +0.211 HD
ENDBRANCH   1  22
TORSDOF 6
ENDMDL
MODEL 6
REMARK VINA RESULT:      -5.7      1.338      2.965
REMARK  Name = 
REMARK  11 active torsions:
REMARK  status: ('A' for Active; 'I' for Inactive)
REMARK    1  A    between atoms: C_2  and  C_3
REMARK    2  A    between atoms: C_3  and  C_4
REMARK    3  A    between atoms: C_5  and  C_6
REMARK    4  A    between atoms: C_5  and  C_7
REMARK    5  A    between atoms: C_9  and  C_10
REMARK    6  A    between atoms: C_9  and  C_11
REMARK    7  A    between atoms: C_11  and  O_12
REMARK    8  A    between atoms: C_13  and  O_15
REMARK    9  A    between atoms: O_15  and  C_16
REMARK   10  A    between atoms: C_21  and  C_22
REMARK   11  A    between atoms: C_21  and  O_23
REMARK                            x       y       z     vdW  Elec       q    Type
REMARK                         _______ _______ _______ _____ _____    ______ ____
ROOT
ATOM      1  C   UNL     1       7.525  -2.517  24.212  0.00  0.00    +0.158 C 
ATOM      2  C   UNL     1       7.934  -2.778  25.730  0.00  0.00    +0.098 C 
ATOM      3  C   UNL     1       6.747  -3.032  26.691  0.00  0.00    +0.044 C 
ATOM      4  C   UNL     1       8.905  -3.961  25.846  0.00  0.00    +0.045 C 
ATOM      5  C   UNL     1       8.416  -5.225  25.145  0.00  0.00    +0.080 C 
ATOM      6  C   UNL     1       7.802  -4.976  23.785  0.00  0.00    +0.165 C 
ATOM      7  O   UNL     1       7.978  -5.761  22.852  0.00  0.00    -0.295 OA
ATOM      8  C   UNL     1       6.839  -3.793  23.641  0.00  0.00    +0.221 C 
ENDROOT
BRANCH   1  10
ATOM      9  C   UNL     1       8.571  -0.795  22.315  0.00  0.00    +0.157 C 
ATOM     10  C   UNL     1       8.724  -1.998  23.306  0.00  0.00    +0.127 C 
ATOM     11  C   UNL     1      10.117  -2.434  23.715  0.00  0.00    +0.047 C 
ATOM     12  O   UNL     1       8.499  -2.154  21.898  0.00  0.00    -0.362 OA
BRANCH   9  13
ATOM     13  C   UNL     1       9.682  -0.023  21.665  0.00  0.00    +0.061 C 
BRANCH  13  14
ATOM     14  C   UNL     1       9.830   1.414  22.102  0.00  0.00    -0.026 C 
ATOM     15  C   UNL     1      10.397   1.875  23.233  0.00  0.00    -0.080 C 
ATOM     16  C   UNL     1      10.609   3.352  23.444  0.00  0.00    +0.038 C 
ATOM     17  C   UNL     1      10.868   1.009  24.368  0.00  0.00    +0.038 C 
ENDBRANCH  13  14
ENDBRANCH   9  13
ENDBRANCH   1  10
BRANCH   2  18
ATOM     18  O   UNL     1       8.605  -1.632  26.282  0.00  0.00    -0.386 OA
ATOM     19  H   UNL     1       8.898  -1.088  25.530  0.00  0.00    +0.210 HD
ENDBRANCH   2  18
BRANCH   8  20
ATOM     20  O   UNL     1       5.656  -4.256  24.313  0.00  0.00    -0.369 OA
ATOM     21  C   UNL     1       4.462  -4.283  23.547  0.00  0.00    +0.195 C 
ENDBRANCH   8  20
BRANCH   1  22
ATOM     22  O   UNL     1       6.565  -1.431  24.195  0.00  0.00    -0.380 OA
ATOM     23  H   UNL     1       6.954  -0.707  23.672  0.00  0.00    +0.211 HD
ENDBRANCH   1  22
TORSDOF 6
ENDMDL
MODEL 7
REMARK VINA RESULT:      -5.7      1.475      1.872
REMARK  Name = 
REMARK  11 active torsions:
REMARK  status: ('A' for Active; 'I' for Inactive)
REMARK    1  A    between atoms: C_2  and  C_3
REMARK    2  A    between atoms: C_3  and  C_4
REMARK    3  A    between atoms: C_5  and  C_6
REMARK    4  A    between atoms: C_5  and  C_7
REMARK    5  A    between atoms: C_9  and  C_10
REMARK    6  A    between atoms: C_9  and  C_11
REMARK    7  A    between atoms: C_11  and  O_12
REMARK    8  A    between atoms: C_13  and  O_15
REMARK    9  A    between atoms: O_15  and  C_16
REMARK   10  A    between atoms: C_21  and  C_22
REMARK   11  A    between atoms: C_21  and  O_23
REMARK                            x       y       z     vdW  Elec       q    Type
REMARK                         _______ _______ _______ _____ _____    ______ ____
ROOT
ATOM      1  C   UNL     1       8.157  -3.459  24.173  0.00  0.00    +0.158 C 
ATOM      2  C   UNL     1       6.963  -3.778  23.166  0.00  0.00    +0.098 C 
ATOM      3  C   UNL     1       6.234  -5.120  23.423  0.00  0.00    +0.044 C 
ATOM      4  C   UNL     1       5.917  -2.656  23.173  0.00  0.00    +0.045 C 
ATOM      5  C   UNL     1       5.423  -2.290  24.570  0.00  0.00    +0.080 C 
ATOM      6  C   UNL     1       6.519  -2.208  25.609  0.00  0.00    +0.165 C 
ATOM      7  O   UNL     1       6.497  -1.351  26.493  0.00  0.00    -0.295 OA
ATOM      8  C   UNL     1       7.582  -3.311  25.614  0.00  0.00    +0.221 C 
ENDROOT
BRANCH   1  10
ATOM      9  C   UNL     1       9.159  -1.749  22.242  0.00  0.00    +0.157 C 
ATOM     10  C   UNL     1       9.053  -2.223  23.731  0.00  0.00    +0.127 C 
ATOM     11  C   UNL     1       9.484  -1.274  24.831  0.00  0.00    +0.047 C 
ATOM     12  O   UNL     1      10.140  -2.574  22.862  0.00  0.00    -0.362 OA
BRANCH   9  13
ATOM     13  C   UNL     1       9.696  -0.435  21.756  0.00  0.00    +0.061 C 
BRANCH  13  14
ATOM     14  C   UNL     1       8.730   0.724  21.787  0.00  0.00    -0.026 C 
ATOM     15  C   UNL     1       8.923   1.942  22.326  0.00  0.00    -0.080 C 
ATOM     16  C   UNL     1       7.913   3.043  22.129  0.00  0.00    +0.038 C 
ATOM     17  C   UNL     1      10.117   2.332  23.151  0.00  0.00    +0.038 C 
ENDBRANCH  13  14
ENDBRANCH   9  13
ENDBRANCH   1  10
BRANCH   2  18
ATOM     18  O   UNL     1       7.450  -3.887  21.817  0.00  0.00    -0.386 OA
ATOM     19  H   UNL     1       8.420  -3.815  21.861  0.00  0.00    +0.210 HD
ENDBRANCH   2  18
BRANCH   8  20
ATOM     20  O   UNL     1       6.877  -4.439  26.156  0.00  0.00    -0.369 OA
ATOM     21  C   UNL     1       7.548  -5.184  27.159  0.00  0.00    +0.195 C 
ENDBRANCH   8  20
BRANCH   1  22
ATOM     22  O   UNL     1       9.064  -4.589  24.153  0.00  0.00    -0.380 OA
ATOM     23  H   UNL     1       8.542  -5.385  24.362  0.00  0.00    +0.211 HD
ENDBRANCH   1  22
TORSDOF 6
ENDMDL
MODEL 8
REMARK VINA RESULT:      -5.5      2.487      5.728
REMARK  Name = 
REMARK  11 active torsions:
REMARK  status: ('A' for Active; 'I' for Inactive)
REMARK    1  A    between atoms: C_2  and  C_3
REMARK    2  A    between atoms: C_3  and  C_4
REMARK    3  A    between atoms: C_5  and  C_6
REMARK    4  A    between atoms: C_5  and  C_7
REMARK    5  A    between atoms: C_9  and  C_10
REMARK    6  A    between atoms: C_9  and  C_11
REMARK    7  A    between atoms: C_11  and  O_12
REMARK    8  A    between atoms: C_13  and  O_15
REMARK    9  A    between atoms: O_15  and  C_16
REMARK   10  A    between atoms: C_21  and  C_22
REMARK   11  A    between atoms: C_21  and  O_23
REMARK                            x       y       z     vdW  Elec       q    Type
REMARK                         _______ _______ _______ _____ _____    ______ ____
ROOT
ATOM      1  C   UNL     1       9.200   0.336  24.264  0.00  0.00    +0.158 C 
ATOM      2  C   UNL     1       7.811   0.696  24.958  0.00  0.00    +0.098 C 
ATOM      3  C   UNL     1       7.778   2.066  25.678  0.00  0.00    +0.044 C 
ATOM      4  C   UNL     1       6.659   0.659  23.945  0.00  0.00    +0.045 C 
ATOM      5  C   UNL     1       6.920   1.490  22.692  0.00  0.00    +0.080 C 
ATOM      6  C   UNL     1       8.321   1.346  22.139  0.00  0.00    +0.165 C 
ATOM      7  O   UNL     1       8.528   1.327  20.925  0.00  0.00    -0.295 OA
ATOM      8  C   UNL     1       9.487   1.367  23.132  0.00  0.00    +0.221 C 
ENDROOT
BRANCH   1  10
ATOM      9  C   UNL     1       8.108  -2.183  23.915  0.00  0.00    +0.157 C 
ATOM     10  C   UNL     1       9.296  -1.172  23.769  0.00  0.00    +0.127 C 
ATOM     11  C   UNL     1      10.413  -1.495  22.797  0.00  0.00    +0.047 C 
ATOM     12  O   UNL     1       9.202  -2.139  24.826  0.00  0.00    -0.362 OA
BRANCH   9  13
ATOM     13  C   UNL     1       7.963  -3.501  23.213  0.00  0.00    +0.061 C 
BRANCH  13  14
ATOM     14  C   UNL     1       6.731  -4.301  23.561  0.00  0.00    -0.026 C 
ATOM     15  C   UNL     1       6.272  -5.412  22.954  0.00  0.00    -0.080 C 
ATOM     16  C   UNL     1       5.112  -6.183  23.529  0.00  0.00    +0.038 C 
ATOM     17  C   UNL     1       6.840  -5.990  21.689  0.00  0.00    +0.038 C 
ENDBRANCH  13  14
ENDBRANCH   9  13
ENDBRANCH   1  10
BRANCH   2  18
ATOM     18  O   UNL     1       7.493  -0.258  25.987  0.00  0.00    -0.386 OA
ATOM     19  H   UNL     1       8.314  -0.745  26.182  0.00  0.00    +0.210 HD
ENDBRANCH   2  18
BRANCH   8  20
ATOM     20  O   UNL     1       9.563   2.751  23.512  0.00  0.00    -0.369 OA
ATOM     21  C   UNL     1      10.841   3.361  23.431  0.00  0.00    +0.195 C 
ENDBRANCH   8  20
BRANCH   1  22
ATOM     22  O   UNL     1      10.238   0.452  25.268  0.00  0.00    -0.380 OA
ATOM     23  H   UNL     1       9.954  -0.068  26.041  0.00  0.00    +0.211 HD
ENDBRANCH   1  22
TORSDOF 6
ENDMDL
MODEL 9
REMARK VINA RESULT:      -5.5      2.236      5.965
REMARK  Name = 
REMARK  11 active torsions:
REMARK  status: ('A' for Active; 'I' for Inactive)
REMARK    1  A    between atoms: C_2  and  C_3
REMARK    2  A    between atoms: C_3  and  C_4
REMARK    3  A    between atoms: C_5  and  C_6
REMARK    4  A    between atoms: C_5  and  C_7
REMARK    5  A    between atoms: C_9  and  C_10
REMARK    6  A    between atoms: C_9  and  C_11
REMARK    7  A    between atoms: C_11  and  O_12
REMARK    8  A    between atoms: C_13  and  O_15
REMARK    9  A    between atoms: O_15  and  C_16
REMARK   10  A    between atoms: C_21  and  C_22
REMARK   11  A    between atoms: C_21  and  O_23
REMARK                            x       y       z     vdW  Elec       q    Type
REMARK                         _______ _______ _______ _____ _____    ______ ____
ROOT
ATOM      1  C   UNL     1       8.036  -1.686  23.082  0.00  0.00    +0.158 C 
ATOM      2  C   UNL     1       9.164  -1.697  24.208  0.00  0.00    +0.098 C 
ATOM      3  C   UNL     1      10.171  -0.523  24.134  0.00  0.00    +0.044 C 
ATOM      4  C   UNL     1       8.545  -1.710  25.612  0.00  0.00    +0.045 C 
ATOM      5  C   UNL     1       7.507  -0.613  25.832  0.00  0.00    +0.080 C 
ATOM      6  C   UNL     1       6.560  -0.419  24.669  0.00  0.00    +0.165 C 
ATOM      7  O   UNL     1       5.369  -0.160  24.853  0.00  0.00    -0.295 OA
ATOM      8  C   UNL     1       7.152  -0.416  23.257  0.00  0.00    +0.221 C 
ENDROOT
BRANCH   1  10
ATOM      9  C   UNL     1       7.300  -4.152  24.099  0.00  0.00    +0.157 C 
ATOM     10  C   UNL     1       7.187  -3.029  23.013  0.00  0.00    +0.127 C 
ATOM     11  C   UNL     1       5.982  -3.020  22.095  0.00  0.00    +0.047 C 
ATOM     12  O   UNL     1       7.983  -4.213  22.851  0.00  0.00    -0.362 OA
BRANCH   9  13
ATOM     13  C   UNL     1       6.342  -5.286  24.317  0.00  0.00    +0.061 C 
BRANCH  13  14
ATOM     14  C   UNL     1       6.009  -5.601  25.755  0.00  0.00    -0.026 C 
ATOM     15  C   UNL     1       5.076  -6.456  26.216  0.00  0.00    -0.080 C 
ATOM     16  C   UNL     1       4.980  -6.776  27.685  0.00  0.00    +0.038 C 
ATOM     17  C   UNL     1       4.065  -7.161  25.356  0.00  0.00    +0.038 C 
ENDBRANCH  13  14
ENDBRANCH   9  13
ENDBRANCH   1  10
BRANCH   2  18
ATOM     18  O   UNL     1       9.980  -2.877  24.101  0.00  0.00    -0.386 OA
ATOM     19  H   UNL     1      10.456  -2.814  23.253  0.00  0.00    +0.210 HD
ENDBRANCH   2  18
BRANCH   8  20
ATOM     20  O   UNL     1       7.816   0.857  23.188  0.00  0.00    -0.369 OA
ATOM     21  C   UNL     1       7.515   1.668  22.063  0.00  0.00    +0.195 C 
ENDBRANCH   8  20
BRANCH   1  22
ATOM     22  O   UNL     1       8.699  -1.613  21.795  0.00  0.00    -0.380 OA
ATOM     23  H   UNL     1       9.130  -2.473  21.641  0.00  0.00    +0.211 HD
ENDBRANCH   1  22
TORSDOF 6
ENDMDL
