MODEL 1
REMARK VINA RESULT:      -6.3      0.000      0.000
REMARK  Name = 
REMARK  8 active torsions:
REMARK  status: ('A' for Active; 'I' for Inactive)
REMARK    1  A    between atoms: C_1  and  N_2
REMARK    2  A    between atoms: N_2  and  C_3
REMARK    3  A    between atoms: N_2  and  C_4
REMARK    4  A    between atoms: C_4  and  C_5
REMARK    5  A    between atoms: C_5  and  C_6
REMARK    6  A    between atoms: C_6  and  N_7
REMARK    7  A    between atoms: C_18  and  C_21
REMARK    8  A    between atoms: C_21  and  C_22
REMARK                            x       y       z     vdW  Elec       q    Type
REMARK                         _______ _______ _______ _____ _____    ______ ____
ROOT
ATOM      1  N   UNL     1       8.837  -1.066  25.182  0.00  0.00    -0.298 N 
ATOM      2  C   UNL     1       8.288  -2.355  24.882  0.00  0.00    +0.049 A 
ATOM      3  C   UNL     1       7.836  -3.262  25.876  0.00  0.00    +0.036 A 
ATOM      4  C   UNL     1       7.336  -4.546  25.575  0.00  0.00    +0.019 A 
ATOM      5  C   UNL     1       7.292  -4.976  24.256  0.00  0.00    +0.012 A 
ATOM      6  C   UNL     1       7.705  -4.113  23.252  0.00  0.00    +0.017 A 
ATOM      7  C   UNL     1       8.183  -2.820  23.551  0.00  0.00    +0.034 A 
ATOM      8  S   UNL     1       8.601  -1.857  22.119  0.00  0.00    -0.086 S 
ATOM      9  C   UNL     1       9.280  -0.387  22.831  0.00  0.00    +0.034 A 
ATOM     10  C   UNL     1       9.734   0.570  21.897  0.00  0.00    +0.017 A 
ATOM     11  C   UNL     1      10.290   1.774  22.308  0.00  0.00    +0.001 A 
ATOM     12  C   UNL     1      10.450   2.008  23.660  0.00  0.00    +0.002 A 
ATOM     13  C   UNL     1      10.038   1.041  24.585  0.00  0.00    +0.024 A 
ATOM     14  C   UNL     1       9.379  -0.156  24.216  0.00  0.00    +0.048 A 
ENDROOT
BRANCH   4  15
ATOM     15  C   UNL     1       6.863  -5.499  26.626  0.00  0.00    +0.160 C 
ATOM     16  O   UNL     1       7.584  -5.727  27.597  0.00  0.00    -0.292 OA
ATOM     17  C   UNL     1       5.536  -6.196  26.473  0.00  0.00    +0.091 C 
ENDBRANCH   4  15
BRANCH   1  18
ATOM     18  C   UNL     1       8.873  -0.610  26.599  0.00  0.00    +0.112 C 
BRANCH  18  19
ATOM     19  C   UNL     1       7.511  -0.176  27.171  0.00  0.00    +0.035 C 
BRANCH  19  20
ATOM     20  C   UNL     1       6.921   1.090  26.553  0.00  0.00    +0.085 C 
BRANCH  20  22
ATOM     21  C   UNL     1       5.915   1.043  24.337  0.00  0.00    +0.104 C 
ATOM     22  N   UNL     1       5.691   0.875  25.773  0.00  0.00    -0.308 NA
ATOM     23  C   UNL     1       5.198  -0.481  26.041  0.00  0.00    +0.104 C 
ENDBRANCH  20  22
ENDBRANCH  19  20
ENDBRANCH  18  19
ENDBRANCH   1  18
TORSDOF 5
ENDMDL
MODEL 2
REMARK VINA RESULT:      -5.9      2.445      5.637
REMARK  Name = 
REMARK  8 active torsions:
REMARK  status: ('A' for Active; 'I' for Inactive)
REMARK    1  A    between atoms: C_1  and  N_2
REMARK    2  A    between atoms: N_2  and  C_3
REMARK    3  A    between atoms: N_2  and  C_4
REMARK    4  A    between atoms: C_4  and  C_5
REMARK    5  A    between atoms: C_5  and  C_6
REMARK    6  A    between atoms: C_6  and  N_7
REMARK    7  A    between atoms: C_18  and  C_21
REMARK    8  A    between atoms: C_21  and  C_22
REMARK                            x       y       z     vdW  Elec       q    Type
REMARK                         _______ _______ _______ _____ _____    ______ ____
ROOT
ATOM      1  N   UNL     1       8.874  -0.988  25.144  0.00  0.00    -0.298 N 
ATOM      2  C   UNL     1       9.271  -0.091  24.099  0.00  0.00    +0.049 A 
ATOM      3  C   UNL     1       9.712   1.238  24.337  0.00  0.00    +0.036 A 
ATOM      4  C   UNL     1      10.061   2.129  23.302  0.00  0.00    +0.019 A 
ATOM      5  C   UNL     1       9.958   1.722  21.979  0.00  0.00    +0.012 A 
ATOM      6  C   UNL     1       9.553   0.424  21.703  0.00  0.00    +0.017 A 
ATOM      7  C   UNL     1       9.226  -0.475  22.740  0.00  0.00    +0.034 A 
ATOM      8  S   UNL     1       8.791  -2.100  22.174  0.00  0.00    -0.086 S 
ATOM      9  C   UNL     1       8.314  -2.913  23.671  0.00  0.00    +0.034 A 
ATOM     10  C   UNL     1       7.882  -4.248  23.510  0.00  0.00    +0.017 A 
ATOM     11  C   UNL     1       7.479  -5.012  24.597  0.00  0.00    +0.001 A 
ATOM     12  C   UNL     1       7.449  -4.429  25.849  0.00  0.00    +0.002 A 
ATOM     13  C   UNL     1       7.838  -3.093  26.002  0.00  0.00    +0.024 A 
ATOM     14  C   UNL     1       8.347  -2.306  24.941  0.00  0.00    +0.048 A 
ENDROOT
BRANCH   4  15
ATOM     15  C   UNL     1      10.521   3.529  23.558  0.00  0.00    +0.160 C 
ATOM     16  O   UNL     1      11.702   3.817  23.367  0.00  0.00    -0.292 OA
ATOM     17  C   UNL     1       9.552   4.559  24.078  0.00  0.00    +0.091 C 
ENDBRANCH   4  15
BRANCH   1  18
ATOM     18  C   UNL     1       8.994  -0.545  26.560  0.00  0.00    +0.112 C 
BRANCH  18  19
ATOM     19  C   UNL     1       7.661  -0.180  27.237  0.00  0.00    +0.035 C 
BRANCH  19  20
ATOM     20  C   UNL     1       7.000   1.097  26.723  0.00  0.00    +0.085 C 
BRANCH  20  22
ATOM     21  C   UNL     1       5.879   0.971  24.566  0.00  0.00    +0.104 C 
ATOM     22  N   UNL     1       5.724   0.888  26.018  0.00  0.00    -0.308 NA
ATOM     23  C   UNL     1       5.199  -0.433  26.386  0.00  0.00    +0.104 C 
ENDBRANCH  20  22
ENDBRANCH  19  20
ENDBRANCH  18  19
ENDBRANCH   1  18
TORSDOF 5
ENDMDL
MODEL 3
REMARK VINA RESULT:      -5.5      2.897      6.507
REMARK  Name = 
REMARK  8 active torsions:
REMARK  status: ('A' for Active; 'I' for Inactive)
REMARK    1  A    between atoms: C_1  and  N_2
REMARK    2  A    between atoms: N_2  and  C_3
REMARK    3  A    between atoms: N_2  and  C_4
REMARK    4  A    between atoms: C_4  and  C_5
REMARK    5  A    between atoms: C_5  and  C_6
REMARK    6  A    between atoms: C_6  and  N_7
REMARK    7  A    between atoms: C_18  and  C_21
REMARK    8  A    between atoms: C_21  and  C_22
REMARK                            x       y       z     vdW  Elec       q    Type
REMARK                         _______ _______ _______ _____ _____    ______ ____
ROOT
ATOM      1  N   UNL     1       7.735  -3.233  25.154  0.00  0.00    -0.298 N 
ATOM      2  C   UNL     1       7.644  -1.901  24.633  0.00  0.00    +0.049 A 
ATOM      3  C   UNL     1       8.455  -1.420  23.572  0.00  0.00    +0.036 A 
ATOM      4  C   UNL     1       8.389  -0.095  23.093  0.00  0.00    +0.019 A 
ATOM      5  C   UNL     1       7.515   0.807  23.683  0.00  0.00    +0.012 A 
ATOM      6  C   UNL     1       6.688   0.373  24.709  0.00  0.00    +0.017 A 
ATOM      7  C   UNL     1       6.738  -0.959  25.172  0.00  0.00    +0.034 A 
ATOM      8  S   UNL     1       5.557  -1.323  26.447  0.00  0.00    -0.086 S 
ATOM      9  C   UNL     1       5.970  -2.985  26.889  0.00  0.00    +0.034 A 
ATOM     10  C   UNL     1       5.188  -3.535  27.928  0.00  0.00    +0.017 A 
ATOM     11  C   UNL     1       5.396  -4.831  28.381  0.00  0.00    +0.001 A 
ATOM     12  C   UNL     1       6.428  -5.570  27.836  0.00  0.00    +0.002 A 
ATOM     13  C   UNL     1       7.230  -5.011  26.835  0.00  0.00    +0.024 A 
ATOM     14  C   UNL     1       6.994  -3.731  26.276  0.00  0.00    +0.048 A 
ENDROOT
BRANCH   4  15
ATOM     15  C   UNL     1       9.248   0.407  21.977  0.00  0.00    +0.160 C 
ATOM     16  O   UNL     1       9.409  -0.297  20.980  0.00  0.00    -0.292 OA
ATOM     17  C   UNL     1       9.933   1.743  22.094  0.00  0.00    +0.091 C 
ENDBRANCH   4  15
BRANCH   1  18
ATOM     18  C   UNL     1       8.671  -4.196  24.510  0.00  0.00    +0.112 C 
BRANCH  18  19
ATOM     19  C   UNL     1       7.996  -5.248  23.612  0.00  0.00    +0.035 C 
BRANCH  19  20
ATOM     20  C   UNL     1       7.199  -4.685  22.438  0.00  0.00    +0.085 C 
BRANCH  20  22
ATOM     21  C   UNL     1       5.415  -5.958  23.497  0.00  0.00    +0.104 C 
ATOM     22  N   UNL     1       5.750  -4.942  22.499  0.00  0.00    -0.308 NA
ATOM     23  C   UNL     1       5.066  -3.685  22.823  0.00  0.00    +0.104 C 
ENDBRANCH  20  22
ENDBRANCH  19  20
ENDBRANCH  18  19
ENDBRANCH   1  18
TORSDOF 5
ENDMDL
MODEL 4
REMARK VINA RESULT:      -5.3      2.281      3.548
REMARK  Name = 
REMARK  8 active torsions:
REMARK  status: ('A' for Active; 'I' for Inactive)
REMARK    1  A    between atoms: C_1  and  N_2
REMARK    2  A    between atoms: N_2  and  C_3
REMARK    3  A    between atoms: N_2  and  C_4
REMARK    4  A    between atoms: C_4  and  C_5
REMARK    5  A    between atoms: C_5  and  C_6
REMARK    6  A    between atoms: C_6  and  N_7
REMARK    7  A    between atoms: C_18  and  C_21
REMARK    8  A    between atoms: C_21  and  C_22
REMARK                            x       y       z     vdW  Elec       q    Type
REMARK                         _______ _______ _______ _____ _____    ______ ____
ROOT
ATOM      1  N   UNL     1       7.430  -1.855  24.615  0.00  0.00    -0.298 N 
ATOM      2  C   UNL     1       6.896  -2.795  23.673  0.00  0.00    +0.049 A 
ATOM      3  C   UNL     1       5.808  -3.659  23.965  0.00  0.00    +0.036 A 
ATOM      4  C   UNL     1       5.314  -4.611  23.049  0.00  0.00    +0.019 A 
ATOM      5  C   UNL     1       5.915  -4.744  21.805  0.00  0.00    +0.012 A 
ATOM      6  C   UNL     1       6.968  -3.904  21.471  0.00  0.00    +0.017 A 
ATOM      7  C   UNL     1       7.446  -2.936  22.379  0.00  0.00    +0.034 A 
ATOM      8  S   UNL     1       8.755  -1.927  21.733  0.00  0.00    -0.086 S 
ATOM      9  C   UNL     1       9.207  -0.942  23.132  0.00  0.00    +0.034 A 
ATOM     10  C   UNL     1      10.273  -0.044  22.907  0.00  0.00    +0.017 A 
ATOM     11  C   UNL     1      10.735   0.794  23.913  0.00  0.00    +0.001 A 
ATOM     12  C   UNL     1      10.174   0.700  25.171  0.00  0.00    +0.002 A 
ATOM     13  C   UNL     1       9.145  -0.220  25.405  0.00  0.00    +0.024 A 
ATOM     14  C   UNL     1       8.577  -1.024  24.388  0.00  0.00    +0.048 A 
ENDROOT
BRANCH   4  15
ATOM     15  C   UNL     1       4.170  -5.521  23.362  0.00  0.00    +0.160 C 
ATOM     16  O   UNL     1       3.070  -5.297  22.860  0.00  0.00    -0.292 OA
ATOM     17  C   UNL     1       4.362  -6.675  24.311  0.00  0.00    +0.091 C 
ENDBRANCH   4  15
BRANCH   1  18
ATOM     18  C   UNL     1       6.774  -1.714  25.944  0.00  0.00    +0.112 C 
BRANCH  18  19
ATOM     19  C   UNL     1       7.004  -2.895  26.904  0.00  0.00    +0.035 C 
BRANCH  19  20
ATOM     20  C   UNL     1       8.380  -3.550  26.810  0.00  0.00    +0.085 C 
BRANCH  20  22
ATOM     21  C   UNL     1       7.002  -5.557  26.839  0.00  0.00    +0.104 C 
ATOM     22  N   UNL     1       8.354  -5.018  26.687  0.00  0.00    -0.308 NA
ATOM     23  C   UNL     1       8.888  -5.386  25.370  0.00  0.00    +0.104 C 
ENDBRANCH  20  22
ENDBRANCH  19  20
ENDBRANCH  18  19
ENDBRANCH   1  18
TORSDOF 5
ENDMDL
MODEL 5
REMARK VINA RESULT:      -5.3      1.591      1.943
REMARK  Name = 
REMARK  8 active torsions:
REMARK  status: ('A' for Active; 'I' for Inactive)
REMARK    1  A    between atoms: C_1  and  N_2
REMARK    2  A    between atoms: N_2  and  C_3
REMARK    3  A    between atoms: N_2  and  C_4
REMARK    4  A    between atoms: C_4  and  C_5
REMARK    5  A    between atoms: C_5  and  C_6
REMARK    6  A    between atoms: C_6  and  N_7
REMARK    7  A    between atoms: C_18  and  C_21
REMARK    8  A    between atoms: C_21  and  C_22
REMARK                            x       y       z     vdW  Elec       q    Type
REMARK                         _______ _______ _______ _____ _____    ______ ____
ROOT
ATOM      1  N   UNL     1       7.955  -0.790  25.639  0.00  0.00    -0.298 N 
ATOM      2  C   UNL     1       8.055  -2.219  25.707  0.00  0.00    +0.049 A 
ATOM      3  C   UNL     1       7.311  -3.011  26.620  0.00  0.00    +0.036 A 
ATOM      4  C   UNL     1       7.446  -4.412  26.711  0.00  0.00    +0.019 A 
ATOM      5  C   UNL     1       8.357  -5.069  25.895  0.00  0.00    +0.012 A 
ATOM      6  C   UNL     1       9.089  -4.335  24.973  0.00  0.00    +0.017 A 
ATOM      7  C   UNL     1       8.937  -2.937  24.867  0.00  0.00    +0.034 A 
ATOM      8  S   UNL     1       9.919  -2.200  23.585  0.00  0.00    -0.086 S 
ATOM      9  C   UNL     1       9.610  -0.473  23.809  0.00  0.00    +0.034 A 
ATOM     10  C   UNL     1      10.304   0.375  22.919  0.00  0.00    +0.017 A 
ATOM     11  C   UNL     1      10.159   1.755  22.974  0.00  0.00    +0.001 A 
ATOM     12  C   UNL     1       9.361   2.303  23.959  0.00  0.00    +0.002 A 
ATOM     13  C   UNL     1       8.705   1.464  24.868  0.00  0.00    +0.024 A 
ATOM     14  C   UNL     1       8.747   0.051  24.789  0.00  0.00    +0.048 A 
ENDROOT
BRANCH   4  15
ATOM     15  C   UNL     1       6.663  -5.241  27.677  0.00  0.00    +0.160 C 
ATOM     16  O   UNL     1       7.188  -6.233  28.181  0.00  0.00    -0.292 OA
ATOM     17  C   UNL     1       5.235  -4.881  27.997  0.00  0.00    +0.091 C 
ENDBRANCH   4  15
BRANCH   1  18
ATOM     18  C   UNL     1       6.970  -0.095  26.512  0.00  0.00    +0.112 C 
BRANCH  18  19
ATOM     19  C   UNL     1       5.539  -0.031  25.947  0.00  0.00    +0.035 C 
BRANCH  19  20
ATOM     20  C   UNL     1       4.484   0.503  26.913  0.00  0.00    +0.085 C 
BRANCH  20  22
ATOM     21  C   UNL     1       2.177   1.264  27.075  0.00  0.00    +0.104 C 
ATOM     22  N   UNL     1       3.402   1.273  26.275  0.00  0.00    -0.308 NA
ATOM     23  C   UNL     1       3.860   2.654  26.086  0.00  0.00    +0.104 C 
ENDBRANCH  20  22
ENDBRANCH  19  20
ENDBRANCH  18  19
ENDBRANCH   1  18
TORSDOF 5
ENDMDL
MODEL 6
REMARK VINA RESULT:      -5.2      2.277      3.954
REMARK  Name = 
REMARK  8 active torsions:
REMARK  status: ('A' for Active; 'I' for Inactive)
REMARK    1  A    between atoms: C_1  and  N_2
REMARK    2  A    between atoms: N_2  and  C_3
REMARK    3  A    between atoms: N_2  and  C_4
REMARK    4  A    between atoms: C_4  and  C_5
REMARK    5  A    between atoms: C_5  and  C_6
REMARK    6  A    between atoms: C_6  and  N_7
REMARK    7  A    between atoms: C_18  and  C_21
REMARK    8  A    between atoms: C_21  and  C_22
REMARK                            x       y       z     vdW  Elec       q    Type
REMARK                         _______ _______ _______ _____ _____    ______ ____
ROOT
ATOM      1  N   UNL     1       7.963  -1.974  24.382  0.00  0.00    -0.298 N 
ATOM      2  C   UNL     1       6.895  -1.954  25.337  0.00  0.00    +0.049 A 
ATOM      3  C   UNL     1       6.642  -3.016  26.246  0.00  0.00    +0.036 A 
ATOM      4  C   UNL     1       5.564  -3.009  27.155  0.00  0.00    +0.019 A 
ATOM      5  C   UNL     1       4.682  -1.937  27.169  0.00  0.00    +0.012 A 
ATOM      6  C   UNL     1       4.906  -0.869  26.312  0.00  0.00    +0.017 A 
ATOM      7  C   UNL     1       5.998  -0.865  25.419  0.00  0.00    +0.034 A 
ATOM      8  S   UNL     1       6.137   0.619  24.456  0.00  0.00    -0.086 S 
ATOM      9  C   UNL     1       7.484   0.249  23.372  0.00  0.00    +0.034 A 
ATOM     10  C   UNL     1       7.804   1.270  22.451  0.00  0.00    +0.017 A 
ATOM     11  C   UNL     1       8.840   1.122  21.538  0.00  0.00    +0.001 A 
ATOM     12  C   UNL     1       9.529  -0.074  21.499  0.00  0.00    +0.002 A 
ATOM     13  C   UNL     1       9.185  -1.103  22.384  0.00  0.00    +0.024 A 
ATOM     14  C   UNL     1       8.202  -0.962  23.394  0.00  0.00    +0.048 A 
ENDROOT
BRANCH   4  15
ATOM     15  C   UNL     1       5.300  -4.130  28.108  0.00  0.00    +0.160 C 
ATOM     16  O   UNL     1       4.419  -4.002  28.958  0.00  0.00    -0.292 OA
ATOM     17  C   UNL     1       6.130  -5.386  28.046  0.00  0.00    +0.091 C 
ENDBRANCH   4  15
BRANCH   1  18
ATOM     18  C   UNL     1       8.908  -3.124  24.379  0.00  0.00    +0.112 C 
BRANCH  18  19
ATOM     19  C   UNL     1       8.292  -4.464  23.937  0.00  0.00    +0.035 C 
BRANCH  19  20
ATOM     20  C   UNL     1       7.497  -4.415  22.634  0.00  0.00    +0.085 C 
BRANCH  20  22
ATOM     21  C   UNL     1       5.144  -3.793  22.707  0.00  0.00    +0.104 C 
ATOM     22  N   UNL     1       6.108  -4.893  22.745  0.00  0.00    -0.308 NA
ATOM     23  C   UNL     1       5.844  -5.821  21.639  0.00  0.00    +0.104 C 
ENDBRANCH  20  22
ENDBRANCH  19  20
ENDBRANCH  18  19
ENDBRANCH   1  18
TORSDOF 5
ENDMDL
MODEL 7
REMARK VINA RESULT:      -5.2      2.841      4.145
REMARK  Name = 
REMARK  8 active torsions:
REMARK  status: ('A' for Active; 'I' for Inactive)
REMARK    1  A    between atoms: C_1  and  N_2
REMARK    2  A    between atoms: N_2  and  C_3
REMARK    3  A    between atoms: N_2  and  C_4
REMARK    4  A    between atoms: C_4  and  C_5
REMARK    5  A    between atoms: C_5  and  C_6
REMARK    6  A    between atoms: C_6  and  N_7
REMARK    7  A    between atoms: C_18  and  C_21
REMARK    8  A    between atoms: C_21  and  C_22
REMARK                            x       y       z     vdW  Elec       q    Type
REMARK                         _______ _______ _______ _____ _____    ______ ____
ROOT
ATOM      1  N   UNL     1       7.775   1.671  24.402  0.00  0.00    -0.298 N 
ATOM      2  C   UNL     1       8.193   0.609  23.534  0.00  0.00    +0.049 A 
ATOM      3  C   UNL     1       7.567  -0.665  23.503  0.00  0.00    +0.036 A 
ATOM      4  C   UNL     1       8.010  -1.719  22.677  0.00  0.00    +0.019 A 
ATOM      5  C   UNL     1       9.119  -1.536  21.863  0.00  0.00    +0.012 A 
ATOM      6  C   UNL     1       9.747  -0.299  21.847  0.00  0.00    +0.017 A 
ATOM      7  C   UNL     1       9.290   0.763  22.656  0.00  0.00    +0.034 A 
ATOM      8  S   UNL     1      10.194   2.274  22.440  0.00  0.00    -0.086 S 
ATOM      9  C   UNL     1       9.479   3.329  23.667  0.00  0.00    +0.034 A 
ATOM     10  C   UNL     1      10.042   4.621  23.741  0.00  0.00    +0.017 A 
ATOM     11  C   UNL     1       9.580   5.559  24.655  0.00  0.00    +0.001 A 
ATOM     12  C   UNL     1       8.589   5.192  25.544  0.00  0.00    +0.002 A 
ATOM     13  C   UNL     1       8.060   3.897  25.499  0.00  0.00    +0.024 A 
ATOM     14  C   UNL     1       8.430   2.941  24.522  0.00  0.00    +0.048 A 
ENDROOT
BRANCH   4  15
ATOM     15  C   UNL     1       7.349  -3.060  22.650  0.00  0.00    +0.160 C 
ATOM     16  O   UNL     1       7.919  -4.020  23.167  0.00  0.00    -0.292 OA
ATOM     17  C   UNL     1       6.019  -3.233  21.964  0.00  0.00    +0.091 C 
ENDBRANCH   4  15
BRANCH   1  18
ATOM     18  C   UNL     1       6.581   1.468  25.266  0.00  0.00    +0.112 C 
BRANCH  18  19
ATOM     19  C   UNL     1       5.231   1.717  24.569  0.00  0.00    +0.035 C 
BRANCH  19  20
ATOM     20  C   UNL     1       4.583   3.067  24.869  0.00  0.00    +0.085 C 
BRANCH  20  22
ATOM     21  C   UNL     1       4.897   5.281  23.910  0.00  0.00    +0.104 C 
ATOM     22  N   UNL     1       4.385   3.928  23.692  0.00  0.00    -0.308 NA
ATOM     23  C   UNL     1       5.069   3.318  22.546  0.00  0.00    +0.104 C 
ENDBRANCH  20  22
ENDBRANCH  19  20
ENDBRANCH  18  19
ENDBRANCH   1  18
TORSDOF 5
ENDMDL
MODEL 8
REMARK VINA RESULT:      -5.2      3.044      6.706
REMARK  Name = 
REMARK  8 active torsions:
REMARK  status: ('A' for Active; 'I' for Inactive)
REMARK    1  A    between atoms: C_1  and  N_2
REMARK    2  A    between atoms: N_2  and  C_3
REMARK    3  A    between atoms: N_2  and  C_4
REMARK    4  A    between atoms: C_4  and  C_5
REMARK    5  A    between atoms: C_5  and  C_6
REMARK    6  A    between atoms: C_6  and  N_7
REMARK    7  A    between atoms: C_18  and  C_21
REMARK    8  A    between atoms: C_21  and  C_22
REMARK                            x       y       z     vdW  Elec       q    Type
REMARK                         _______ _______ _______ _____ _____    ______ ____
ROOT
ATOM      1  N   UNL     1       6.167  -1.675  23.880  0.00  0.00    -0.298 N 
ATOM      2  C   UNL     1       6.947  -0.521  24.218  0.00  0.00    +0.049 A 
ATOM      3  C   UNL     1       7.957   0.013  23.375  0.00  0.00    +0.036 A 
ATOM      4  C   UNL     1       8.749   1.124  23.732  0.00  0.00    +0.019 A 
ATOM      5  C   UNL     1       8.568   1.729  24.968  0.00  0.00    +0.012 A 
ATOM      6  C   UNL     1       7.576   1.252  25.814  0.00  0.00    +0.017 A 
ATOM      7  C   UNL     1       6.768   0.155  25.446  0.00  0.00    +0.034 A 
ATOM      8  S   UNL     1       5.523  -0.255  26.642  0.00  0.00    -0.086 S 
ATOM      9  C   UNL     1       4.801  -1.718  25.958  0.00  0.00    +0.034 A 
ATOM     10  C   UNL     1       3.774  -2.293  26.737  0.00  0.00    +0.017 A 
ATOM     11  C   UNL     1       3.113  -3.444  26.326  0.00  0.00    +0.001 A 
ATOM     12  C   UNL     1       3.515  -4.062  25.158  0.00  0.00    +0.002 A 
ATOM     13  C   UNL     1       4.561  -3.515  24.406  0.00  0.00    +0.024 A 
ATOM     14  C   UNL     1       5.197  -2.293  24.736  0.00  0.00    +0.048 A 
ENDROOT
BRANCH   4  15
ATOM     15  C   UNL     1       9.813   1.681  22.842  0.00  0.00    +0.160 C 
ATOM     16  O   UNL     1      10.012   1.160  21.745  0.00  0.00    -0.292 OA
ATOM     17  C   UNL     1      10.654   2.842  23.305  0.00  0.00    +0.091 C 
ENDBRANCH   4  15
BRANCH   1  18
ATOM     18  C   UNL     1       6.364  -2.313  22.549  0.00  0.00    +0.112 C 
BRANCH  18  19
ATOM     19  C   UNL     1       7.681  -3.095  22.397  0.00  0.00    +0.035 C 
BRANCH  19  20
ATOM     20  C   UNL     1       7.707  -4.462  23.077  0.00  0.00    +0.085 C 
BRANCH  20  22
ATOM     21  C   UNL     1       9.448  -3.352  24.366  0.00  0.00    +0.104 C 
ATOM     22  N   UNL     1       8.689  -4.587  24.167  0.00  0.00    -0.308 NA
ATOM     23  C   UNL     1       7.975  -4.933  25.402  0.00  0.00    +0.104 C 
ENDBRANCH  20  22
ENDBRANCH  19  20
ENDBRANCH  18  19
ENDBRANCH   1  18
TORSDOF 5
ENDMDL
MODEL 9
REMARK VINA RESULT:      -5.2      1.386      1.755
REMARK  Name = 
REMARK  8 active torsions:
REMARK  status: ('A' for Active; 'I' for Inactive)
REMARK    1  A    between atoms: C_1  and  N_2
REMARK    2  A    between atoms: N_2  and  C_3
REMARK    3  A    between atoms: N_2  and  C_4
REMARK    4  A    between atoms: C_4  and  C_5
REMARK    5  A    between atoms: C_5  and  C_6
REMARK    6  A    between atoms: C_6  and  N_7
REMARK    7  A    between atoms: C_18  and  C_21
REMARK    8  A    between atoms: C_21  and  C_22
REMARK                            x       y       z     vdW  Elec       q    Type
REMARK                         _______ _______ _______ _____ _____    ______ ____
ROOT
ATOM      1  N   UNL     1       8.158  -0.623  25.094  0.00  0.00    -0.298 N 
ATOM      2  C   UNL     1       7.866  -2.015  24.916  0.00  0.00    +0.049 A 
ATOM      3  C   UNL     1       7.240  -2.814  25.909  0.00  0.00    +0.036 A 
ATOM      4  C   UNL     1       6.993  -4.193  25.743  0.00  0.00    +0.019 A 
ATOM      5  C   UNL     1       7.389  -4.827  24.573  0.00  0.00    +0.012 A 
ATOM      6  C   UNL     1       7.985  -4.078  23.569  0.00  0.00    +0.017 A 
ATOM      7  C   UNL     1       8.211  -2.694  23.725  0.00  0.00    +0.034 A 
ATOM      8  S   UNL     1       8.927  -1.915  22.301  0.00  0.00    -0.086 S 
ATOM      9  C   UNL     1       9.202  -0.262  22.865  0.00  0.00    +0.034 A 
ATOM     10  C   UNL     1       9.806   0.596  21.920  0.00  0.00    +0.017 A 
ATOM     11  C   UNL     1      10.082   1.923  22.222  0.00  0.00    +0.001 A 
ATOM     12  C   UNL     1       9.808   2.390  23.492  0.00  0.00    +0.002 A 
ATOM     13  C   UNL     1       9.248   1.528  24.443  0.00  0.00    +0.024 A 
ATOM     14  C   UNL     1       8.861   0.198  24.151  0.00  0.00    +0.048 A 
ENDROOT
BRANCH   4  15
ATOM     15  C   UNL     1       6.336  -5.031  26.792  0.00  0.00    +0.160 C 
ATOM     16  O   UNL     1       6.346  -6.256  26.676  0.00  0.00    -0.292 OA
ATOM     17  C   UNL     1       5.641  -4.375  27.957  0.00  0.00    +0.091 C 
ENDBRANCH   4  15
BRANCH   1  18
ATOM     18  C   UNL     1       7.723   0.050  26.349  0.00  0.00    +0.112 C 
BRANCH  18  19
ATOM     19  C   UNL     1       6.289   0.609  26.317  0.00  0.00    +0.035 C 
BRANCH  19  20
ATOM     20  C   UNL     1       6.129   2.020  26.879  0.00  0.00    +0.085 C 
BRANCH  20  22
ATOM     21  C   UNL     1       7.005   2.769  29.023  0.00  0.00    +0.104 C 
ATOM     22  N   UNL     1       5.913   2.080  28.334  0.00  0.00    -0.308 NA
ATOM     23  C   UNL     1       4.647   2.776  28.591  0.00  0.00    +0.104 C 
ENDBRANCH  20  22
ENDBRANCH  19  20
ENDBRANCH  18  19
ENDBRANCH   1  18
TORSDOF 5
ENDMDL
