MODEL 1
REMARK VINA RESULT:      -7.4      0.000      0.000
REMARK  Name = 
REMARK  11 active torsions:
REMARK  status: ('A' for Active; 'I' for Inactive)
REMARK    1  A    between atoms: C_2  and  O_3
REMARK    2  A    between atoms: C_2  and  C_4
REMARK    3  A    between atoms: C_2  and  C_28
REMARK    4  A    between atoms: C_4  and  O_5
REMARK    5  A    between atoms: O_5  and  C_6
REMARK    6  A    between atoms: C_9  and  N_10
REMARK    7  A    between atoms: C_13  and  N_14
REMARK    8  A    between atoms: N_14  and  C_15
REMARK    9  A    between atoms: C_28  and  N_29
REMARK   10  A    between atoms: N_29  and  C_30
REMARK   11  A    between atoms: N_29  and  C_31
REMARK                            x       y       z     vdW  Elec       q    Type
REMARK                         _______ _______ _______ _____ _____    ______ ____
ROOT
ATOM      1  N   UNL     1       8.761  -2.704  22.516  0.00  0.00    -0.284 N 
ATOM      2  H   UNL     1       8.919  -2.413  21.555  0.00  0.00    +0.155 HD
ATOM      3  C   UNL     1       9.136  -1.603  23.296  0.00  0.00    +0.221 A 
ATOM      4  N   UNL     1       9.040  -1.641  24.632  0.00  0.00    -0.223 NA
ATOM      5  C   UNL     1       9.409  -0.536  25.300  0.00  0.00    +0.118 A 
ATOM      6  C   UNL     1       9.860   0.606  24.687  0.00  0.00    +0.063 A 
ATOM      7  C   UNL     1       9.886   0.576  23.312  0.00  0.00    +0.128 A 
ATOM      8  N   UNL     1       9.561  -0.531  22.618  0.00  0.00    -0.199 NA
ENDROOT
BRANCH   1  12
ATOM      9  C   UNL     1       5.180  -4.948  22.599  0.00  0.00    +0.121 A 
ATOM     10  C   UNL     1       6.417  -5.582  22.481  0.00  0.00    +0.047 A 
ATOM     11  C   UNL     1       7.596  -4.826  22.476  0.00  0.00    +0.027 A 
ATOM     12  C   UNL     1       7.557  -3.433  22.617  0.00  0.00    +0.034 A 
ATOM     13  C   UNL     1       6.313  -2.820  22.798  0.00  0.00    +0.027 A 
ATOM     14  C   UNL     1       5.135  -3.570  22.795  0.00  0.00    +0.047 A 
BRANCH   9  15
ATOM     15  O   UNL     1       4.069  -5.750  22.530  0.00  0.00    -0.489 OA
BRANCH  15  16
ATOM     16  C   UNL     1       3.373  -5.877  23.782  0.00  0.00    +0.261 C 
BRANCH  16  17
ATOM     17  C   UNL     1       3.868  -7.121  24.533  0.00  0.00    +0.166 C 
BRANCH  17  18
ATOM     18  O   UNL     1       3.082  -8.287  24.257  0.00  0.00    -0.387 OA
ATOM     19  H   UNL     1       3.241  -8.527  23.328  0.00  0.00    +0.210 HD
ENDBRANCH  17  18
BRANCH  17  20
ATOM     20  C   UNL     1       3.949  -6.869  26.060  0.00  0.00    +0.118 C 
BRANCH  20  21
ATOM     21  N   UNL     1       5.298  -6.820  26.679  0.00  0.00    -0.306 NA
ATOM     22  C   UNL     1       5.157  -6.836  28.142  0.00  0.00    +0.104 C 
ATOM     23  C   UNL     1       6.043  -5.620  26.287  0.00  0.00    +0.104 C 
ENDBRANCH  20  21
ENDBRANCH  17  20
ENDBRANCH  16  17
ENDBRANCH  15  16
ENDBRANCH   9  15
ENDBRANCH   1  12
BRANCH   7  24
ATOM     24  N   UNL     1      10.170   1.767  22.615  0.00  0.00    -0.298 N 
ATOM     25  H   UNL     1      10.042   1.681  21.611  0.00  0.00    +0.154 HD
BRANCH  24  26
ATOM     26  C   UNL     1      10.006   3.080  23.116  0.00  0.00    +0.052 A 
ATOM     27  C   UNL     1      11.125   3.876  23.413  0.00  0.00    +0.044 A 
ATOM     28  C   UNL     1      10.986   5.196  23.840  0.00  0.00    +0.043 A 
ATOM     29 CL   UNL     1      12.382   6.121  24.219  0.00  0.00    -0.083 Cl
ATOM     30  C   UNL     1       9.719   5.764  23.951  0.00  0.00    +0.021 A 
ATOM     31  C   UNL     1       8.591   5.002  23.649  0.00  0.00    +0.023 A 
ATOM     32  C   UNL     1       8.733   3.672  23.234  0.00  0.00    +0.062 A 
ATOM     33 CL   UNL     1       7.303   2.763  22.886  0.00  0.00    -0.082 Cl
ENDBRANCH  24  26
ENDBRANCH   7  24
TORSDOF 9
ENDMDL
MODEL 2
REMARK VINA RESULT:      -7.3      1.282      2.054
REMARK  Name = 
REMARK  11 active torsions:
REMARK  status: ('A' for Active; 'I' for Inactive)
REMARK    1  A    between atoms: C_2  and  O_3
REMARK    2  A    between atoms: C_2  and  C_4
REMARK    3  A    between atoms: C_2  and  C_28
REMARK    4  A    between atoms: C_4  and  O_5
REMARK    5  A    between atoms: O_5  and  C_6
REMARK    6  A    between atoms: C_9  and  N_10
REMARK    7  A    between atoms: C_13  and  N_14
REMARK    8  A    between atoms: N_14  and  C_15
REMARK    9  A    between atoms: C_28  and  N_29
REMARK   10  A    between atoms: N_29  and  C_30
REMARK   11  A    between atoms: N_29  and  C_31
REMARK                            x       y       z     vdW  Elec       q    Type
REMARK                         _______ _______ _______ _____ _____    ______ ____
ROOT
ATOM      1  N   UNL     1       8.756  -1.625  22.121  0.00  0.00    -0.284 N 
ATOM      2  H   UNL     1       8.634  -1.146  21.233  0.00  0.00    +0.155 HD
ATOM      3  C   UNL     1       9.400  -0.698  22.949  0.00  0.00    +0.221 A 
ATOM      4  N   UNL     1       9.706  -1.004  24.218  0.00  0.00    -0.223 NA
ATOM      5  C   UNL     1      10.311  -0.051  24.945  0.00  0.00    +0.118 A 
ATOM      6  C   UNL     1      10.613   1.196  24.459  0.00  0.00    +0.063 A 
ATOM      7  C   UNL     1      10.226   1.443  23.162  0.00  0.00    +0.128 A 
ATOM      8  N   UNL     1       9.654   0.493  22.397  0.00  0.00    -0.199 NA
ENDROOT
BRANCH   1  12
ATOM      9  C   UNL     1       5.237  -3.850  22.850  0.00  0.00    +0.121 A 
ATOM     10  C   UNL     1       6.256  -4.367  22.051  0.00  0.00    +0.047 A 
ATOM     11  C   UNL     1       7.424  -3.627  21.835  0.00  0.00    +0.027 A 
ATOM     12  C   UNL     1       7.604  -2.375  22.438  0.00  0.00    +0.034 A 
ATOM     13  C   UNL     1       6.600  -1.899  23.287  0.00  0.00    +0.027 A 
ATOM     14  C   UNL     1       5.429  -2.631  23.497  0.00  0.00    +0.047 A 
BRANCH   9  15
ATOM     15  O   UNL     1       4.097  -4.606  22.959  0.00  0.00    -0.489 OA
BRANCH  15  16
ATOM     16  C   UNL     1       3.869  -5.111  24.286  0.00  0.00    +0.261 C 
BRANCH  16  17
ATOM     17  C   UNL     1       4.839  -6.264  24.582  0.00  0.00    +0.166 C 
BRANCH  17  18
ATOM     18  O   UNL     1       4.426  -7.503  23.994  0.00  0.00    -0.387 OA
ATOM     19  H   UNL     1       4.982  -7.649  23.210  0.00  0.00    +0.210 HD
ENDBRANCH  17  18
BRANCH  17  20
ATOM     20  C   UNL     1       5.073  -6.434  26.104  0.00  0.00    +0.118 C 
BRANCH  20  21
ATOM     21  N   UNL     1       6.418  -6.095  26.637  0.00  0.00    -0.306 NA
ATOM     22  C   UNL     1       6.263  -5.336  27.885  0.00  0.00    +0.104 C 
ATOM     23  C   UNL     1       7.201  -5.295  25.690  0.00  0.00    +0.104 C 
ENDBRANCH  20  21
ENDBRANCH  17  20
ENDBRANCH  16  17
ENDBRANCH  15  16
ENDBRANCH   9  15
ENDBRANCH   1  12
BRANCH   7  24
ATOM     24  N   UNL     1      10.346   2.753  22.658  0.00  0.00    -0.298 N 
ATOM     25  H   UNL     1      10.269   2.799  21.646  0.00  0.00    +0.154 HD
BRANCH  24  26
ATOM     26  C   UNL     1       9.962   3.938  23.327  0.00  0.00    +0.052 A 
ATOM     27  C   UNL     1       8.639   4.115  23.765  0.00  0.00    +0.044 A 
ATOM     28  C   UNL     1       8.256   5.243  24.489  0.00  0.00    +0.043 A 
ATOM     29 CL   UNL     1       6.621   5.428  24.977  0.00  0.00    -0.083 Cl
ATOM     30  C   UNL     1       9.199   6.213  24.820  0.00  0.00    +0.021 A 
ATOM     31  C   UNL     1      10.523   6.058  24.410  0.00  0.00    +0.023 A 
ATOM     32  C   UNL     1      10.902   4.930  23.672  0.00  0.00    +0.062 A 
ATOM     33 CL   UNL     1      12.552   4.790  23.175  0.00  0.00    -0.082 Cl
ENDBRANCH  24  26
ENDBRANCH   7  24
TORSDOF 9
ENDMDL
MODEL 3
REMARK VINA RESULT:      -7.3      1.451      1.989
REMARK  Name = 
REMARK  11 active torsions:
REMARK  status: ('A' for Active; 'I' for Inactive)
REMARK    1  A    between atoms: C_2  and  O_3
REMARK    2  A    between atoms: C_2  and  C_4
REMARK    3  A    between atoms: C_2  and  C_28
REMARK    4  A    between atoms: C_4  and  O_5
REMARK    5  A    between atoms: O_5  and  C_6
REMARK    6  A    between atoms: C_9  and  N_10
REMARK    7  A    between atoms: C_13  and  N_14
REMARK    8  A    between atoms: N_14  and  C_15
REMARK    9  A    between atoms: C_28  and  N_29
REMARK   10  A    between atoms: N_29  and  C_30
REMARK   11  A    between atoms: N_29  and  C_31
REMARK                            x       y       z     vdW  Elec       q    Type
REMARK                         _______ _______ _______ _____ _____    ______ ____
ROOT
ATOM      1  N   UNL     1       8.249  -2.086  22.271  0.00  0.00    -0.284 N 
ATOM      2  H   UNL     1       7.924  -1.589  21.447  0.00  0.00    +0.155 HD
ATOM      3  C   UNL     1       8.810  -1.101  23.093  0.00  0.00    +0.221 A 
ATOM      4  N   UNL     1       9.331  -1.415  24.288  0.00  0.00    -0.223 NA
ATOM      5  C   UNL     1       9.834  -0.407  25.016  0.00  0.00    +0.118 A 
ATOM      6  C   UNL     1       9.829   0.902  24.605  0.00  0.00    +0.063 A 
ATOM      7  C   UNL     1       9.236   1.144  23.386  0.00  0.00    +0.128 A 
ATOM      8  N   UNL     1       8.760   0.147  22.617  0.00  0.00    -0.199 NA
ENDROOT
BRANCH   1  12
ATOM      9  C   UNL     1       5.444  -4.938  23.637  0.00  0.00    +0.121 A 
ATOM     10  C   UNL     1       5.109  -3.586  23.561  0.00  0.00    +0.047 A 
ATOM     11  C   UNL     1       6.042  -2.656  23.087  0.00  0.00    +0.027 A 
ATOM     12  C   UNL     1       7.311  -3.067  22.656  0.00  0.00    +0.034 A 
ATOM     13  C   UNL     1       7.608  -4.433  22.680  0.00  0.00    +0.027 A 
ATOM     14  C   UNL     1       6.682  -5.362  23.160  0.00  0.00    +0.047 A 
BRANCH   9  15
ATOM     15  O   UNL     1       4.500  -5.776  24.173  0.00  0.00    -0.489 OA
BRANCH  15  16
ATOM     16  C   UNL     1       4.215  -5.508  25.558  0.00  0.00    +0.261 C 
BRANCH  16  17
ATOM     17  C   UNL     1       5.348  -6.052  26.441  0.00  0.00    +0.166 C 
BRANCH  17  18
ATOM     18  O   UNL     1       5.008  -7.286  27.083  0.00  0.00    -0.387 OA
ATOM     19  H   UNL     1       4.116  -7.180  27.456  0.00  0.00    +0.210 HD
ENDBRANCH  17  18
BRANCH  17  20
ATOM     20  C   UNL     1       5.808  -5.002  27.484  0.00  0.00    +0.118 C 
BRANCH  20  21
ATOM     21  N   UNL     1       7.168  -4.425  27.326  0.00  0.00    -0.306 NA
ATOM     22  C   UNL     1       7.061  -3.119  26.661  0.00  0.00    +0.104 C 
ATOM     23  C   UNL     1       8.046  -5.291  26.534  0.00  0.00    +0.104 C 
ENDBRANCH  20  21
ENDBRANCH  17  20
ENDBRANCH  16  17
ENDBRANCH  15  16
ENDBRANCH   9  15
ENDBRANCH   1  12
BRANCH   7  24
ATOM     24  N   UNL     1       9.041   2.480  22.983  0.00  0.00    -0.298 N 
ATOM     25  H   UNL     1       8.082   2.677  22.709  0.00  0.00    +0.154 HD
BRANCH  24  26
ATOM     26  C   UNL     1       9.755   3.604  23.461  0.00  0.00    +0.052 A 
ATOM     27  C   UNL     1      11.088   3.819  23.077  0.00  0.00    +0.044 A 
ATOM     28  C   UNL     1      11.787   4.957  23.480  0.00  0.00    +0.043 A 
ATOM     29 CL   UNL     1      13.425   5.162  23.010  0.00  0.00    -0.083 Cl
ATOM     30  C   UNL     1      11.155   5.926  24.255  0.00  0.00    +0.021 A 
ATOM     31  C   UNL     1       9.827   5.745  24.640  0.00  0.00    +0.023 A 
ATOM     32  C   UNL     1       9.132   4.595  24.246  0.00  0.00    +0.062 A 
ATOM     33 CL   UNL     1       7.491   4.410  24.760  0.00  0.00    -0.082 Cl
ENDBRANCH  24  26
ENDBRANCH   7  24
TORSDOF 9
ENDMDL
MODEL 4
REMARK VINA RESULT:      -7.2      1.885      2.853
REMARK  Name = 
REMARK  11 active torsions:
REMARK  status: ('A' for Active; 'I' for Inactive)
REMARK    1  A    between atoms: C_2  and  O_3
REMARK    2  A    between atoms: C_2  and  C_4
REMARK    3  A    between atoms: C_2  and  C_28
REMARK    4  A    between atoms: C_4  and  O_5
REMARK    5  A    between atoms: O_5  and  C_6
REMARK    6  A    between atoms: C_9  and  N_10
REMARK    7  A    between atoms: C_13  and  N_14
REMARK    8  A    between atoms: N_14  and  C_15
REMARK    9  A    between atoms: C_28  and  N_29
REMARK   10  A    between atoms: N_29  and  C_30
REMARK   11  A    between atoms: N_29  and  C_31
REMARK                            x       y       z     vdW  Elec       q    Type
REMARK                         _______ _______ _______ _____ _____    ______ ____
ROOT
ATOM      1  N   UNL     1       8.627  -1.438  22.138  0.00  0.00    -0.284 N 
ATOM      2  H   UNL     1       8.304  -0.921  21.325  0.00  0.00    +0.155 HD
ATOM      3  C   UNL     1       9.336  -0.505  22.904  0.00  0.00    +0.221 A 
ATOM      4  N   UNL     1       9.895  -0.855  24.071  0.00  0.00    -0.223 NA
ATOM      5  C   UNL     1      10.545   0.105  24.747  0.00  0.00    +0.118 A 
ATOM      6  C   UNL     1      10.650   1.401  24.310  0.00  0.00    +0.063 A 
ATOM      7  C   UNL     1      10.011   1.687  23.125  0.00  0.00    +0.128 A 
ATOM      8  N   UNL     1       9.387   0.735  22.406  0.00  0.00    -0.199 NA
ENDROOT
BRANCH   1  12
ATOM      9  C   UNL     1       5.670  -4.003  23.733  0.00  0.00    +0.121 A 
ATOM     10  C   UNL     1       5.598  -2.624  23.927  0.00  0.00    +0.047 A 
ATOM     11  C   UNL     1       6.574  -1.785  23.375  0.00  0.00    +0.027 A 
ATOM     12  C   UNL     1       7.617  -2.309  22.599  0.00  0.00    +0.034 A 
ATOM     13  C   UNL     1       7.638  -3.687  22.362  0.00  0.00    +0.027 A 
ATOM     14  C   UNL     1       6.672  -4.527  22.918  0.00  0.00    +0.047 A 
BRANCH   9  15
ATOM     15  O   UNL     1       4.716  -4.763  24.360  0.00  0.00    -0.489 OA
BRANCH  15  16
ATOM     16  C   UNL     1       4.780  -4.695  25.795  0.00  0.00    +0.261 C 
BRANCH  16  17
ATOM     17  C   UNL     1       5.951  -5.546  26.307  0.00  0.00    +0.166 C 
BRANCH  17  18
ATOM     18  O   UNL     1       5.526  -6.779  26.900  0.00  0.00    -0.387 OA
ATOM     19  H   UNL     1       4.668  -7.008  26.503  0.00  0.00    +0.210 HD
ENDBRANCH  17  18
BRANCH  17  20
ATOM     20  C   UNL     1       6.846  -4.749  27.290  0.00  0.00    +0.118 C 
BRANCH  20  21
ATOM     21  N   UNL     1       8.250  -4.484  26.883  0.00  0.00    -0.306 NA
ATOM     22  C   UNL     1       8.360  -3.096  26.413  0.00  0.00    +0.104 C 
ATOM     23  C   UNL     1       8.694  -5.384  25.815  0.00  0.00    +0.104 C 
ENDBRANCH  20  21
ENDBRANCH  17  20
ENDBRANCH  16  17
ENDBRANCH  15  16
ENDBRANCH   9  15
ENDBRANCH   1  12
BRANCH   7  24
ATOM     24  N   UNL     1       9.931   3.030  22.707  0.00  0.00    -0.298 N 
ATOM     25  H   UNL     1       9.596   3.131  21.753  0.00  0.00    +0.154 HD
BRANCH  24  26
ATOM     26  C   UNL     1       9.668   4.143  23.539  0.00  0.00    +0.052 A 
ATOM     27  C   UNL     1       8.432   4.270  24.194  0.00  0.00    +0.044 A 
ATOM     28  C   UNL     1       8.178   5.323  25.073  0.00  0.00    +0.043 A 
ATOM     29 CL   UNL     1       6.642   5.452  25.826  0.00  0.00    -0.083 Cl
ATOM     30  C   UNL     1       9.172   6.260  25.344  0.00  0.00    +0.021 A 
ATOM     31  C   UNL     1      10.414   6.152  24.719  0.00  0.00    +0.023 A 
ATOM     32  C   UNL     1      10.661   5.101  23.826  0.00  0.00    +0.062 A 
ATOM     33 CL   UNL     1      12.212   5.018  23.066  0.00  0.00    -0.082 Cl
ENDBRANCH  24  26
ENDBRANCH   7  24
TORSDOF 9
ENDMDL
MODEL 5
REMARK VINA RESULT:      -7.2      1.817      2.289
REMARK  Name = 
REMARK  11 active torsions:
REMARK  status: ('A' for Active; 'I' for Inactive)
REMARK    1  A    between atoms: C_2  and  O_3
REMARK    2  A    between atoms: C_2  and  C_4
REMARK    3  A    between atoms: C_2  and  C_28
REMARK    4  A    between atoms: C_4  and  O_5
REMARK    5  A    between atoms: O_5  and  C_6
REMARK    6  A    between atoms: C_9  and  N_10
REMARK    7  A    between atoms: C_13  and  N_14
REMARK    8  A    between atoms: N_14  and  C_15
REMARK    9  A    between atoms: C_28  and  N_29
REMARK   10  A    between atoms: N_29  and  C_30
REMARK   11  A    between atoms: N_29  and  C_31
REMARK                            x       y       z     vdW  Elec       q    Type
REMARK                         _______ _______ _______ _____ _____    ______ ____
ROOT
ATOM      1  N   UNL     1       8.548  -3.113  23.390  0.00  0.00    -0.284 N 
ATOM      2  H   UNL     1       8.846  -2.565  22.587  0.00  0.00    +0.155 HD
ATOM      3  C   UNL     1       8.721  -2.268  24.493  0.00  0.00    +0.221 A 
ATOM      4  N   UNL     1       8.406  -2.677  25.729  0.00  0.00    -0.223 NA
ATOM      5  C   UNL     1       8.591  -1.798  26.727  0.00  0.00    +0.118 A 
ATOM      6  C   UNL     1       9.068  -0.526  26.537  0.00  0.00    +0.063 A 
ATOM      7  C   UNL     1       9.325  -0.171  25.232  0.00  0.00    +0.128 A 
ATOM      8  N   UNL     1       9.187  -1.046  24.217  0.00  0.00    -0.199 NA
ENDROOT
BRANCH   1  12
ATOM      9  C   UNL     1       5.017  -5.321  22.665  0.00  0.00    +0.121 A 
ATOM     10  C   UNL     1       4.957  -3.967  22.992  0.00  0.00    +0.047 A 
ATOM     11  C   UNL     1       6.136  -3.244  23.209  0.00  0.00    +0.027 A 
ATOM     12  C   UNL     1       7.390  -3.855  23.074  0.00  0.00    +0.034 A 
ATOM     13  C   UNL     1       7.433  -5.198  22.684  0.00  0.00    +0.027 A 
ATOM     14  C   UNL     1       6.258  -5.924  22.475  0.00  0.00    +0.047 A 
BRANCH   9  15
ATOM     15  O   UNL     1       3.818  -5.975  22.534  0.00  0.00    -0.489 OA
BRANCH  15  16
ATOM     16  C   UNL     1       3.085  -6.084  23.767  0.00  0.00    +0.261 C 
BRANCH  16  17
ATOM     17  C   UNL     1       3.685  -7.199  24.636  0.00  0.00    +0.166 C 
BRANCH  17  18
ATOM     18  O   UNL     1       2.920  -8.410  24.593  0.00  0.00    -0.387 OA
ATOM     19  H   UNL     1       1.991  -8.168  24.747  0.00  0.00    +0.210 HD
ENDBRANCH  17  18
BRANCH  17  20
ATOM     20  C   UNL     1       3.885  -6.732  26.100  0.00  0.00    +0.118 C 
BRANCH  20  21
ATOM     21  N   UNL     1       5.254  -6.825  26.671  0.00  0.00    -0.306 NA
ATOM     22  C   UNL     1       5.162  -6.842  28.137  0.00  0.00    +0.104 C 
ATOM     23  C   UNL     1       6.100  -5.700  26.262  0.00  0.00    +0.104 C 
ENDBRANCH  20  21
ENDBRANCH  17  20
ENDBRANCH  16  17
ENDBRANCH  15  16
ENDBRANCH   9  15
ENDBRANCH   1  12
BRANCH   7  24
ATOM     24  N   UNL     1       9.649   1.170  24.947  0.00  0.00    -0.298 N 
ATOM     25  H   UNL     1      10.633   1.305  24.734  0.00  0.00    +0.154 HD
BRANCH  24  26
ATOM     26  C   UNL     1       8.787   2.124  24.359  0.00  0.00    +0.052 A 
ATOM     27  C   UNL     1       7.934   2.905  25.156  0.00  0.00    +0.044 A 
ATOM     28  C   UNL     1       7.128   3.900  24.603  0.00  0.00    +0.043 A 
ATOM     29 CL   UNL     1       6.080   4.808  25.615  0.00  0.00    -0.083 Cl
ATOM     30  C   UNL     1       7.180   4.160  23.236  0.00  0.00    +0.021 A 
ATOM     31  C   UNL     1       8.028   3.410  22.421  0.00  0.00    +0.023 A 
ATOM     32  C   UNL     1       8.826   2.402  22.978  0.00  0.00    +0.062 A 
ATOM     33 CL   UNL     1       9.850   1.490  21.924  0.00  0.00    -0.082 Cl
ENDBRANCH  24  26
ENDBRANCH   7  24
TORSDOF 9
ENDMDL
MODEL 6
REMARK VINA RESULT:      -7.1      1.671      2.807
REMARK  Name = 
REMARK  11 active torsions:
REMARK  status: ('A' for Active; 'I' for Inactive)
REMARK    1  A    between atoms: C_2  and  O_3
REMARK    2  A    between atoms: C_2  and  C_4
REMARK    3  A    between atoms: C_2  and  C_28
REMARK    4  A    between atoms: C_4  and  O_5
REMARK    5  A    between atoms: O_5  and  C_6
REMARK    6  A    between atoms: C_9  and  N_10
REMARK    7  A    between atoms: C_13  and  N_14
REMARK    8  A    between atoms: N_14  and  C_15
REMARK    9  A    between atoms: C_28  and  N_29
REMARK   10  A    between atoms: N_29  and  C_30
REMARK   11  A    between atoms: N_29  and  C_31
REMARK                            x       y       z     vdW  Elec       q    Type
REMARK                         _______ _______ _______ _____ _____    ______ ____
ROOT
ATOM      1  N   UNL     1       8.162  -2.807  21.839  0.00  0.00    -0.284 N 
ATOM      2  H   UNL     1       7.827  -2.375  20.982  0.00  0.00    +0.155 HD
ATOM      3  C   UNL     1       8.917  -1.813  22.475  0.00  0.00    +0.221 A 
ATOM      4  N   UNL     1       9.502  -2.046  23.658  0.00  0.00    -0.223 NA
ATOM      5  C   UNL     1      10.195  -1.033  24.204  0.00  0.00    +0.118 A 
ATOM      6  C   UNL     1      10.317   0.203  23.621  0.00  0.00    +0.063 A 
ATOM      7  C   UNL     1       9.648   0.371  22.430  0.00  0.00    +0.128 A 
ATOM      8  N   UNL     1       8.980  -0.639  21.840  0.00  0.00    -0.199 NA
ENDROOT
BRANCH   1  12
ATOM      9  C   UNL     1       5.188  -5.088  23.793  0.00  0.00    +0.121 A 
ATOM     10  C   UNL     1       5.117  -3.695  23.766  0.00  0.00    +0.047 A 
ATOM     11  C   UNL     1       6.098  -2.954  23.097  0.00  0.00    +0.027 A 
ATOM     12  C   UNL     1       7.147  -3.594  22.422  0.00  0.00    +0.034 A 
ATOM     13  C   UNL     1       7.169  -4.992  22.406  0.00  0.00    +0.027 A 
ATOM     14  C   UNL     1       6.196  -5.733  23.080  0.00  0.00    +0.047 A 
BRANCH   9  15
ATOM     15  O   UNL     1       4.227  -5.738  24.524  0.00  0.00    -0.489 OA
BRANCH  15  16
ATOM     16  C   UNL     1       4.249  -5.408  25.924  0.00  0.00    +0.261 C 
BRANCH  16  17
ATOM     17  C   UNL     1       5.497  -6.012  26.585  0.00  0.00    +0.166 C 
BRANCH  17  18
ATOM     18  O   UNL     1       5.221  -7.230  27.286  0.00  0.00    -0.387 OA
ATOM     19  H   UNL     1       4.276  -7.425  27.161  0.00  0.00    +0.210 HD
ENDBRANCH  17  18
BRANCH  17  20
ATOM     20  C   UNL     1       6.195  -4.992  27.519  0.00  0.00    +0.118 C 
BRANCH  20  21
ATOM     21  N   UNL     1       7.547  -4.514  27.129  0.00  0.00    -0.306 NA
ATOM     22  C   UNL     1       7.437  -3.155  26.582  0.00  0.00    +0.104 C 
ATOM     23  C   UNL     1       8.171  -5.381  26.125  0.00  0.00    +0.104 C 
ENDBRANCH  20  21
ENDBRANCH  17  20
ENDBRANCH  16  17
ENDBRANCH  15  16
ENDBRANCH   9  15
ENDBRANCH   1  12
BRANCH   7  24
ATOM     24  N   UNL     1       9.586   1.661  21.866  0.00  0.00    -0.298 N 
ATOM     25  H   UNL     1       9.647   1.655  20.852  0.00  0.00    +0.154 HD
BRANCH  24  26
ATOM     26  C   UNL     1       8.890   2.768  22.404  0.00  0.00    +0.052 A 
ATOM     27  C   UNL     1       7.498   2.881  22.250  0.00  0.00    +0.044 A 
ATOM     28  C   UNL     1       6.784   3.927  22.832  0.00  0.00    +0.043 A 
ATOM     29 CL   UNL     1       5.088   4.039  22.591  0.00  0.00    -0.083 Cl
ATOM     30  C   UNL     1       7.443   4.874  23.612  0.00  0.00    +0.021 A 
ATOM     31  C   UNL     1       8.822   4.779  23.795  0.00  0.00    +0.023 A 
ATOM     32  C   UNL     1       9.540   3.735  23.197  0.00  0.00    +0.062 A 
ATOM     33 CL   UNL     1      11.251   3.669  23.440  0.00  0.00    -0.082 Cl
ENDBRANCH  24  26
ENDBRANCH   7  24
TORSDOF 9
ENDMDL
MODEL 7
REMARK VINA RESULT:      -7.0      1.808      2.378
REMARK  Name = 
REMARK  11 active torsions:
REMARK  status: ('A' for Active; 'I' for Inactive)
REMARK    1  A    between atoms: C_2  and  O_3
REMARK    2  A    between atoms: C_2  and  C_4
REMARK    3  A    between atoms: C_2  and  C_28
REMARK    4  A    between atoms: C_4  and  O_5
REMARK    5  A    between atoms: O_5  and  C_6
REMARK    6  A    between atoms: C_9  and  N_10
REMARK    7  A    between atoms: C_13  and  N_14
REMARK    8  A    between atoms: N_14  and  C_15
REMARK    9  A    between atoms: C_28  and  N_29
REMARK   10  A    between atoms: N_29  and  C_30
REMARK   11  A    between atoms: N_29  and  C_31
REMARK                            x       y       z     vdW  Elec       q    Type
REMARK                         _______ _______ _______ _____ _____    ______ ____
ROOT
ATOM      1  N   UNL     1       9.555  -1.099  24.408  0.00  0.00    -0.284 N 
ATOM      2  H   UNL     1      10.169  -0.747  23.680  0.00  0.00    +0.155 HD
ATOM      3  C   UNL     1       8.866   0.025  24.879  0.00  0.00    +0.221 A 
ATOM      4  N   UNL     1       7.949  -0.086  25.851  0.00  0.00    -0.223 NA
ATOM      5  C   UNL     1       7.326   1.040  26.231  0.00  0.00    +0.118 A 
ATOM      6  C   UNL     1       7.574   2.269  25.674  0.00  0.00    +0.063 A 
ATOM      7  C   UNL     1       8.497   2.288  24.653  0.00  0.00    +0.128 A 
ATOM      8  N   UNL     1       9.166   1.181  24.278  0.00  0.00    -0.199 NA
ENDROOT
BRANCH   1  12
ATOM      9  C   UNL     1       7.646  -4.700  23.286  0.00  0.00    +0.121 A 
ATOM     10  C   UNL     1       7.499  -3.544  22.519  0.00  0.00    +0.047 A 
ATOM     11  C   UNL     1       8.154  -2.365  22.892  0.00  0.00    +0.027 A 
ATOM     12  C   UNL     1       8.987  -2.330  24.018  0.00  0.00    +0.034 A 
ATOM     13  C   UNL     1       9.173  -3.513  24.740  0.00  0.00    +0.027 A 
ATOM     14  C   UNL     1       8.514  -4.689  24.376  0.00  0.00    +0.047 A 
BRANCH   9  15
ATOM     15  O   UNL     1       6.920  -5.795  22.893  0.00  0.00    -0.489 OA
BRANCH  15  16
ATOM     16  C   UNL     1       5.512  -5.678  23.163  0.00  0.00    +0.261 C 
BRANCH  16  17
ATOM     17  C   UNL     1       5.107  -6.665  24.268  0.00  0.00    +0.166 C 
BRANCH  17  18
ATOM     18  O   UNL     1       3.964  -7.454  23.917  0.00  0.00    -0.387 OA
ATOM     19  H   UNL     1       3.281  -7.283  24.588  0.00  0.00    +0.210 HD
ENDBRANCH  17  18
BRANCH  17  20
ATOM     20  C   UNL     1       4.876  -5.942  25.619  0.00  0.00    +0.118 C 
BRANCH  20  21
ATOM     21  N   UNL     1       5.765  -6.303  26.754  0.00  0.00    -0.306 NA
ATOM     22  C   UNL     1       4.964  -6.938  27.809  0.00  0.00    +0.104 C 
ATOM     23  C   UNL     1       6.447  -5.133  27.315  0.00  0.00    +0.104 C 
ENDBRANCH  20  21
ENDBRANCH  17  20
ENDBRANCH  16  17
ENDBRANCH  15  16
ENDBRANCH   9  15
ENDBRANCH   1  12
BRANCH   7  24
ATOM     24  N   UNL     1       8.671   3.480  23.922  0.00  0.00    -0.298 N 
ATOM     25  H   UNL     1       7.802   3.847  23.546  0.00  0.00    +0.154 HD
BRANCH  24  26
ATOM     26  C   UNL     1       9.667   4.457  24.153  0.00  0.00    +0.052 A 
ATOM     27  C   UNL     1      10.935   4.340  23.560  0.00  0.00    +0.044 A 
ATOM     28  C   UNL     1      11.907   5.327  23.719  0.00  0.00    +0.043 A 
ATOM     29 CL   UNL     1      13.452   5.125  22.999  0.00  0.00    -0.083 Cl
ATOM     30  C   UNL     1      11.622   6.476  24.453  0.00  0.00    +0.021 A 
ATOM     31  C   UNL     1      10.367   6.626  25.042  0.00  0.00    +0.023 A 
ATOM     32  C   UNL     1       9.397   5.626  24.892  0.00  0.00    +0.062 A 
ATOM     33 CL   UNL     1       7.861   5.852  25.654  0.00  0.00    -0.082 Cl
ENDBRANCH  24  26
ENDBRANCH   7  24
TORSDOF 9
ENDMDL
MODEL 8
REMARK VINA RESULT:      -6.9      4.485      9.569
REMARK  Name = 
REMARK  11 active torsions:
REMARK  status: ('A' for Active; 'I' for Inactive)
REMARK    1  A    between atoms: C_2  and  O_3
REMARK    2  A    between atoms: C_2  and  C_4
REMARK    3  A    between atoms: C_2  and  C_28
REMARK    4  A    between atoms: C_4  and  O_5
REMARK    5  A    between atoms: O_5  and  C_6
REMARK    6  A    between atoms: C_9  and  N_10
REMARK    7  A    between atoms: C_13  and  N_14
REMARK    8  A    between atoms: N_14  and  C_15
REMARK    9  A    between atoms: C_28  and  N_29
REMARK   10  A    between atoms: N_29  and  C_30
REMARK   11  A    between atoms: N_29  and  C_31
REMARK                            x       y       z     vdW  Elec       q    Type
REMARK                         _______ _______ _______ _____ _____    ______ ____
ROOT
ATOM      1  N   UNL     1       9.349  -1.778  22.580  0.00  0.00    -0.284 N 
ATOM      2  H   UNL     1      10.038  -2.348  23.064  0.00  0.00    +0.155 HD
ATOM      3  C   UNL     1       8.151  -2.496  22.676  0.00  0.00    +0.221 A 
ATOM      4  N   UNL     1       7.017  -2.016  22.147  0.00  0.00    -0.223 NA
ATOM      5  C   UNL     1       5.911  -2.763  22.297  0.00  0.00    +0.118 A 
ATOM      6  C   UNL     1       5.891  -3.962  22.963  0.00  0.00    +0.063 A 
ATOM      7  C   UNL     1       7.088  -4.361  23.514  0.00  0.00    +0.128 A 
ATOM      8  N   UNL     1       8.220  -3.652  23.344  0.00  0.00    -0.199 NA
ENDROOT
BRANCH   1  12
ATOM      9  C   UNL     1      10.132   2.289  23.424  0.00  0.00    +0.121 A 
ATOM     10  C   UNL     1      10.091   1.828  22.108  0.00  0.00    +0.047 A 
ATOM     11  C   UNL     1       9.810   0.482  21.843  0.00  0.00    +0.027 A 
ATOM     12  C   UNL     1       9.538  -0.414  22.886  0.00  0.00    +0.034 A 
ATOM     13  C   UNL     1       9.521   0.078  24.195  0.00  0.00    +0.027 A 
ATOM     14  C   UNL     1       9.809   1.418  24.462  0.00  0.00    +0.047 A 
BRANCH   9  15
ATOM     15  O   UNL     1      10.478   3.604  23.604  0.00  0.00    -0.489 OA
BRANCH  15  16
ATOM     16  C   UNL     1       9.400   4.419  24.096  0.00  0.00    +0.261 C 
BRANCH  16  17
ATOM     17  C   UNL     1       8.365   4.646  22.984  0.00  0.00    +0.166 C 
BRANCH  17  18
ATOM     18  O   UNL     1       8.358   5.993  22.498  0.00  0.00    -0.387 OA
ATOM     19  H   UNL     1       8.989   6.035  21.760  0.00  0.00    +0.210 HD
ENDBRANCH  17  18
BRANCH  17  20
ATOM     20  C   UNL     1       6.945   4.221  23.436  0.00  0.00    +0.118 C 
BRANCH  20  21
ATOM     21  N   UNL     1       6.152   3.373  22.508  0.00  0.00    -0.306 NA
ATOM     22  C   UNL     1       4.722   3.614  22.740  0.00  0.00    +0.104 C 
ATOM     23  C   UNL     1       6.428   1.945  22.694  0.00  0.00    +0.104 C 
ENDBRANCH  20  21
ENDBRANCH  17  20
ENDBRANCH  16  17
ENDBRANCH  15  16
ENDBRANCH   9  15
ENDBRANCH   1  12
BRANCH   7  24
ATOM     24  N   UNL     1       7.102  -5.491  24.355  0.00  0.00    -0.298 N 
ATOM     25  H   UNL     1       7.943  -6.051  24.255  0.00  0.00    +0.154 HD
BRANCH  24  26
ATOM     26  C   UNL     1       6.481  -5.588  25.623  0.00  0.00    +0.052 A 
ATOM     27  C   UNL     1       5.180  -6.103  25.744  0.00  0.00    +0.044 A 
ATOM     28  C   UNL     1       4.577  -6.273  26.990  0.00  0.00    +0.043 A 
ATOM     29 CL   UNL     1       2.974  -6.877  27.086  0.00  0.00    -0.083 Cl
ATOM     30  C   UNL     1       5.277  -5.959  28.152  0.00  0.00    +0.021 A 
ATOM     31  C   UNL     1       6.576  -5.459  28.064  0.00  0.00    +0.023 A 
ATOM     32  C   UNL     1       7.174  -5.276  26.810  0.00  0.00    +0.062 A 
ATOM     33 CL   UNL     1       8.781  -4.640  26.751  0.00  0.00    -0.082 Cl
ENDBRANCH  24  26
ENDBRANCH   7  24
TORSDOF 9
ENDMDL
MODEL 9
REMARK VINA RESULT:      -6.8      2.259      3.457
REMARK  Name = 
REMARK  11 active torsions:
REMARK  status: ('A' for Active; 'I' for Inactive)
REMARK    1  A    between atoms: C_2  and  O_3
REMARK    2  A    between atoms: C_2  and  C_4
REMARK    3  A    between atoms: C_2  and  C_28
REMARK    4  A    between atoms: C_4  and  O_5
REMARK    5  A    between atoms: O_5  and  C_6
REMARK    6  A    between atoms: C_9  and  N_10
REMARK    7  A    between atoms: C_13  and  N_14
REMARK    8  A    between atoms: N_14  and  C_15
REMARK    9  A    between atoms: C_28  and  N_29
REMARK   10  A    between atoms: N_29  and  C_30
REMARK   11  A    between atoms: N_29  and  C_31
REMARK                            x       y       z     vdW  Elec       q    Type
REMARK                         _______ _______ _______ _____ _____    ______ ____
ROOT
ATOM      1  N   UNL     1       9.199  -1.929  22.861  0.00  0.00    -0.284 N 
ATOM      2  H   UNL     1       8.593  -1.798  22.056  0.00  0.00    +0.155 HD
ATOM      3  C   UNL     1       9.668  -0.648  23.176  0.00  0.00    +0.221 A 
ATOM      4  N   UNL     1      10.494  -0.452  24.213  0.00  0.00    -0.223 NA
ATOM      5  C   UNL     1      10.884   0.810  24.451  0.00  0.00    +0.118 A 
ATOM      6  C   UNL     1      10.474   1.884  23.703  0.00  0.00    +0.063 A 
ATOM      7  C   UNL     1       9.592   1.603  22.684  0.00  0.00    +0.128 A 
ATOM      8  N   UNL     1       9.216   0.341  22.398  0.00  0.00    -0.199 NA
ENDROOT
BRANCH   1  12
ATOM      9  C   UNL     1       7.586  -4.882  25.419  0.00  0.00    +0.121 A 
ATOM     10  C   UNL     1       8.963  -4.670  25.353  0.00  0.00    +0.047 A 
ATOM     11  C   UNL     1       9.481  -3.674  24.517  0.00  0.00    +0.027 A 
ATOM     12  C   UNL     1       8.630  -2.858  23.758  0.00  0.00    +0.034 A 
ATOM     13  C   UNL     1       7.250  -3.043  23.884  0.00  0.00    +0.027 A 
ATOM     14  C   UNL     1       6.731  -4.041  24.711  0.00  0.00    +0.047 A 
BRANCH   9  15
ATOM     15  O   UNL     1       7.161  -5.919  26.211  0.00  0.00    -0.489 OA
BRANCH  15  16
ATOM     16  C   UNL     1       6.394  -5.494  27.351  0.00  0.00    +0.261 C 
BRANCH  16  17
ATOM     17  C   UNL     1       5.177  -6.412  27.535  0.00  0.00    +0.166 C 
BRANCH  17  18
ATOM     18  O   UNL     1       5.443  -7.520  28.404  0.00  0.00    -0.387 OA
ATOM     19  H   UNL     1       5.899  -8.197  27.875  0.00  0.00    +0.210 HD
ENDBRANCH  17  18
BRANCH  17  20
ATOM     20  C   UNL     1       4.628  -6.907  26.173  0.00  0.00    +0.118 C 
BRANCH  20  21
ATOM     21  N   UNL     1       3.349  -6.322  25.693  0.00  0.00    -0.306 NA
ATOM     22  C   UNL     1       2.611  -5.773  26.839  0.00  0.00    +0.104 C 
ATOM     23  C   UNL     1       2.507  -7.314  25.017  0.00  0.00    +0.104 C 
ENDBRANCH  20  21
ENDBRANCH  17  20
ENDBRANCH  16  17
ENDBRANCH  15  16
ENDBRANCH   9  15
ENDBRANCH   1  12
BRANCH   7  24
ATOM     24  N   UNL     1       8.997   2.674  21.989  0.00  0.00    -0.298 N 
ATOM     25  H   UNL     1       9.055   2.575  20.980  0.00  0.00    +0.154 HD
BRANCH  24  26
ATOM     26  C   UNL     1       7.901   3.447  22.439  0.00  0.00    +0.052 A 
ATOM     27  C   UNL     1       6.583   3.037  22.180  0.00  0.00    +0.044 A 
ATOM     28  C   UNL     1       5.489   3.747  22.674  0.00  0.00    +0.043 A 
ATOM     29 CL   UNL     1       3.897   3.224  22.306  0.00  0.00    -0.083 Cl
ATOM     30  C   UNL     1       5.689   4.873  23.469  0.00  0.00    +0.021 A 
ATOM     31  C   UNL     1       6.988   5.296  23.754  0.00  0.00    +0.023 A 
ATOM     32  C   UNL     1       8.084   4.589  23.245  0.00  0.00    +0.062 A 
ATOM     33 CL   UNL     1       9.674   5.161  23.615  0.00  0.00    -0.082 Cl
ENDBRANCH  24  26
ENDBRANCH   7  24
TORSDOF 9
ENDMDL
