MODEL 1
REMARK VINA RESULT:      -3.2      0.000      0.000
REMARK  Name = 
REMARK  3 active torsions:
REMARK  status: ('A' for Active; 'I' for Inactive)
REMARK    1  A    between atoms: N_1  and  CA_2
REMARK    2  A    between atoms: CA_2  and  C_3
REMARK    3  A    between atoms: C_3  and  O_4
REMARK                            x       y       z     vdW  Elec       q    Type
REMARK                         _______ _______ _______ _____ _____    ______ ____
ROOT
ATOM      1  CA  GLY A   1      12.779   5.236  22.729  0.00  0.00    +0.199 C 
ENDROOT
BRANCH   1   2
ATOM      2  N   GLY A   1      14.213   5.114  23.107  0.00  0.00    -0.321 NA
ATOM      3  H1  GLY A   1      14.281   4.408  23.849  0.00  0.00    +0.119 HD
ATOM      4  H2  GLY A   1      14.704   4.687  22.316  0.00  0.00    +0.119 HD
ENDBRANCH   1   2
BRANCH   1   5
ATOM      5  C   GLY A   1      12.009   5.913  23.860  0.00  0.00    +0.319 C 
ATOM      6  OXT GLY A   1      10.797   6.041  23.903  0.00  0.00    -0.250 OA
BRANCH   5   7
ATOM      7  O   GLY A   1      12.851   6.388  24.815  0.00  0.00    -0.480 OA
ATOM      8  H   GLY A   1      13.647   5.798  24.783  0.00  0.00    +0.295 HD
ENDBRANCH   5   7
ENDBRANCH   1   5
TORSDOF 3
ENDMDL
MODEL 2
REMARK VINA RESULT:      -3.1     11.639     11.805
REMARK  Name = 
REMARK  3 active torsions:
REMARK  status: ('A' for Active; 'I' for Inactive)
REMARK    1  A    between atoms: N_1  and  CA_2
REMARK    2  A    between atoms: CA_2  and  C_3
REMARK    3  A    between atoms: C_3  and  O_4
REMARK                            x       y       z     vdW  Elec       q    Type
REMARK                         _______ _______ _______ _____ _____    ______ ____
ROOT
ATOM      1  CA  GLY A   1       8.608  -4.481  26.578  0.00  0.00    +0.199 C 
ENDROOT
BRANCH   1   2
ATOM      2  N   GLY A   1       8.070  -5.697  27.245  0.00  0.00    -0.321 NA
ATOM      3  H1  GLY A   1       7.282  -6.039  26.684  0.00  0.00    +0.119 HD
ATOM      4  H2  GLY A   1       8.776  -6.434  27.154  0.00  0.00    +0.119 HD
ENDBRANCH   1   2
BRANCH   1   5
ATOM      5  C   GLY A   1       9.550  -4.892  25.449  0.00  0.00    +0.319 C 
ATOM      6  OXT GLY A   1       9.941  -4.155  24.560  0.00  0.00    -0.250 OA
BRANCH   5   7
ATOM      7  O   GLY A   1       9.884  -6.206  25.539  0.00  0.00    -0.480 OA
ATOM      8  H   GLY A   1      10.213  -6.458  24.639  0.00  0.00    +0.295 HD
ENDBRANCH   5   7
ENDBRANCH   1   5
TORSDOF 3
ENDMDL
MODEL 3
REMARK VINA RESULT:      -3.0     12.016     12.181
REMARK  Name = 
REMARK  3 active torsions:
REMARK  status: ('A' for Active; 'I' for Inactive)
REMARK    1  A    between atoms: N_1  and  CA_2
REMARK    2  A    between atoms: CA_2  and  C_3
REMARK    3  A    between atoms: C_3  and  O_4
REMARK                            x       y       z     vdW  Elec       q    Type
REMARK                         _______ _______ _______ _____ _____    ______ ____
ROOT
ATOM      1  CA  GLY A   1       9.264  -4.701  26.143  0.00  0.00    +0.199 C 
ENDROOT
BRANCH   1   2
ATOM      2  N   GLY A   1      10.153  -5.634  25.399  0.00  0.00    -0.321 NA
ATOM      3  H1  GLY A   1      10.586  -6.265  26.082  0.00  0.00    +0.119 HD
ATOM      4  H2  GLY A   1       9.553  -6.248  24.841  0.00  0.00    +0.119 HD
ENDBRANCH   1   2
BRANCH   1   5
ATOM      5  C   GLY A   1       7.902  -5.356  26.360  0.00  0.00    +0.319 C 
ATOM      6  OXT GLY A   1       6.986  -5.349  25.555  0.00  0.00    -0.250 OA
BRANCH   5   7
ATOM      7  O   GLY A   1       7.823  -5.935  27.586  0.00  0.00    -0.480 OA
ATOM      8  H   GLY A   1       7.195  -6.694  27.480  0.00  0.00    +0.295 HD
ENDBRANCH   5   7
ENDBRANCH   1   5
TORSDOF 3
ENDMDL
MODEL 4
REMARK VINA RESULT:      -2.9      6.028      6.367
REMARK  Name = 
REMARK  3 active torsions:
REMARK  status: ('A' for Active; 'I' for Inactive)
REMARK    1  A    between atoms: N_1  and  CA_2
REMARK    2  A    between atoms: CA_2  and  C_3
REMARK    3  A    between atoms: C_3  and  O_4
REMARK                            x       y       z     vdW  Elec       q    Type
REMARK                         _______ _______ _______ _____ _____    ______ ____
ROOT
ATOM      1  CA  GLY A   1       9.356  -0.214  21.380  0.00  0.00    +0.199 C 
ENDROOT
BRANCH   1   2
ATOM      2  N   GLY A   1      10.146  -1.457  21.595  0.00  0.00    -0.321 NA
ATOM      3  H1  GLY A   1      10.750  -1.307  22.410  0.00  0.00    +0.119 HD
ATOM      4  H2  GLY A   1       9.494  -2.185  21.902  0.00  0.00    +0.119 HD
ENDBRANCH   1   2
BRANCH   1   5
ATOM      5  C   GLY A   1       9.982   0.931  22.173  0.00  0.00    +0.319 C 
ATOM      6  OXT GLY A   1      10.453   0.832  23.293  0.00  0.00    -0.250 OA
BRANCH   5   7
ATOM      7  O   GLY A   1       9.928   2.098  21.479  0.00  0.00    -0.480 OA
ATOM      8  H   GLY A   1      10.444   1.936  20.648  0.00  0.00    +0.295 HD
ENDBRANCH   5   7
ENDBRANCH   1   5
TORSDOF 3
ENDMDL
MODEL 5
REMARK VINA RESULT:      -2.9      6.491      6.861
REMARK  Name = 
REMARK  3 active torsions:
REMARK  status: ('A' for Active; 'I' for Inactive)
REMARK    1  A    between atoms: N_1  and  CA_2
REMARK    2  A    between atoms: CA_2  and  C_3
REMARK    3  A    between atoms: C_3  and  O_4
REMARK                            x       y       z     vdW  Elec       q    Type
REMARK                         _______ _______ _______ _____ _____    ______ ____
ROOT
ATOM      1  CA  GLY A   1       9.171   0.667  21.512  0.00  0.00    +0.199 C 
ENDROOT
BRANCH   1   2
ATOM      2  N   GLY A   1       9.890   1.969  21.570  0.00  0.00    -0.321 NA
ATOM      3  H1  GLY A   1      10.087   2.173  22.556  0.00  0.00    +0.119 HD
ATOM      4  H2  GLY A   1      10.816   1.826  21.158  0.00  0.00    +0.119 HD
ENDBRANCH   1   2
BRANCH   1   5
ATOM      5  C   GLY A   1      10.014  -0.412  22.188  0.00  0.00    +0.319 C 
ATOM      6  OXT GLY A   1      10.550  -0.302  23.278  0.00  0.00    -0.250 OA
BRANCH   5   7
ATOM      7  O   GLY A   1      10.119  -1.518  21.405  0.00  0.00    -0.480 OA
ATOM      8  H   GLY A   1      10.790  -1.289  20.713  0.00  0.00    +0.295 HD
ENDBRANCH   5   7
ENDBRANCH   1   5
TORSDOF 3
ENDMDL
MODEL 6
REMARK VINA RESULT:      -2.9     13.020     13.465
REMARK  Name = 
REMARK  3 active torsions:
REMARK  status: ('A' for Active; 'I' for Inactive)
REMARK    1  A    between atoms: N_1  and  CA_2
REMARK    2  A    between atoms: CA_2  and  C_3
REMARK    3  A    between atoms: C_3  and  O_4
REMARK                            x       y       z     vdW  Elec       q    Type
REMARK                         _______ _______ _______ _____ _____    ______ ____
ROOT
ATOM      1  CA  GLY A   1       2.909   6.380  14.177  0.00  0.00    +0.199 C 
ENDROOT
BRANCH   1   2
ATOM      2  N   GLY A   1       3.947   6.687  15.199  0.00  0.00    -0.321 NA
ATOM      3  H1  GLY A   1       4.256   7.654  15.049  0.00  0.00    +0.119 HD
ATOM      4  H2  GLY A   1       3.480   6.716  16.110  0.00  0.00    +0.119 HD
ENDBRANCH   1   2
BRANCH   1   5
ATOM      5  C   GLY A   1       2.398   4.956  14.380  0.00  0.00    +0.319 C 
ATOM      6  OXT GLY A   1       1.357   4.514  13.924  0.00  0.00    -0.250 OA
BRANCH   5   7
ATOM      7  O   GLY A   1       3.243   4.236  15.164  0.00  0.00    -0.480 OA
ATOM      8  H   GLY A   1       3.451   3.417  14.646  0.00  0.00    +0.295 HD
ENDBRANCH   5   7
ENDBRANCH   1   5
TORSDOF 3
ENDMDL
MODEL 7
REMARK VINA RESULT:      -2.7     14.167     14.389
REMARK  Name = 
REMARK  3 active torsions:
REMARK  status: ('A' for Active; 'I' for Inactive)
REMARK    1  A    between atoms: N_1  and  CA_2
REMARK    2  A    between atoms: CA_2  and  C_3
REMARK    3  A    between atoms: C_3  and  O_4
REMARK                            x       y       z     vdW  Elec       q    Type
REMARK                         _______ _______ _______ _____ _____    ______ ____
ROOT
ATOM      1  CA  GLY A   1       6.482  -5.541  27.708  0.00  0.00    +0.199 C 
ENDROOT
BRANCH   1   2
ATOM      2  N   GLY A   1       7.912  -5.753  27.354  0.00  0.00    -0.321 NA
ATOM      3  H1  GLY A   1       7.945  -6.129  26.399  0.00  0.00    +0.119 HD
ATOM      4  H2  GLY A   1       8.347  -4.830  27.270  0.00  0.00    +0.119 HD
ENDBRANCH   1   2
BRANCH   1   5
ATOM      5  C   GLY A   1       6.125  -6.395  28.922  0.00  0.00    +0.319 C 
ATOM      6  OXT GLY A   1       6.343  -6.089  30.082  0.00  0.00    -0.250 OA
BRANCH   5   7
ATOM      7  O   GLY A   1       5.548  -7.567  28.547  0.00  0.00    -0.480 OA
ATOM      8  H   GLY A   1       5.149  -7.393  27.658  0.00  0.00    +0.295 HD
ENDBRANCH   5   7
ENDBRANCH   1   5
TORSDOF 3
ENDMDL
MODEL 8
REMARK VINA RESULT:      -2.6      5.209      5.561
REMARK  Name = 
REMARK  3 active torsions:
REMARK  status: ('A' for Active; 'I' for Inactive)
REMARK    1  A    between atoms: N_1  and  CA_2
REMARK    2  A    between atoms: CA_2  and  C_3
REMARK    3  A    between atoms: C_3  and  O_4
REMARK                            x       y       z     vdW  Elec       q    Type
REMARK                         _______ _______ _______ _____ _____    ______ ____
ROOT
ATOM      1  CA  GLY A   1      10.310   1.892  23.933  0.00  0.00    +0.199 C 
ENDROOT
BRANCH   1   2
ATOM      2  N   GLY A   1      10.549   0.818  24.935  0.00  0.00    -0.321 NA
ATOM      3  H1  GLY A   1      10.057  -0.023  24.615  0.00  0.00    +0.119 HD
ATOM      4  H2  GLY A   1      11.539   0.562  24.880  0.00  0.00    +0.119 HD
ENDBRANCH   1   2
BRANCH   1   5
ATOM      5  C   GLY A   1      10.146   1.270  22.548  0.00  0.00    +0.319 C 
ATOM      6  OXT GLY A   1      10.079   0.074  22.322  0.00  0.00    -0.250 OA
BRANCH   5   7
ATOM      7  O   GLY A   1      10.111   2.223  21.581  0.00  0.00    -0.480 OA
ATOM      8  H   GLY A   1      10.086   1.728  20.723  0.00  0.00    +0.295 HD
ENDBRANCH   5   7
ENDBRANCH   1   5
TORSDOF 3
ENDMDL
MODEL 9
REMARK VINA RESULT:      -2.6      4.826      5.282
REMARK  Name = 
REMARK  3 active torsions:
REMARK  status: ('A' for Active; 'I' for Inactive)
REMARK    1  A    between atoms: N_1  and  CA_2
REMARK    2  A    between atoms: CA_2  and  C_3
REMARK    3  A    between atoms: C_3  and  O_4
REMARK                            x       y       z     vdW  Elec       q    Type
REMARK                         _______ _______ _______ _____ _____    ______ ____
ROOT
ATOM      1  CA  GLY A   1      10.437   2.065  23.423  0.00  0.00    +0.199 C 
ENDROOT
BRANCH   1   2
ATOM      2  N   GLY A   1      10.865   3.441  23.052  0.00  0.00    -0.321 NA
ATOM      3  H1  GLY A   1      10.020   4.015  22.954  0.00  0.00    +0.119 HD
ATOM      4  H2  GLY A   1      11.344   3.842  23.863  0.00  0.00    +0.119 HD
ENDBRANCH   1   2
BRANCH   1   5
ATOM      5  C   GLY A   1       9.933   1.334  22.181  0.00  0.00    +0.319 C 
ATOM      6  OXT GLY A   1      10.074   0.142  21.964  0.00  0.00    -0.250 OA
BRANCH   5   7
ATOM      7  O   GLY A   1       9.323   2.189  21.319  0.00  0.00    -0.480 OA
ATOM      8  H   GLY A   1      10.056   2.683  20.873  0.00  0.00    +0.295 HD
ENDBRANCH   5   7
ENDBRANCH   1   5
TORSDOF 3
ENDMDL
