MODEL 1
REMARK VINA RESULT:      -4.7      0.000      0.000
REMARK  Name = 
REMARK  10 active torsions:
REMARK  status: ('A' for Active; 'I' for Inactive)
REMARK    1  A    between atoms: C_1  and  C_2
REMARK    2  A    between atoms: C_2  and  N_4
REMARK    3  A    between atoms: C_2  and  C_5
REMARK    4  A    between atoms: C_5  and  C_7
REMARK    5  A    between atoms: C_7  and  C_8
REMARK    6  A    between atoms: C_8  and  C_9
REMARK    7  A    between atoms: C_9  and  C_10
REMARK    8  A    between atoms: C_10  and  C_11
REMARK    9  A    between atoms: C_11  and  C_12
REMARK   10  A    between atoms: C_12  and  O_13
REMARK                            x       y       z     vdW  Elec       q    Type
REMARK                         _______ _______ _______ _____ _____    ______ ____
ROOT
ATOM      1  C   UNL     1       8.470  -3.122  23.554  0.00  0.00    +0.076 C 
ENDROOT
BRANCH   1   2
ATOM      2  C   UNL     1       8.268  -4.480  24.210  0.00  0.00    +0.150 C 
ATOM      3  O   UNL     1       7.548  -5.349  23.708  0.00  0.00    -0.296 OA
BRANCH   2   5
ATOM      4  C   UNL     1       8.021  -5.141  26.633  0.00  0.00    +0.032 C 
ATOM      5  C   UNL     1       8.998  -4.740  25.537  0.00  0.00    +0.115 C 
BRANCH   5   6
ATOM      6  N   UNL     1      10.021  -5.780  25.354  0.00  0.00    -0.322 NA
ATOM      7  H   UNL     1      10.287  -6.148  26.269  0.00  0.00    +0.119 HD
ATOM      8  H   UNL     1       9.617  -6.566  24.846  0.00  0.00    +0.119 HD
ENDBRANCH   5   6
ENDBRANCH   2   5
ENDBRANCH   1   2
BRANCH   1   9
ATOM      9  C   UNL     1       9.796  -2.461  23.927  0.00  0.00    +0.008 C 
BRANCH   9  10
ATOM     10  C   UNL     1       9.674  -0.941  24.099  0.00  0.00    +0.001 C 
BRANCH  10  11
ATOM     11  C   UNL     1      10.459  -0.162  23.040  0.00  0.00    +0.011 C 
BRANCH  11  12
ATOM     12  C   UNL     1       9.675   0.004  21.741  0.00  0.00    +0.120 C 
BRANCH  12  13
ATOM     13  C   UNL     1       9.193   1.429  21.573  0.00  0.00    +0.305 C 
ATOM     14  O   UNL     1       8.032   1.773  21.438  0.00  0.00    -0.251 OA
BRANCH  13  15
ATOM     15  O   UNL     1      10.214   2.320  21.588  0.00  0.00    -0.481 OA
ATOM     16  H   UNL     1      10.274   2.858  20.779  0.00  0.00    +0.295 HD
ENDBRANCH  13  15
ENDBRANCH  12  13
ENDBRANCH  11  12
ENDBRANCH  10  11
ENDBRANCH   9  10
ENDBRANCH   1   9
TORSDOF 9
ENDMDL
MODEL 2
REMARK VINA RESULT:      -4.7      1.726      1.930
REMARK  Name = 
REMARK  10 active torsions:
REMARK  status: ('A' for Active; 'I' for Inactive)
REMARK    1  A    between atoms: C_1  and  C_2
REMARK    2  A    between atoms: C_2  and  N_4
REMARK    3  A    between atoms: C_2  and  C_5
REMARK    4  A    between atoms: C_5  and  C_7
REMARK    5  A    between atoms: C_7  and  C_8
REMARK    6  A    between atoms: C_8  and  C_9
REMARK    7  A    between atoms: C_9  and  C_10
REMARK    8  A    between atoms: C_10  and  C_11
REMARK    9  A    between atoms: C_11  and  C_12
REMARK   10  A    between atoms: C_12  and  O_13
REMARK                            x       y       z     vdW  Elec       q    Type
REMARK                         _______ _______ _______ _____ _____    ______ ____
ROOT
ATOM      1  C   UNL     1       8.386  -2.062  24.782  0.00  0.00    +0.076 C 
ENDROOT
BRANCH   1   2
ATOM      2  C   UNL     1       9.358  -3.223  24.627  0.00  0.00    +0.150 C 
ATOM      3  O   UNL     1      10.315  -3.176  23.850  0.00  0.00    -0.296 OA
BRANCH   2   5
ATOM      4  C   UNL     1       7.750  -5.093  25.162  0.00  0.00    +0.032 C 
ATOM      5  C   UNL     1       9.104  -4.475  25.481  0.00  0.00    +0.115 C 
BRANCH   5   6
ATOM      6  N   UNL     1      10.179  -5.455  25.269  0.00  0.00    -0.322 NA
ATOM      7  H   UNL     1       9.768  -6.338  24.960  0.00  0.00    +0.119 HD
ATOM      8  H   UNL     1      10.775  -5.144  24.503  0.00  0.00    +0.119 HD
ENDBRANCH   5   6
ENDBRANCH   2   5
ENDBRANCH   1   2
BRANCH   1   9
ATOM      9  C   UNL     1       8.827  -1.038  25.827  0.00  0.00    +0.008 C 
BRANCH   9  10
ATOM     10  C   UNL     1       9.074   0.353  25.227  0.00  0.00    +0.001 C 
BRANCH  10  11
ATOM     11  C   UNL     1      10.454   0.480  24.577  0.00  0.00    +0.011 C 
BRANCH  11  12
ATOM     12  C   UNL     1      10.500   1.582  23.522  0.00  0.00    +0.120 C 
BRANCH  12  13
ATOM     13  C   UNL     1       9.972   1.085  22.193  0.00  0.00    +0.305 C 
ATOM     14  O   UNL     1       9.957  -0.077  21.826  0.00  0.00    -0.251 OA
BRANCH  13  15
ATOM     15  O   UNL     1       9.501   2.093  21.419  0.00  0.00    -0.481 OA
ATOM     16  H   UNL     1       8.884   1.797  20.726  0.00  0.00    +0.295 HD
ENDBRANCH  13  15
ENDBRANCH  12  13
ENDBRANCH  11  12
ENDBRANCH  10  11
ENDBRANCH   9  10
ENDBRANCH   1   9
TORSDOF 9
ENDMDL
MODEL 3
REMARK VINA RESULT:      -4.6      3.180      6.603
REMARK  Name = 
REMARK  10 active torsions:
REMARK  status: ('A' for Active; 'I' for Inactive)
REMARK    1  A    between atoms: C_1  and  C_2
REMARK    2  A    between atoms: C_2  and  N_4
REMARK    3  A    between atoms: C_2  and  C_5
REMARK    4  A    between atoms: C_5  and  C_7
REMARK    5  A    between atoms: C_7  and  C_8
REMARK    6  A    between atoms: C_8  and  C_9
REMARK    7  A    between atoms: C_9  and  C_10
REMARK    8  A    between atoms: C_10  and  C_11
REMARK    9  A    between atoms: C_11  and  C_12
REMARK   10  A    between atoms: C_12  and  O_13
REMARK                            x       y       z     vdW  Elec       q    Type
REMARK                         _______ _______ _______ _____ _____    ______ ____
ROOT
ATOM      1  C   UNL     1       9.305  -0.250  23.251  0.00  0.00    +0.076 C 
ENDROOT
BRANCH   1   2
ATOM      2  C   UNL     1      10.210   0.904  23.660  0.00  0.00    +0.150 C 
ATOM      3  O   UNL     1      11.118   0.764  24.483  0.00  0.00    -0.296 OA
BRANCH   2   5
ATOM      4  C   UNL     1      10.998   3.290  23.429  0.00  0.00    +0.032 C 
ATOM      5  C   UNL     1       9.951   2.270  23.005  0.00  0.00    +0.115 C 
BRANCH   5   6
ATOM      6  N   UNL     1       9.930   2.131  21.541  0.00  0.00    -0.322 NA
ATOM      7  H   UNL     1       9.065   1.663  21.265  0.00  0.00    +0.119 HD
ATOM      8  H   UNL     1       9.894   3.056  21.114  0.00  0.00    +0.119 HD
ENDBRANCH   5   6
ENDBRANCH   2   5
ENDBRANCH   1   2
BRANCH   1   9
ATOM      9  C   UNL     1      10.073  -1.505  22.837  0.00  0.00    +0.008 C 
BRANCH   9  10
ATOM     10  C   UNL     1       9.937  -2.645  23.854  0.00  0.00    +0.001 C 
BRANCH  10  11
ATOM     11  C   UNL     1       8.518  -3.216  23.917  0.00  0.00    +0.011 C 
BRANCH  11  12
ATOM     12  C   UNL     1       8.497  -4.672  24.375  0.00  0.00    +0.120 C 
BRANCH  12  13
ATOM     13  C   UNL     1       9.303  -4.854  25.644  0.00  0.00    +0.305 C 
ATOM     14  O   UNL     1       9.023  -4.387  26.735  0.00  0.00    -0.251 OA
BRANCH  13  15
ATOM     15  O   UNL     1      10.408  -5.614  25.445  0.00  0.00    -0.481 OA
ATOM     16  H   UNL     1      10.565  -6.265  26.152  0.00  0.00    +0.295 HD
ENDBRANCH  13  15
ENDBRANCH  12  13
ENDBRANCH  11  12
ENDBRANCH  10  11
ENDBRANCH   9  10
ENDBRANCH   1   9
TORSDOF 9
ENDMDL
MODEL 4
REMARK VINA RESULT:      -4.6      2.704      3.186
REMARK  Name = 
REMARK  10 active torsions:
REMARK  status: ('A' for Active; 'I' for Inactive)
REMARK    1  A    between atoms: C_1  and  C_2
REMARK    2  A    between atoms: C_2  and  N_4
REMARK    3  A    between atoms: C_2  and  C_5
REMARK    4  A    between atoms: C_5  and  C_7
REMARK    5  A    between atoms: C_7  and  C_8
REMARK    6  A    between atoms: C_8  and  C_9
REMARK    7  A    between atoms: C_9  and  C_10
REMARK    8  A    between atoms: C_10  and  C_11
REMARK    9  A    between atoms: C_11  and  C_12
REMARK   10  A    between atoms: C_12  and  O_13
REMARK                            x       y       z     vdW  Elec       q    Type
REMARK                         _______ _______ _______ _____ _____    ______ ____
ROOT
ATOM      1  C   UNL     1       8.800  -1.219  24.740  0.00  0.00    +0.076 C 
ENDROOT
BRANCH   1   2
ATOM      2  C   UNL     1       9.339  -2.243  23.752  0.00  0.00    +0.150 C 
ATOM      3  O   UNL     1      10.217  -3.054  24.062  0.00  0.00    -0.296 OA
BRANCH   2   5
ATOM      4  C   UNL     1       7.370  -1.588  22.316  0.00  0.00    +0.032 C 
ATOM      5  C   UNL     1       8.748  -2.235  22.334  0.00  0.00    +0.115 C 
BRANCH   5   6
ATOM      6  N   UNL     1       9.656  -1.536  21.413  0.00  0.00    -0.322 NA
ATOM      7  H   UNL     1       9.915  -0.636  21.822  0.00  0.00    +0.119 HD
ATOM      8  H   UNL     1      10.526  -2.061  21.331  0.00  0.00    +0.119 HD
ENDBRANCH   5   6
ENDBRANCH   2   5
ENDBRANCH   1   2
BRANCH   1   9
ATOM      9  C   UNL     1       9.882  -0.309  25.320  0.00  0.00    +0.008 C 
BRANCH   9  10
ATOM     10  C   UNL     1      10.746   0.350  24.237  0.00  0.00    +0.001 C 
BRANCH  10  11
ATOM     11  C   UNL     1      10.385   1.819  24.005  0.00  0.00    +0.011 C 
BRANCH  11  12
ATOM     12  C   UNL     1      10.181   2.140  22.526  0.00  0.00    +0.120 C 
BRANCH  12  13
ATOM     13  C   UNL     1       8.767   1.821  22.090  0.00  0.00    +0.305 C 
ATOM     14  O   UNL     1       7.768   1.948  22.777  0.00  0.00    -0.251 OA
BRANCH  13  15
ATOM     15  O   UNL     1       8.714   1.364  20.815  0.00  0.00    -0.481 OA
ATOM     16  H   UNL     1       7.829   1.427  20.415  0.00  0.00    +0.295 HD
ENDBRANCH  13  15
ENDBRANCH  12  13
ENDBRANCH  11  12
ENDBRANCH  10  11
ENDBRANCH   9  10
ENDBRANCH   1   9
TORSDOF 9
ENDMDL
MODEL 5
REMARK VINA RESULT:      -4.5      1.108      1.431
REMARK  Name = 
REMARK  10 active torsions:
REMARK  status: ('A' for Active; 'I' for Inactive)
REMARK    1  A    between atoms: C_1  and  C_2
REMARK    2  A    between atoms: C_2  and  N_4
REMARK    3  A    between atoms: C_2  and  C_5
REMARK    4  A    between atoms: C_5  and  C_7
REMARK    5  A    between atoms: C_7  and  C_8
REMARK    6  A    between atoms: C_8  and  C_9
REMARK    7  A    between atoms: C_9  and  C_10
REMARK    8  A    between atoms: C_10  and  C_11
REMARK    9  A    between atoms: C_11  and  C_12
REMARK   10  A    between atoms: C_12  and  O_13
REMARK                            x       y       z     vdW  Elec       q    Type
REMARK                         _______ _______ _______ _____ _____    ______ ____
ROOT
ATOM      1  C   UNL     1       8.006  -2.941  23.881  0.00  0.00    +0.076 C 
ENDROOT
BRANCH   1   2
ATOM      2  C   UNL     1       8.484  -4.339  24.244  0.00  0.00    +0.150 C 
ATOM      3  O   UNL     1       8.287  -5.311  23.509  0.00  0.00    -0.296 OA
BRANCH   2   5
ATOM      4  C   UNL     1       8.279  -4.926  26.690  0.00  0.00    +0.032 C 
ATOM      5  C   UNL     1       9.229  -4.506  25.577  0.00  0.00    +0.115 C 
BRANCH   5   6
ATOM      6  N   UNL     1      10.313  -5.489  25.429  0.00  0.00    -0.322 NA
ATOM      7  H   UNL     1      10.585  -5.538  24.445  0.00  0.00    +0.119 HD
ATOM      8  H   UNL     1      11.140  -5.160  25.927  0.00  0.00    +0.119 HD
ENDBRANCH   5   6
ENDBRANCH   2   5
ENDBRANCH   1   2
BRANCH   1   9
ATOM      9  C   UNL     1       8.546  -2.445  22.540  0.00  0.00    +0.008 C 
BRANCH   9  10
ATOM     10  C   UNL     1       9.886  -1.711  22.675  0.00  0.00    +0.001 C 
BRANCH  10  11
ATOM     11  C   UNL     1       9.796  -0.237  22.270  0.00  0.00    +0.011 C 
BRANCH  11  12
ATOM     12  C   UNL     1      10.391   0.692  23.325  0.00  0.00    +0.120 C 
BRANCH  12  13
ATOM     13  C   UNL     1      10.232   2.143  22.924  0.00  0.00    +0.305 C 
ATOM     14  O   UNL     1      10.110   3.082  23.692  0.00  0.00    -0.251 OA
BRANCH  13  15
ATOM     15  O   UNL     1      10.238   2.307  21.578  0.00  0.00    -0.481 OA
ATOM     16  H   UNL     1      11.128   2.261  21.184  0.00  0.00    +0.295 HD
ENDBRANCH  13  15
ENDBRANCH  12  13
ENDBRANCH  11  12
ENDBRANCH  10  11
ENDBRANCH   9  10
ENDBRANCH   1   9
TORSDOF 9
ENDMDL
MODEL 6
REMARK VINA RESULT:      -4.5      3.251      6.145
REMARK  Name = 
REMARK  10 active torsions:
REMARK  status: ('A' for Active; 'I' for Inactive)
REMARK    1  A    between atoms: C_1  and  C_2
REMARK    2  A    between atoms: C_2  and  N_4
REMARK    3  A    between atoms: C_2  and  C_5
REMARK    4  A    between atoms: C_5  and  C_7
REMARK    5  A    between atoms: C_7  and  C_8
REMARK    6  A    between atoms: C_8  and  C_9
REMARK    7  A    between atoms: C_9  and  C_10
REMARK    8  A    between atoms: C_10  and  C_11
REMARK    9  A    between atoms: C_11  and  C_12
REMARK   10  A    between atoms: C_12  and  O_13
REMARK                            x       y       z     vdW  Elec       q    Type
REMARK                         _______ _______ _______ _____ _____    ______ ____
ROOT
ATOM      1  C   UNL     1      10.288  -1.542  22.521  0.00  0.00    +0.076 C 
ENDROOT
BRANCH   1   2
ATOM      2  C   UNL     1      10.231  -0.044  22.786  0.00  0.00    +0.150 C 
ATOM      3  O   UNL     1      10.765   0.467  23.774  0.00  0.00    -0.296 OA
BRANCH   2   5
ATOM      4  C   UNL     1       8.005   0.959  22.148  0.00  0.00    +0.032 C 
ATOM      5  C   UNL     1       9.473   0.824  21.770  0.00  0.00    +0.115 C 
BRANCH   5   6
ATOM      6  N   UNL     1      10.102   2.150  21.672  0.00  0.00    -0.322 NA
ATOM      7  H   UNL     1      10.995   2.131  22.167  0.00  0.00    +0.119 HD
ATOM      8  H   UNL     1      10.331   2.345  20.698  0.00  0.00    +0.119 HD
ENDBRANCH   5   6
ENDBRANCH   2   5
ENDBRANCH   1   2
BRANCH   1   9
ATOM      9  C   UNL     1       9.863  -2.387  23.721  0.00  0.00    +0.008 C 
BRANCH   9  10
ATOM     10  C   UNL     1       8.347  -2.615  23.778  0.00  0.00    +0.001 C 
BRANCH  10  11
ATOM     11  C   UNL     1       7.793  -3.233  22.492  0.00  0.00    +0.011 C 
BRANCH  11  12
ATOM     12  C   UNL     1       7.338  -4.676  22.690  0.00  0.00    +0.120 C 
BRANCH  12  13
ATOM     13  C   UNL     1       6.026  -4.936  21.980  0.00  0.00    +0.305 C 
ATOM     14  O   UNL     1       5.164  -4.103  21.758  0.00  0.00    -0.251 OA
BRANCH  13  15
ATOM     15  O   UNL     1       5.895  -6.230  21.601  0.00  0.00    -0.481 OA
ATOM     16  H   UNL     1       6.547  -6.509  20.934  0.00  0.00    +0.295 HD
ENDBRANCH  13  15
ENDBRANCH  12  13
ENDBRANCH  11  12
ENDBRANCH  10  11
ENDBRANCH   9  10
ENDBRANCH   1   9
TORSDOF 9
ENDMDL
MODEL 7
REMARK VINA RESULT:      -4.4      3.805      4.953
REMARK  Name = 
REMARK  10 active torsions:
REMARK  status: ('A' for Active; 'I' for Inactive)
REMARK    1  A    between atoms: C_1  and  C_2
REMARK    2  A    between atoms: C_2  and  N_4
REMARK    3  A    between atoms: C_2  and  C_5
REMARK    4  A    between atoms: C_5  and  C_7
REMARK    5  A    between atoms: C_7  and  C_8
REMARK    6  A    between atoms: C_8  and  C_9
REMARK    7  A    between atoms: C_9  and  C_10
REMARK    8  A    between atoms: C_10  and  C_11
REMARK    9  A    between atoms: C_11  and  C_12
REMARK   10  A    between atoms: C_12  and  O_13
REMARK                            x       y       z     vdW  Elec       q    Type
REMARK                         _______ _______ _______ _____ _____    ______ ____
ROOT
ATOM      1  C   UNL     1       8.829  -2.956  24.330  0.00  0.00    +0.076 C 
ENDROOT
BRANCH   1   2
ATOM      2  C   UNL     1       8.888  -4.305  25.032  0.00  0.00    +0.150 C 
ATOM      3  O   UNL     1       9.327  -5.315  24.475  0.00  0.00    -0.296 OA
BRANCH   2   5
ATOM      4  C   UNL     1       7.103  -3.551  26.649  0.00  0.00    +0.032 C 
ATOM      5  C   UNL     1       8.374  -4.371  26.479  0.00  0.00    +0.115 C 
BRANCH   5   6
ATOM      6  N   UNL     1       8.139  -5.770  26.867  0.00  0.00    -0.322 NA
ATOM      7  H   UNL     1       8.166  -6.355  26.030  0.00  0.00    +0.119 HD
ATOM      8  H   UNL     1       8.908  -6.092  27.454  0.00  0.00    +0.119 HD
ENDBRANCH   5   6
ENDBRANCH   2   5
ENDBRANCH   1   2
BRANCH   1   9
ATOM      9  C   UNL     1       8.170  -3.018  22.953  0.00  0.00    +0.008 C 
BRANCH   9  10
ATOM     10  C   UNL     1       6.800  -2.329  22.920  0.00  0.00    +0.001 C 
BRANCH  10  11
ATOM     11  C   UNL     1       5.703  -3.224  22.337  0.00  0.00    +0.011 C 
BRANCH  11  12
ATOM     12  C   UNL     1       5.809  -4.666  22.825  0.00  0.00    +0.120 C 
BRANCH  12  13
ATOM     13  C   UNL     1       5.988  -5.622  21.665  0.00  0.00    +0.305 C 
ATOM     14  O   UNL     1       5.942  -5.320  20.485  0.00  0.00    -0.251 OA
BRANCH  13  15
ATOM     15  O   UNL     1       6.213  -6.893  22.078  0.00  0.00    -0.481 OA
ATOM     16  H   UNL     1       5.409  -7.441  22.108  0.00  0.00    +0.295 HD
ENDBRANCH  13  15
ENDBRANCH  12  13
ENDBRANCH  11  12
ENDBRANCH  10  11
ENDBRANCH   9  10
ENDBRANCH   1   9
TORSDOF 9
ENDMDL
MODEL 8
REMARK VINA RESULT:      -4.3      3.689      5.570
REMARK  Name = 
REMARK  10 active torsions:
REMARK  status: ('A' for Active; 'I' for Inactive)
REMARK    1  A    between atoms: C_1  and  C_2
REMARK    2  A    between atoms: C_2  and  N_4
REMARK    3  A    between atoms: C_2  and  C_5
REMARK    4  A    between atoms: C_5  and  C_7
REMARK    5  A    between atoms: C_7  and  C_8
REMARK    6  A    between atoms: C_8  and  C_9
REMARK    7  A    between atoms: C_9  and  C_10
REMARK    8  A    between atoms: C_10  and  C_11
REMARK    9  A    between atoms: C_11  and  C_12
REMARK   10  A    between atoms: C_12  and  O_13
REMARK                            x       y       z     vdW  Elec       q    Type
REMARK                         _______ _______ _______ _____ _____    ______ ____
ROOT
ATOM      1  C   UNL     1       7.993   1.058  24.583  0.00  0.00    +0.076 C 
ENDROOT
BRANCH   1   2
ATOM      2  C   UNL     1       8.306   2.086  23.505  0.00  0.00    +0.150 C 
ATOM      3  O   UNL     1       7.417   2.690  22.898  0.00  0.00    -0.296 OA
BRANCH   2   5
ATOM      4  C   UNL     1      10.694   1.452  24.017  0.00  0.00    +0.032 C 
ATOM      5  C   UNL     1       9.786   2.352  23.191  0.00  0.00    +0.115 C 
BRANCH   5   6
ATOM      6  N   UNL     1      10.039   2.158  21.755  0.00  0.00    -0.322 NA
ATOM      7  H   UNL     1      11.046   2.194  21.587  0.00  0.00    +0.119 HD
ATOM      8  H   UNL     1       9.747   1.220  21.483  0.00  0.00    +0.119 HD
ENDBRANCH   5   6
ENDBRANCH   2   5
ENDBRANCH   1   2
BRANCH   1   9
ATOM      9  C   UNL     1       6.610   0.426  24.435  0.00  0.00    +0.008 C 
BRANCH   9  10
ATOM     10  C   UNL     1       6.604  -0.765  23.467  0.00  0.00    +0.001 C 
BRANCH  10  11
ATOM     11  C   UNL     1       7.792  -1.707  23.680  0.00  0.00    +0.011 C 
BRANCH  11  12
ATOM     12  C   UNL     1       8.339  -2.257  22.366  0.00  0.00    +0.120 C 
BRANCH  12  13
ATOM     13  C   UNL     1       9.634  -1.571  21.985  0.00  0.00    +0.305 C 
ATOM     14  O   UNL     1      10.732  -1.822  22.451  0.00  0.00    -0.251 OA
BRANCH  13  15
ATOM     15  O   UNL     1       9.449  -0.615  21.043  0.00  0.00    -0.481 OA
ATOM     16  H   UNL     1       9.250   0.264  21.413  0.00  0.00    +0.295 HD
ENDBRANCH  13  15
ENDBRANCH  12  13
ENDBRANCH  11  12
ENDBRANCH  10  11
ENDBRANCH   9  10
ENDBRANCH   1   9
TORSDOF 9
ENDMDL
MODEL 9
REMARK VINA RESULT:      -4.3      3.030      6.384
REMARK  Name = 
REMARK  10 active torsions:
REMARK  status: ('A' for Active; 'I' for Inactive)
REMARK    1  A    between atoms: C_1  and  C_2
REMARK    2  A    between atoms: C_2  and  N_4
REMARK    3  A    between atoms: C_2  and  C_5
REMARK    4  A    between atoms: C_5  and  C_7
REMARK    5  A    between atoms: C_7  and  C_8
REMARK    6  A    between atoms: C_8  and  C_9
REMARK    7  A    between atoms: C_9  and  C_10
REMARK    8  A    between atoms: C_10  and  C_11
REMARK    9  A    between atoms: C_11  and  C_12
REMARK   10  A    between atoms: C_12  and  O_13
REMARK                            x       y       z     vdW  Elec       q    Type
REMARK                         _______ _______ _______ _____ _____    ______ ____
ROOT
ATOM      1  C   UNL     1       8.256   0.121  23.968  0.00  0.00    +0.076 C 
ENDROOT
BRANCH   1   2
ATOM      2  C   UNL     1       9.636   0.691  23.673  0.00  0.00    +0.150 C 
ATOM      3  O   UNL     1      10.383   1.094  24.568  0.00  0.00    -0.296 OA
BRANCH   2   5
ATOM      4  C   UNL     1       9.373  -0.317  21.374  0.00  0.00    +0.032 C 
ATOM      5  C   UNL     1      10.075   0.751  22.201  0.00  0.00    +0.115 C 
BRANCH   5   6
ATOM      6  N   UNL     1       9.807   2.087  21.650  0.00  0.00    -0.322 NA
ATOM      7  H   UNL     1       8.864   2.374  21.918  0.00  0.00    +0.119 HD
ATOM      8  H   UNL     1      10.435   2.764  22.082  0.00  0.00    +0.119 HD
ENDBRANCH   5   6
ENDBRANCH   2   5
ENDBRANCH   1   2
BRANCH   1   9
ATOM      9  C   UNL     1       8.203  -0.707  25.251  0.00  0.00    +0.008 C 
BRANCH   9  10
ATOM     10  C   UNL     1       8.550  -2.183  25.018  0.00  0.00    +0.001 C 
BRANCH  10  11
ATOM     11  C   UNL     1       8.599  -2.991  26.318  0.00  0.00    +0.011 C 
BRANCH  11  12
ATOM     12  C   UNL     1       8.170  -4.442  26.116  0.00  0.00    +0.120 C 
BRANCH  12  13
ATOM     13  C   UNL     1       9.122  -5.167  25.188  0.00  0.00    +0.305 C 
ATOM     14  O   UNL     1       8.890  -5.469  24.030  0.00  0.00    -0.251 OA
BRANCH  13  15
ATOM     15  O   UNL     1      10.301  -5.460  25.789  0.00  0.00    -0.481 OA
ATOM     16  H   UNL     1      10.652  -6.337  25.552  0.00  0.00    +0.295 HD
ENDBRANCH  13  15
ENDBRANCH  12  13
ENDBRANCH  11  12
ENDBRANCH  10  11
ENDBRANCH   9  10
ENDBRANCH   1   9
TORSDOF 9
ENDMDL
