MODEL 1
REMARK VINA RESULT:      -6.5      0.000      0.000
REMARK  Name = 
REMARK  5 active torsions:
REMARK  status: ('A' for Active; 'I' for Inactive)
REMARK    1  A    between atoms: C_1  and  C_2
REMARK    2  A    between atoms: C_5  and  N_6
REMARK    3  A    between atoms: N_6  and  C_7
REMARK    4  A    between atoms: C_12  and  C_13
REMARK    5  A    between atoms: C_13  and  O_14
REMARK                            x       y       z     vdW  Elec       q    Type
REMARK                         _______ _______ _______ _____ _____    ______ ____
ROOT
ATOM      1  N   UNL     1       7.851  -1.893  23.901  0.00  0.00    -0.312 N 
ATOM      2  H   UNL     1       8.592  -2.108  24.579  0.00  0.00    +0.152 HD
ENDROOT
BRANCH   1   9
ATOM      3  C   UNL     1       6.246   2.550  22.235  0.00  0.00    +0.045 C 
ATOM      4  C   UNL     1       7.330   1.520  22.424  0.00  0.00    -0.030 A 
ATOM      5  C   UNL     1       8.502   1.644  21.668  0.00  0.00    +0.006 A 
ATOM      6  C   UNL     1       9.495   0.669  21.733  0.00  0.00    +0.022 A 
ATOM      7  C   UNL     1       9.295  -0.477  22.500  0.00  0.00    +0.064 A 
ATOM      8 CL   UNL     1      10.513  -1.705  22.475  0.00  0.00    -0.082 Cl
ATOM      9  C   UNL     1       8.122  -0.642  23.264  0.00  0.00    +0.069 A 
ATOM     10  C   UNL     1       7.195   0.428  23.299  0.00  0.00    +0.066 A 
ATOM     11 CL   UNL     1       5.922   0.418  24.487  0.00  0.00    -0.081 Cl
ENDBRANCH   1   9
BRANCH   1  12
ATOM     12  C   UNL     1       7.451  -3.094  23.238  0.00  0.00    +0.045 A 
ATOM     13  C   UNL     1       7.980  -4.339  23.633  0.00  0.00    +0.080 A 
ATOM     14  C   UNL     1       7.614  -5.518  22.963  0.00  0.00    +0.017 A 
ATOM     15  C   UNL     1       6.670  -5.482  21.939  0.00  0.00    +0.001 A 
ATOM     16  C   UNL     1       6.103  -4.268  21.569  0.00  0.00    +0.002 A 
ATOM     17  C   UNL     1       6.506  -3.086  22.195  0.00  0.00    +0.024 A 
BRANCH  13  18
ATOM     18  C   UNL     1       8.897  -4.488  24.789  0.00  0.00    +0.339 C 
ATOM     19  O   UNL     1       8.888  -3.733  25.745  0.00  0.00    -0.245 OA
BRANCH  18  20
ATOM     20  O   UNL     1       9.791  -5.491  24.642  0.00  0.00    -0.477 OA
ATOM     21  H   UNL     1       9.433  -6.369  24.902  0.00  0.00    +0.295 HD
ENDBRANCH  18  20
ENDBRANCH  13  18
ENDBRANCH   1  12
TORSDOF 4
ENDMDL
MODEL 2
REMARK VINA RESULT:      -6.4      1.770      2.513
REMARK  Name = 
REMARK  5 active torsions:
REMARK  status: ('A' for Active; 'I' for Inactive)
REMARK    1  A    between atoms: C_1  and  C_2
REMARK    2  A    between atoms: C_5  and  N_6
REMARK    3  A    between atoms: N_6  and  C_7
REMARK    4  A    between atoms: C_12  and  C_13
REMARK    5  A    between atoms: C_13  and  O_14
REMARK                            x       y       z     vdW  Elec       q    Type
REMARK                         _______ _______ _______ _____ _____    ______ ____
ROOT
ATOM      1  N   UNL     1       9.205  -2.499  23.797  0.00  0.00    -0.312 N 
ATOM      2  H   UNL     1      10.077  -2.653  23.276  0.00  0.00    +0.152 HD
ENDROOT
BRANCH   1   9
ATOM      3  C   UNL     1      10.234   2.270  22.663  0.00  0.00    +0.045 C 
ATOM      4  C   UNL     1       9.557   1.230  23.516  0.00  0.00    -0.030 A 
ATOM      5  C   UNL     1       9.050   1.620  24.762  0.00  0.00    +0.006 A 
ATOM      6  C   UNL     1       8.501   0.680  25.631  0.00  0.00    +0.022 A 
ATOM      7  C   UNL     1       8.518  -0.671  25.294  0.00  0.00    +0.064 A 
ATOM      8 CL   UNL     1       7.912  -1.813  26.445  0.00  0.00    -0.082 Cl
ATOM      9  C   UNL     1       9.031  -1.104  24.054  0.00  0.00    +0.069 A 
ATOM     10  C   UNL     1       9.447  -0.117  23.127  0.00  0.00    +0.066 A 
ATOM     11 CL   UNL     1       9.754  -0.572  21.475  0.00  0.00    -0.081 Cl
ENDBRANCH   1   9
BRANCH   1  12
ATOM     12  C   UNL     1       8.197  -3.386  23.308  0.00  0.00    +0.045 A 
ATOM     13  C   UNL     1       8.043  -4.671  23.867  0.00  0.00    +0.080 A 
ATOM     14  C   UNL     1       7.075  -5.558  23.368  0.00  0.00    +0.017 A 
ATOM     15  C   UNL     1       6.207  -5.156  22.357  0.00  0.00    +0.001 A 
ATOM     16  C   UNL     1       6.314  -3.875  21.827  0.00  0.00    +0.002 A 
ATOM     17  C   UNL     1       7.311  -3.010  22.282  0.00  0.00    +0.024 A 
BRANCH  13  18
ATOM     18  C   UNL     1       8.841  -5.140  25.026  0.00  0.00    +0.339 C 
ATOM     19  O   UNL     1       8.353  -5.371  26.118  0.00  0.00    -0.245 OA
BRANCH  18  20
ATOM     20  O   UNL     1      10.167  -5.210  24.775  0.00  0.00    -0.477 OA
ATOM     21  H   UNL     1      10.646  -5.807  25.392  0.00  0.00    +0.295 HD
ENDBRANCH  18  20
ENDBRANCH  13  18
ENDBRANCH   1  12
TORSDOF 4
ENDMDL
MODEL 3
REMARK VINA RESULT:      -6.1      1.755      1.907
REMARK  Name = 
REMARK  5 active torsions:
REMARK  status: ('A' for Active; 'I' for Inactive)
REMARK    1  A    between atoms: C_1  and  C_2
REMARK    2  A    between atoms: C_5  and  N_6
REMARK    3  A    between atoms: N_6  and  C_7
REMARK    4  A    between atoms: C_12  and  C_13
REMARK    5  A    between atoms: C_13  and  O_14
REMARK                            x       y       z     vdW  Elec       q    Type
REMARK                         _______ _______ _______ _____ _____    ______ ____
ROOT
ATOM      1  N   UNL     1       9.182  -2.444  24.513  0.00  0.00    -0.312 N 
ATOM      2  H   UNL     1      10.120  -2.863  24.494  0.00  0.00    +0.152 HD
ENDROOT
BRANCH   1   9
ATOM      3  C   UNL     1       7.588   2.074  25.974  0.00  0.00    +0.045 C 
ATOM      4  C   UNL     1       8.484   1.191  25.145  0.00  0.00    -0.030 A 
ATOM      5  C   UNL     1       9.165   1.765  24.064  0.00  0.00    +0.006 A 
ATOM      6  C   UNL     1       9.930   0.977  23.208  0.00  0.00    +0.022 A 
ATOM      7  C   UNL     1       9.966  -0.405  23.381  0.00  0.00    +0.064 A 
ATOM      8 CL   UNL     1      10.852  -1.354  22.237  0.00  0.00    -0.082 Cl
ATOM      9  C   UNL     1       9.283  -1.020  24.451  0.00  0.00    +0.069 A 
ATOM     10  C   UNL     1       8.635  -0.184  25.393  0.00  0.00    +0.066 A 
ATOM     11 CL   UNL     1       8.086  -0.861  26.900  0.00  0.00    -0.081 Cl
ENDBRANCH   1   9
BRANCH   1  12
ATOM     12  C   UNL     1       8.286  -3.248  23.743  0.00  0.00    +0.045 A 
ATOM     13  C   UNL     1       8.171  -4.630  23.993  0.00  0.00    +0.080 A 
ATOM     14  C   UNL     1       7.316  -5.430  23.217  0.00  0.00    +0.017 A 
ATOM     15  C   UNL     1       6.519  -4.856  22.230  0.00  0.00    +0.001 A 
ATOM     16  C   UNL     1       6.586  -3.487  22.002  0.00  0.00    +0.002 A 
ATOM     17  C   UNL     1       7.476  -2.697  22.734  0.00  0.00    +0.024 A 
BRANCH  13  18
ATOM     18  C   UNL     1       8.889  -5.305  25.102  0.00  0.00    +0.339 C 
ATOM     19  O   UNL     1       8.328  -5.723  26.100  0.00  0.00    -0.245 OA
BRANCH  18  20
ATOM     20  O   UNL     1      10.229  -5.341  24.933  0.00  0.00    -0.477 OA
ATOM     21  H   UNL     1      10.690  -4.569  25.330  0.00  0.00    +0.295 HD
ENDBRANCH  18  20
ENDBRANCH  13  18
ENDBRANCH   1  12
TORSDOF 4
ENDMDL
MODEL 4
REMARK VINA RESULT:      -5.9      2.673      3.274
REMARK  Name = 
REMARK  5 active torsions:
REMARK  status: ('A' for Active; 'I' for Inactive)
REMARK    1  A    between atoms: C_1  and  C_2
REMARK    2  A    between atoms: C_5  and  N_6
REMARK    3  A    between atoms: N_6  and  C_7
REMARK    4  A    between atoms: C_12  and  C_13
REMARK    5  A    between atoms: C_13  and  O_14
REMARK                            x       y       z     vdW  Elec       q    Type
REMARK                         _______ _______ _______ _____ _____    ______ ____
ROOT
ATOM      1  N   UNL     1       9.385  -1.995  24.813  0.00  0.00    -0.312 N 
ATOM      2  H   UNL     1       9.893  -2.877  24.677  0.00  0.00    +0.152 HD
ENDROOT
BRANCH   1   9
ATOM      3  C   UNL     1      10.368   2.433  22.688  0.00  0.00    +0.045 C 
ATOM      4  C   UNL     1       9.948   0.989  22.603  0.00  0.00    -0.030 A 
ATOM      5  C   UNL     1       9.330   0.545  21.427  0.00  0.00    +0.006 A 
ATOM      6  C   UNL     1       8.837  -0.753  21.331  0.00  0.00    +0.022 A 
ATOM      7  C   UNL     1       8.891  -1.601  22.435  0.00  0.00    +0.064 A 
ATOM      8 CL   UNL     1       8.179  -3.172  22.300  0.00  0.00    -0.082 Cl
ATOM      9  C   UNL     1       9.494  -1.185  23.640  0.00  0.00    +0.069 A 
ATOM     10  C   UNL     1      10.120   0.085  23.665  0.00  0.00    +0.066 A 
ATOM     11 CL   UNL     1      11.168   0.494  24.994  0.00  0.00    -0.081 Cl
ENDBRANCH   1   9
BRANCH   1  12
ATOM     12  C   UNL     1       8.181  -2.246  25.541  0.00  0.00    +0.045 A 
ATOM     13  C   UNL     1       7.875  -3.546  25.991  0.00  0.00    +0.080 A 
ATOM     14  C   UNL     1       6.678  -3.803  26.678  0.00  0.00    +0.017 A 
ATOM     15  C   UNL     1       5.804  -2.762  26.983  0.00  0.00    +0.001 A 
ATOM     16  C   UNL     1       6.113  -1.466  26.588  0.00  0.00    +0.002 A 
ATOM     17  C   UNL     1       7.276  -1.215  25.856  0.00  0.00    +0.024 A 
BRANCH  13  18
ATOM     18  C   UNL     1       8.802  -4.691  25.817  0.00  0.00    +0.339 C 
ATOM     19  O   UNL     1       9.614  -4.756  24.911  0.00  0.00    -0.245 OA
BRANCH  18  20
ATOM     20  O   UNL     1       8.605  -5.684  26.711  0.00  0.00    -0.477 OA
ATOM     21  H   UNL     1       9.430  -6.166  26.943  0.00  0.00    +0.295 HD
ENDBRANCH  18  20
ENDBRANCH  13  18
ENDBRANCH   1  12
TORSDOF 4
ENDMDL
MODEL 5
REMARK VINA RESULT:      -5.9      2.232      3.508
REMARK  Name = 
REMARK  5 active torsions:
REMARK  status: ('A' for Active; 'I' for Inactive)
REMARK    1  A    between atoms: C_1  and  C_2
REMARK    2  A    between atoms: C_5  and  N_6
REMARK    3  A    between atoms: N_6  and  C_7
REMARK    4  A    between atoms: C_12  and  C_13
REMARK    5  A    between atoms: C_13  and  O_14
REMARK                            x       y       z     vdW  Elec       q    Type
REMARK                         _______ _______ _______ _____ _____    ______ ____
ROOT
ATOM      1  N   UNL     1       7.699  -1.504  22.744  0.00  0.00    -0.312 N 
ATOM      2  H   UNL     1       6.776  -1.572  22.299  0.00  0.00    +0.152 HD
ENDROOT
BRANCH   1   9
ATOM      3  C   UNL     1      10.482   2.562  23.646  0.00  0.00    +0.045 C 
ATOM      4  C   UNL     1       9.223   1.755  23.823  0.00  0.00    -0.030 A 
ATOM      5  C   UNL     1       8.354   2.099  24.867  0.00  0.00    +0.006 A 
ATOM      6  C   UNL     1       7.226   1.329  25.135  0.00  0.00    +0.022 A 
ATOM      7  C   UNL     1       6.991   0.164  24.409  0.00  0.00    +0.064 A 
ATOM      8 CL   UNL     1       5.629  -0.813  24.840  0.00  0.00    -0.082 Cl
ATOM      9  C   UNL     1       7.849  -0.222  23.359  0.00  0.00    +0.069 A 
ATOM     10  C   UNL     1       8.905   0.654  23.008  0.00  0.00    +0.066 A 
ATOM     11 CL   UNL     1       9.766   0.400  21.516  0.00  0.00    -0.081 Cl
ENDBRANCH   1   9
BRANCH   1  12
ATOM     12  C   UNL     1       8.031  -2.758  23.344  0.00  0.00    +0.045 A 
ATOM     13  C   UNL     1       7.331  -3.928  22.989  0.00  0.00    +0.080 A 
ATOM     14  C   UNL     1       7.632  -5.157  23.599  0.00  0.00    +0.017 A 
ATOM     15  C   UNL     1       8.674  -5.249  24.517  0.00  0.00    +0.001 A 
ATOM     16  C   UNL     1       9.407  -4.113  24.844  0.00  0.00    +0.002 A 
ATOM     17  C   UNL     1       9.074  -2.879  24.281  0.00  0.00    +0.024 A 
BRANCH  13  18
ATOM     18  C   UNL     1       6.288  -3.947  21.933  0.00  0.00    +0.339 C 
ATOM     19  O   UNL     1       5.442  -3.078  21.820  0.00  0.00    -0.245 OA
BRANCH  18  20
ATOM     20  O   UNL     1       6.321  -5.057  21.163  0.00  0.00    -0.477 OA
ATOM     21  H   UNL     1       5.627  -5.712  21.398  0.00  0.00    +0.295 HD
ENDBRANCH  18  20
ENDBRANCH  13  18
ENDBRANCH   1  12
TORSDOF 4
ENDMDL
MODEL 6
REMARK VINA RESULT:      -5.7      2.833      5.666
REMARK  Name = 
REMARK  5 active torsions:
REMARK  status: ('A' for Active; 'I' for Inactive)
REMARK    1  A    between atoms: C_1  and  C_2
REMARK    2  A    between atoms: C_5  and  N_6
REMARK    3  A    between atoms: N_6  and  C_7
REMARK    4  A    between atoms: C_12  and  C_13
REMARK    5  A    between atoms: C_13  and  O_14
REMARK                            x       y       z     vdW  Elec       q    Type
REMARK                         _______ _______ _______ _____ _____    ______ ____
ROOT
ATOM      1  N   UNL     1       8.173  -3.059  23.923  0.00  0.00    -0.312 N 
ATOM      2  H   UNL     1       9.049  -3.113  24.455  0.00  0.00    +0.152 HD
ENDROOT
BRANCH   1   9
ATOM      3  C   UNL     1       4.023  -5.750  23.132  0.00  0.00    +0.045 C 
ATOM      4  C   UNL     1       5.264  -5.435  23.924  0.00  0.00    -0.030 A 
ATOM      5  C   UNL     1       5.382  -5.968  25.214  0.00  0.00    +0.006 A 
ATOM      6  C   UNL     1       6.463  -5.633  26.025  0.00  0.00    +0.022 A 
ATOM      7  C   UNL     1       7.402  -4.703  25.583  0.00  0.00    +0.064 A 
ATOM      8 CL   UNL     1       8.675  -4.244  26.661  0.00  0.00    -0.082 Cl
ATOM      9  C   UNL     1       7.310  -4.136  24.295  0.00  0.00    +0.069 A 
ATOM     10  C   UNL     1       6.288  -4.605  23.435  0.00  0.00    +0.066 A 
ATOM     11 CL   UNL     1       6.344  -4.201  21.742  0.00  0.00    -0.081 Cl
ENDBRANCH   1   9
BRANCH   1  12
ATOM     12  C   UNL     1       7.782  -1.691  23.787  0.00  0.00    +0.045 A 
ATOM     13  C   UNL     1       8.504  -0.822  22.945  0.00  0.00    +0.080 A 
ATOM     14  C   UNL     1       8.144   0.531  22.833  0.00  0.00    +0.017 A 
ATOM     15  C   UNL     1       7.025   1.019  23.504  0.00  0.00    +0.001 A 
ATOM     16  C   UNL     1       6.274   0.164  24.303  0.00  0.00    +0.002 A 
ATOM     17  C   UNL     1       6.662  -1.169  24.460  0.00  0.00    +0.024 A 
BRANCH  13  18
ATOM     18  C   UNL     1       9.633  -1.281  22.100  0.00  0.00    +0.339 C 
ATOM     19  O   UNL     1      10.566  -1.932  22.536  0.00  0.00    -0.245 OA
BRANCH  18  20
ATOM     20  O   UNL     1       9.565  -0.843  20.824  0.00  0.00    -0.477 OA
ATOM     21  H   UNL     1       8.985  -1.395  20.255  0.00  0.00    +0.295 HD
ENDBRANCH  18  20
ENDBRANCH  13  18
ENDBRANCH   1  12
TORSDOF 4
ENDMDL
MODEL 7
REMARK VINA RESULT:      -5.7      2.904      5.834
REMARK  Name = 
REMARK  5 active torsions:
REMARK  status: ('A' for Active; 'I' for Inactive)
REMARK    1  A    between atoms: C_1  and  C_2
REMARK    2  A    between atoms: C_5  and  N_6
REMARK    3  A    between atoms: N_6  and  C_7
REMARK    4  A    between atoms: C_12  and  C_13
REMARK    5  A    between atoms: C_13  and  O_14
REMARK                            x       y       z     vdW  Elec       q    Type
REMARK                         _______ _______ _______ _____ _____    ______ ____
ROOT
ATOM      1  N   UNL     1       7.019  -1.245  23.883  0.00  0.00    -0.312 N 
ATOM      2  H   UNL     1       6.019  -1.088  23.706  0.00  0.00    +0.152 HD
ENDROOT
BRANCH   1   9
ATOM      3  C   UNL     1       9.795  -5.031  25.628  0.00  0.00    +0.045 C 
ATOM      4  C   UNL     1       8.661  -4.497  24.792  0.00  0.00    -0.030 A 
ATOM      5  C   UNL     1       8.098  -5.337  23.823  0.00  0.00    +0.006 A 
ATOM      6  C   UNL     1       7.113  -4.864  22.959  0.00  0.00    +0.022 A 
ATOM      7  C   UNL     1       6.732  -3.526  23.007  0.00  0.00    +0.064 A 
ATOM      8 CL   UNL     1       5.575  -2.960  21.851  0.00  0.00    -0.082 Cl
ATOM      9  C   UNL     1       7.285  -2.647  23.960  0.00  0.00    +0.069 A 
ATOM     10  C   UNL     1       8.173  -3.186  24.923  0.00  0.00    +0.066 A 
ATOM     11 CL   UNL     1       8.604  -2.232  26.315  0.00  0.00    -0.081 Cl
ENDBRANCH   1   9
BRANCH   1  12
ATOM     12  C   UNL     1       7.787  -0.292  23.145  0.00  0.00    +0.045 A 
ATOM     13  C   UNL     1       7.528   1.088  23.271  0.00  0.00    +0.080 A 
ATOM     14  C   UNL     1       8.259   2.026  22.524  0.00  0.00    +0.017 A 
ATOM     15  C   UNL     1       9.297   1.609  21.694  0.00  0.00    +0.001 A 
ATOM     16  C   UNL     1       9.597   0.255  21.594  0.00  0.00    +0.002 A 
ATOM     17  C   UNL     1       8.836  -0.685  22.293  0.00  0.00    +0.024 A 
BRANCH  13  18
ATOM     18  C   UNL     1       6.525   1.629  24.220  0.00  0.00    +0.339 C 
ATOM     19  O   UNL     1       6.827   2.264  25.215  0.00  0.00    -0.245 OA
BRANCH  18  20
ATOM     20  O   UNL     1       5.254   1.285  23.916  0.00  0.00    -0.477 OA
ATOM     21  H   UNL     1       4.997   0.404  24.269  0.00  0.00    +0.295 HD
ENDBRANCH  18  20
ENDBRANCH  13  18
ENDBRANCH   1  12
TORSDOF 4
ENDMDL
MODEL 8
REMARK VINA RESULT:      -5.7      2.661      3.206
REMARK  Name = 
REMARK  5 active torsions:
REMARK  status: ('A' for Active; 'I' for Inactive)
REMARK    1  A    between atoms: C_1  and  C_2
REMARK    2  A    between atoms: C_5  and  N_6
REMARK    3  A    between atoms: N_6  and  C_7
REMARK    4  A    between atoms: C_12  and  C_13
REMARK    5  A    between atoms: C_13  and  O_14
REMARK                            x       y       z     vdW  Elec       q    Type
REMARK                         _______ _______ _______ _____ _____    ______ ____
ROOT
ATOM      1  N   UNL     1       7.358  -1.092  22.932  0.00  0.00    -0.312 N 
ATOM      2  H   UNL     1       6.964  -0.643  22.097  0.00  0.00    +0.152 HD
ENDROOT
BRANCH   1   9
ATOM      3  C   UNL     1       9.342   3.461  23.581  0.00  0.00    +0.045 C 
ATOM      4  C   UNL     1       9.350   1.971  23.801  0.00  0.00    -0.030 A 
ATOM      5  C   UNL     1      10.528   1.375  24.270  0.00  0.00    +0.006 A 
ATOM      6  C   UNL     1      10.620  -0.008  24.400  0.00  0.00    +0.022 A 
ATOM      7  C   UNL     1       9.560  -0.817  23.995  0.00  0.00    +0.064 A 
ATOM      8 CL   UNL     1       9.756  -2.534  24.085  0.00  0.00    -0.082 Cl
ATOM      9  C   UNL     1       8.363  -0.254  23.507  0.00  0.00    +0.069 A 
ATOM     10  C   UNL     1       8.238   1.157  23.524  0.00  0.00    +0.066 A 
ATOM     11 CL   UNL     1       6.674   1.879  23.268  0.00  0.00    -0.081 Cl
ENDBRANCH   1   9
BRANCH   1  12
ATOM     12  C   UNL     1       6.317  -1.755  23.652  0.00  0.00    +0.045 A 
ATOM     13  C   UNL     1       5.750  -2.945  23.155  0.00  0.00    +0.080 A 
ATOM     14  C   UNL     1       4.704  -3.583  23.843  0.00  0.00    +0.017 A 
ATOM     15  C   UNL     1       4.257  -3.083  25.063  0.00  0.00    +0.001 A 
ATOM     16  C   UNL     1       4.838  -1.936  25.591  0.00  0.00    +0.002 A 
ATOM     17  C   UNL     1       5.840  -1.268  24.883  0.00  0.00    +0.024 A 
BRANCH  13  18
ATOM     18  C   UNL     1       6.244  -3.615  21.927  0.00  0.00    +0.339 C 
ATOM     19  O   UNL     1       5.588  -3.694  20.904  0.00  0.00    -0.245 OA
BRANCH  18  20
ATOM     20  O   UNL     1       7.455  -4.194  22.080  0.00  0.00    -0.477 OA
ATOM     21  H   UNL     1       7.637  -4.892  21.412  0.00  0.00    +0.295 HD
ENDBRANCH  18  20
ENDBRANCH  13  18
ENDBRANCH   1  12
TORSDOF 4
ENDMDL
MODEL 9
REMARK VINA RESULT:      -5.7      3.239      4.568
REMARK  Name = 
REMARK  5 active torsions:
REMARK  status: ('A' for Active; 'I' for Inactive)
REMARK    1  A    between atoms: C_1  and  C_2
REMARK    2  A    between atoms: C_5  and  N_6
REMARK    3  A    between atoms: N_6  and  C_7
REMARK    4  A    between atoms: C_12  and  C_13
REMARK    5  A    between atoms: C_13  and  O_14
REMARK                            x       y       z     vdW  Elec       q    Type
REMARK                         _______ _______ _______ _____ _____    ______ ____
ROOT
ATOM      1  N   UNL     1       9.440   1.478  25.024  0.00  0.00    -0.312 N 
ATOM      2  H   UNL     1      10.337   1.739  25.452  0.00  0.00    +0.152 HD
ENDROOT
BRANCH   1   9
ATOM      3  C   UNL     1       9.687   6.223  23.438  0.00  0.00    +0.045 C 
ATOM      4  C   UNL     1       8.909   4.974  23.758  0.00  0.00    -0.030 A 
ATOM      5  C   UNL     1       7.517   5.072  23.881  0.00  0.00    +0.006 A 
ATOM      6  C   UNL     1       6.759   3.970  24.268  0.00  0.00    +0.022 A 
ATOM      7  C   UNL     1       7.392   2.776  24.607  0.00  0.00    +0.064 A 
ATOM      8 CL   UNL     1       6.418   1.463  25.175  0.00  0.00    -0.082 Cl
ATOM      9  C   UNL     1       8.792   2.643  24.507  0.00  0.00    +0.069 A 
ATOM     10  C   UNL     1       9.525   3.728  23.970  0.00  0.00    +0.066 A 
ATOM     11 CL   UNL     1      11.186   3.490  23.504  0.00  0.00    -0.081 Cl
ENDBRANCH   1   9
BRANCH   1  12
ATOM     12  C   UNL     1       9.584   0.233  24.338  0.00  0.00    +0.045 A 
ATOM     13  C   UNL     1       9.229  -0.976  24.968  0.00  0.00    +0.080 A 
ATOM     14  C   UNL     1       9.399  -2.205  24.309  0.00  0.00    +0.017 A 
ATOM     15  C   UNL     1       9.860  -2.240  22.996  0.00  0.00    +0.001 A 
ATOM     16  C   UNL     1      10.170  -1.053  22.343  0.00  0.00    +0.002 A 
ATOM     17  C   UNL     1      10.055   0.166  23.014  0.00  0.00    +0.024 A 
BRANCH  13  18
ATOM     18  C   UNL     1       8.618  -1.025  26.319  0.00  0.00    +0.339 C 
ATOM     19  O   UNL     1       7.535  -1.538  26.540  0.00  0.00    -0.245 OA
BRANCH  18  20
ATOM     20  O   UNL     1       9.339  -0.378  27.261  0.00  0.00    -0.477 OA
ATOM     21  H   UNL     1       9.397  -0.870  28.109  0.00  0.00    +0.295 HD
ENDBRANCH  18  20
ENDBRANCH  13  18
ENDBRANCH   1  12
TORSDOF 4
ENDMDL
