MODEL 1
REMARK VINA RESULT:      -7.5      0.000      0.000
REMARK  Name = 
REMARK  9 active torsions:
REMARK  status: ('A' for Active; 'I' for Inactive)
REMARK    1  A    between atoms: C_2  and  C_4
REMARK    2  A    between atoms: C_8  and  C_9
REMARK    3  A    between atoms: C_9  and  C_10
REMARK    4  A    between atoms: C_10  and  N_12
REMARK    5  A    between atoms: C_10  and  C_26
REMARK    6  A    between atoms: N_12  and  S_13
REMARK    7  A    between atoms: S_13  and  C_16
REMARK    8  A    between atoms: C_33  and  C_35
REMARK    9  A    between atoms: C_35  and  O_36
REMARK                            x       y       z     vdW  Elec       q    Type
REMARK                         _______ _______ _______ _____ _____    ______ ____
ROOT
ATOM      1  C   UNL     1       6.011  -1.902  24.285  0.00  0.00    +0.166 C 
ENDROOT
BRANCH   1   2
ATOM      2  C   UNL     1       6.649  -0.511  24.063  0.00  0.00    +0.235 C 
ATOM      3  N   UNL     1       8.006  -0.419  23.739  0.00  0.00    -0.287 N 
ATOM      4  C   UNL     1       8.580   0.928  23.454  0.00  0.00    +0.184 C 
ATOM      5  C   UNL     1       8.978   1.058  21.976  0.00  0.00    +0.034 C 
ATOM      6  C   UNL     1       9.813  -0.121  21.476  0.00  0.00    +0.004 C 
ATOM      7  C   UNL     1       9.144  -1.452  21.815  0.00  0.00    +0.019 C 
ATOM      8  C   UNL     1       8.860  -1.540  23.311  0.00  0.00    +0.109 C 
ATOM      9  O   UNL     1       5.966   0.510  24.186  0.00  0.00    -0.274 OA
BRANCH   4  10
ATOM     10  C   UNL     1       9.741   1.258  24.410  0.00  0.00    +0.325 C 
ATOM     11  O   UNL     1      10.707   1.948  24.127  0.00  0.00    -0.249 OA
BRANCH  10  12
ATOM     12  O   UNL     1       9.550   0.765  25.660  0.00  0.00    -0.479 OA
ATOM     13  H   UNL     1       9.908   1.385  26.327  0.00  0.00    +0.295 HD
ENDBRANCH  10  12
ENDBRANCH   4  10
ENDBRANCH   1   2
BRANCH   1  14
ATOM     14  N   UNL     1       5.589  -2.466  22.988  0.00  0.00    -0.178 NA
ATOM     15  H   UNL     1       5.367  -1.809  22.238  0.00  0.00    +0.149 HD
BRANCH  14  16
ATOM     16  S   UNL     1       5.967  -4.010  22.484  0.00  0.00    +0.059 S 
ATOM     17  O   UNL     1       7.305  -4.288  22.956  0.00  0.00    -0.153 OA
ATOM     18  O   UNL     1       5.605  -4.170  21.094  0.00  0.00    -0.153 OA
BRANCH  16  19
ATOM     19  C   UNL     1       4.853  -4.996  23.447  0.00  0.00    +0.106 A 
ATOM     20  C   UNL     1       3.530  -4.577  23.622  0.00  0.00    +0.037 A 
ATOM     21  C   UNL     1       2.693  -5.271  24.503  0.00  0.00    -0.016 A 
ATOM     22  C   UNL     1       3.180  -6.429  25.159  0.00  0.00    -0.018 A 
ATOM     23  C   UNL     1       2.343  -7.107  26.058  0.00  0.00    +0.008 A 
ATOM     24  C   UNL     1       1.062  -6.628  26.336  0.00  0.00    +0.001 A 
ATOM     25  C   UNL     1       0.589  -5.486  25.694  0.00  0.00    +0.001 A 
ATOM     26  C   UNL     1       4.492  -6.867  24.915  0.00  0.00    +0.010 A 
ATOM     27  C   UNL     1       1.392  -4.821  24.770  0.00  0.00    +0.008 A 
ATOM     28  C   UNL     1       5.334  -6.148  24.071  0.00  0.00    +0.029 A 
ENDBRANCH  16  19
ENDBRANCH  14  16
ENDBRANCH   1  14
BRANCH   1  29
ATOM     29  C   UNL     1       4.922  -1.816  25.372  0.00  0.00    +0.065 C 
BRANCH  29  32
ATOM     30  C   UNL     1       5.901  -4.759  27.568  0.00  0.00    +0.065 A 
ATOM     31  C   UNL     1       5.974  -3.626  26.743  0.00  0.00    +0.019 A 
ATOM     32  C   UNL     1       4.847  -2.809  26.519  0.00  0.00    -0.045 A 
ATOM     33  C   UNL     1       3.685  -3.087  27.245  0.00  0.00    +0.004 A 
ATOM     34  C   UNL     1       3.611  -4.200  28.086  0.00  0.00    +0.001 A 
ATOM     35  C   UNL     1       4.706  -5.048  28.231  0.00  0.00    +0.016 A 
BRANCH  30  39
ATOM     36  N   UNL     1       8.042  -5.674  26.681  0.00  0.00    -0.247 N 
ATOM     37  H   UNL     1       7.778  -5.347  25.758  0.00  0.00    +0.288 HD
ATOM     38  H   UNL     1       8.660  -6.473  26.638  0.00  0.00    +0.288 HD
ATOM     39  C   UNL     1       7.049  -5.718  27.618  0.00  0.00    +0.308 C 
ATOM     40  N   UNL     1       7.113  -6.585  28.577  0.00  0.00    -0.099 NA
ATOM     41  H   UNL     1       7.984  -7.115  28.500  0.00  0.00    +0.363 HD
ENDBRANCH  30  39
ENDBRANCH  29  32
ENDBRANCH   1  29
TORSDOF 9
ENDMDL
MODEL 2
REMARK VINA RESULT:      -7.4      1.959      2.868
REMARK  Name = 
REMARK  9 active torsions:
REMARK  status: ('A' for Active; 'I' for Inactive)
REMARK    1  A    between atoms: C_2  and  C_4
REMARK    2  A    between atoms: C_8  and  C_9
REMARK    3  A    between atoms: C_9  and  C_10
REMARK    4  A    between atoms: C_10  and  N_12
REMARK    5  A    between atoms: C_10  and  C_26
REMARK    6  A    between atoms: N_12  and  S_13
REMARK    7  A    between atoms: S_13  and  C_16
REMARK    8  A    between atoms: C_33  and  C_35
REMARK    9  A    between atoms: C_35  and  O_36
REMARK                            x       y       z     vdW  Elec       q    Type
REMARK                         _______ _______ _______ _____ _____    ______ ____
ROOT
ATOM      1  C   UNL     1       8.445  -3.194  23.891  0.00  0.00    +0.166 C 
ENDROOT
BRANCH   1   2
ATOM      2  C   UNL     1       9.460  -2.149  23.374  0.00  0.00    +0.235 C 
ATOM      3  N   UNL     1       9.106  -0.796  23.351  0.00  0.00    -0.287 N 
ATOM      4  C   UNL     1      10.130   0.200  22.922  0.00  0.00    +0.184 C 
ATOM      5  C   UNL     1      10.557   1.095  24.095  0.00  0.00    +0.034 C 
ATOM      6  C   UNL     1       9.371   1.676  24.866  0.00  0.00    +0.004 C 
ATOM      7  C   UNL     1       8.382   0.580  25.260  0.00  0.00    +0.019 C 
ATOM      8  C   UNL     1       7.940  -0.207  24.030  0.00  0.00    +0.109 C 
ATOM      9  O   UNL     1      10.571  -2.510  22.973  0.00  0.00    -0.274 OA
BRANCH   4  10
ATOM     10  C   UNL     1       9.649   1.011  21.704  0.00  0.00    +0.325 C 
ATOM     11  O   UNL     1       8.769   0.663  20.933  0.00  0.00    -0.249 OA
BRANCH  10  12
ATOM     12  O   UNL     1      10.253   2.223  21.607  0.00  0.00    -0.479 OA
ATOM     13  H   UNL     1      10.049   2.767  22.393  0.00  0.00    +0.295 HD
ENDBRANCH  10  12
ENDBRANCH   4  10
ENDBRANCH   1   2
BRANCH   1  14
ATOM     14  N   UNL     1       7.146  -2.996  23.219  0.00  0.00    -0.178 NA
ATOM     15  H   UNL     1       6.844  -2.036  23.048  0.00  0.00    +0.149 HD
BRANCH  14  16
ATOM     16  S   UNL     1       6.421  -4.145  22.250  0.00  0.00    +0.059 S 
ATOM     17  O   UNL     1       7.417  -5.162  21.992  0.00  0.00    -0.153 OA
ATOM     18  O   UNL     1       5.706  -3.494  21.175  0.00  0.00    -0.153 OA
BRANCH  16  19
ATOM     19  C   UNL     1       5.221  -4.849  23.346  0.00  0.00    +0.106 A 
ATOM     20  C   UNL     1       4.194  -4.048  23.858  0.00  0.00    +0.037 A 
ATOM     21  C   UNL     1       3.337  -4.560  24.839  0.00  0.00    -0.016 A 
ATOM     22  C   UNL     1       3.482  -5.906  25.256  0.00  0.00    -0.018 A 
ATOM     23  C   UNL     1       2.634  -6.406  26.255  0.00  0.00    +0.008 A 
ATOM     24  C   UNL     1       1.687  -5.580  26.862  0.00  0.00    +0.001 A 
ATOM     25  C   UNL     1       1.552  -4.256  26.455  0.00  0.00    +0.001 A 
ATOM     26  C   UNL     1       4.479  -6.710  24.678  0.00  0.00    +0.010 A 
ATOM     27  C   UNL     1       2.359  -3.752  25.437  0.00  0.00    +0.008 A 
ATOM     28  C   UNL     1       5.356  -6.182  23.735  0.00  0.00    +0.029 A 
ENDBRANCH  16  19
ENDBRANCH  14  16
ENDBRANCH   1  14
BRANCH   1  29
ATOM     29  C   UNL     1       8.418  -3.188  25.431  0.00  0.00    +0.065 C 
BRANCH  29  32
ATOM     30  C   UNL     1       5.340  -3.479  27.642  0.00  0.00    +0.065 A 
ATOM     31  C   UNL     1       6.249  -3.032  26.669  0.00  0.00    +0.019 A 
ATOM     32  C   UNL     1       7.303  -3.853  26.220  0.00  0.00    -0.045 A 
ATOM     33  C   UNL     1       7.342  -5.174  26.678  0.00  0.00    +0.004 A 
ATOM     34  C   UNL     1       6.428  -5.633  27.629  0.00  0.00    +0.001 A 
ATOM     35  C   UNL     1       5.443  -4.783  28.128  0.00  0.00    +0.016 A 
BRANCH  30  39
ATOM     36  N   UNL     1       3.580  -2.881  29.302  0.00  0.00    -0.247 N 
ATOM     37  H   UNL     1       3.326  -3.862  29.357  0.00  0.00    +0.288 HD
ATOM     38  H   UNL     1       2.801  -2.274  29.518  0.00  0.00    +0.288 HD
ATOM     39  C   UNL     1       4.366  -2.516  28.247  0.00  0.00    +0.308 C 
ATOM     40  N   UNL     1       4.287  -1.312  27.777  0.00  0.00    -0.099 NA
ATOM     41  H   UNL     1       3.627  -0.770  28.338  0.00  0.00    +0.363 HD
ENDBRANCH  30  39
ENDBRANCH  29  32
ENDBRANCH   1  29
TORSDOF 9
ENDMDL
MODEL 3
REMARK VINA RESULT:      -7.3      2.828      8.002
REMARK  Name = 
REMARK  9 active torsions:
REMARK  status: ('A' for Active; 'I' for Inactive)
REMARK    1  A    between atoms: C_2  and  C_4
REMARK    2  A    between atoms: C_8  and  C_9
REMARK    3  A    between atoms: C_9  and  C_10
REMARK    4  A    between atoms: C_10  and  N_12
REMARK    5  A    between atoms: C_10  and  C_26
REMARK    6  A    between atoms: N_12  and  S_13
REMARK    7  A    between atoms: S_13  and  C_16
REMARK    8  A    between atoms: C_33  and  C_35
REMARK    9  A    between atoms: C_35  and  O_36
REMARK                            x       y       z     vdW  Elec       q    Type
REMARK                         _______ _______ _______ _____ _____    ______ ____
ROOT
ATOM      1  C   UNL     1       6.686  -3.033  25.771  0.00  0.00    +0.166 C 
ENDROOT
BRANCH   1   2
ATOM      2  C   UNL     1       5.807  -4.067  26.512  0.00  0.00    +0.235 C 
ATOM      3  N   UNL     1       4.698  -4.620  25.864  0.00  0.00    -0.287 N 
ATOM      4  C   UNL     1       3.912  -5.672  26.572  0.00  0.00    +0.184 C 
ATOM      5  C   UNL     1       4.065  -7.035  25.881  0.00  0.00    +0.034 C 
ATOM      6  C   UNL     1       3.843  -6.967  24.369  0.00  0.00    +0.004 C 
ATOM      7  C   UNL     1       4.689  -5.862  23.739  0.00  0.00    +0.019 C 
ATOM      8  C   UNL     1       4.416  -4.526  24.422  0.00  0.00    +0.109 C 
ATOM      9  O   UNL     1       6.078  -4.390  27.672  0.00  0.00    -0.274 OA
BRANCH   4  10
ATOM     10  C   UNL     1       2.439  -5.256  26.739  0.00  0.00    +0.325 C 
ATOM     11  O   UNL     1       2.043  -4.106  26.847  0.00  0.00    -0.249 OA
BRANCH  10  12
ATOM     12  O   UNL     1       1.584  -6.309  26.675  0.00  0.00    -0.479 OA
ATOM     13  H   UNL     1       1.315  -6.470  25.749  0.00  0.00    +0.295 HD
ENDBRANCH  10  12
ENDBRANCH   4  10
ENDBRANCH   1   2
BRANCH   1  14
ATOM     14  N   UNL     1       8.092  -3.481  25.779  0.00  0.00    -0.178 NA
ATOM     15  H   UNL     1       8.471  -3.828  26.662  0.00  0.00    +0.149 HD
BRANCH  14  16
ATOM     16  S   UNL     1       8.912  -3.979  24.415  0.00  0.00    +0.059 S 
ATOM     17  O   UNL     1       7.953  -4.666  23.578  0.00  0.00    -0.153 OA
ATOM     18  O   UNL     1      10.163  -4.596  24.797  0.00  0.00    -0.153 OA
BRANCH  16  19
ATOM     19  C   UNL     1       9.290  -2.438  23.627  0.00  0.00    +0.106 A 
ATOM     20  C   UNL     1       9.877  -1.406  24.368  0.00  0.00    +0.037 A 
ATOM     21  C   UNL     1      10.036  -0.142  23.790  0.00  0.00    -0.016 A 
ATOM     22  C   UNL     1       9.660   0.059  22.440  0.00  0.00    -0.018 A 
ATOM     23  C   UNL     1       9.802   1.335  21.873  0.00  0.00    +0.008 A 
ATOM     24  C   UNL     1      10.269   2.404  22.639  0.00  0.00    +0.001 A 
ATOM     25  C   UNL     1      10.633   2.205  23.968  0.00  0.00    +0.001 A 
ATOM     26  C   UNL     1       9.135  -1.011  21.697  0.00  0.00    +0.010 A 
ATOM     27  C   UNL     1      10.534   0.936  24.537  0.00  0.00    +0.008 A 
ATOM     28  C   UNL     1       8.937  -2.256  22.290  0.00  0.00    +0.029 A 
ENDBRANCH  16  19
ENDBRANCH  14  16
ENDBRANCH   1  14
BRANCH   1  29
ATOM     29  C   UNL     1       6.423  -1.620  26.327  0.00  0.00    +0.065 C 
BRANCH  29  32
ATOM     30  C   UNL     1       7.165   2.039  25.616  0.00  0.00    +0.065 A 
ATOM     31  C   UNL     1       7.161   0.768  26.214  0.00  0.00    +0.019 A 
ATOM     32  C   UNL     1       6.705  -0.368  25.515  0.00  0.00    -0.045 A 
ATOM     33  C   UNL     1       6.377  -0.216  24.163  0.00  0.00    +0.004 A 
ATOM     34  C   UNL     1       6.401   1.042  23.556  0.00  0.00    +0.001 A 
ATOM     35  C   UNL     1       6.772   2.171  24.283  0.00  0.00    +0.016 A 
BRANCH  30  39
ATOM     36  N   UNL     1       7.756   4.447  25.864  0.00  0.00    -0.247 N 
ATOM     37  H   UNL     1       8.223   4.406  24.965  0.00  0.00    +0.288 HD
ATOM     38  H   UNL     1       8.152   5.157  26.466  0.00  0.00    +0.288 HD
ATOM     39  C   UNL     1       7.454   3.249  26.448  0.00  0.00    +0.308 C 
ATOM     40  N   UNL     1       7.393   3.165  27.738  0.00  0.00    -0.099 NA
ATOM     41  H   UNL     1       7.552   4.086  28.149  0.00  0.00    +0.363 HD
ENDBRANCH  30  39
ENDBRANCH  29  32
ENDBRANCH   1  29
TORSDOF 9
ENDMDL
MODEL 4
REMARK VINA RESULT:      -7.3      1.569      2.299
REMARK  Name = 
REMARK  9 active torsions:
REMARK  status: ('A' for Active; 'I' for Inactive)
REMARK    1  A    between atoms: C_2  and  C_4
REMARK    2  A    between atoms: C_8  and  C_9
REMARK    3  A    between atoms: C_9  and  C_10
REMARK    4  A    between atoms: C_10  and  N_12
REMARK    5  A    between atoms: C_10  and  C_26
REMARK    6  A    between atoms: N_12  and  S_13
REMARK    7  A    between atoms: S_13  and  C_16
REMARK    8  A    between atoms: C_33  and  C_35
REMARK    9  A    between atoms: C_35  and  O_36
REMARK                            x       y       z     vdW  Elec       q    Type
REMARK                         _______ _______ _______ _____ _____    ______ ____
ROOT
ATOM      1  C   UNL     1       7.863  -3.432  24.704  0.00  0.00    +0.166 C 
ENDROOT
BRANCH   1   2
ATOM      2  C   UNL     1       9.065  -2.647  24.131  0.00  0.00    +0.235 C 
ATOM      3  N   UNL     1       8.915  -1.293  23.813  0.00  0.00    -0.287 N 
ATOM      4  C   UNL     1      10.110  -0.539  23.334  0.00  0.00    +0.184 C 
ATOM      5  C   UNL     1      10.548   0.514  24.363  0.00  0.00    +0.034 C 
ATOM      6  C   UNL     1       9.391   1.381  24.861  0.00  0.00    +0.004 C 
ATOM      7  C   UNL     1       8.219   0.518  25.328  0.00  0.00    +0.019 C 
ATOM      8  C   UNL     1       7.787  -0.439  24.222  0.00  0.00    +0.109 C 
ATOM      9  O   UNL     1      10.143  -3.217  23.943  0.00  0.00    -0.274 OA
BRANCH   4  10
ATOM     10  C   UNL     1       9.871   0.064  21.937  0.00  0.00    +0.325 C 
ATOM     11  O   UNL     1      10.007   1.243  21.649  0.00  0.00    -0.249 OA
BRANCH  10  12
ATOM     12  O   UNL     1       9.563  -0.874  21.004  0.00  0.00    -0.479 OA
ATOM     13  H   UNL     1      10.012  -0.670  20.159  0.00  0.00    +0.295 HD
ENDBRANCH  10  12
ENDBRANCH   4  10
ENDBRANCH   1   2
BRANCH   1  14
ATOM     14  N   UNL     1       6.683  -3.235  23.839  0.00  0.00    -0.178 NA
ATOM     15  H   UNL     1       6.381  -2.275  23.665  0.00  0.00    +0.149 HD
BRANCH  14  16
ATOM     16  S   UNL     1       6.165  -4.352  22.714  0.00  0.00    +0.059 S 
ATOM     17  O   UNL     1       7.243  -5.299  22.537  0.00  0.00    -0.153 OA
ATOM     18  O   UNL     1       5.565  -3.668  21.590  0.00  0.00    -0.153 OA
BRANCH  16  19
ATOM     19  C   UNL     1       4.870  -5.185  23.590  0.00  0.00    +0.106 A 
ATOM     20  C   UNL     1       3.621  -4.570  23.733  0.00  0.00    +0.037 A 
ATOM     21  C   UNL     1       2.649  -5.156  24.550  0.00  0.00    -0.016 A 
ATOM     22  C   UNL     1       2.920  -6.399  25.174  0.00  0.00    -0.018 A 
ATOM     23  C   UNL     1       1.948  -6.970  26.010  0.00  0.00    +0.008 A 
ATOM     24  C   UNL     1       0.747  -6.305  26.259  0.00  0.00    +0.001 A 
ATOM     25  C   UNL     1       0.486  -5.081  25.650  0.00  0.00    +0.001 A 
ATOM     26  C   UNL     1       4.157  -7.029  24.961  0.00  0.00    +0.010 A 
ATOM     27  C   UNL     1       1.423  -4.517  24.787  0.00  0.00    +0.008 A 
ATOM     28  C   UNL     1       5.138  -6.420  24.182  0.00  0.00    +0.029 A 
ENDBRANCH  16  19
ENDBRANCH  14  16
ENDBRANCH   1  14
BRANCH   1  29
ATOM     29  C   UNL     1       7.672  -3.092  26.195  0.00  0.00    +0.065 C 
BRANCH  29  32
ATOM     30  C   UNL     1       5.284  -5.339  28.117  0.00  0.00    +0.065 A 
ATOM     31  C   UNL     1       6.459  -4.740  27.636  0.00  0.00    +0.019 A 
ATOM     32  C   UNL     1       6.427  -3.501  26.963  0.00  0.00    -0.045 A 
ATOM     33  C   UNL     1       5.205  -2.824  26.900  0.00  0.00    +0.004 A 
ATOM     34  C   UNL     1       4.035  -3.404  27.396  0.00  0.00    +0.001 A 
ATOM     35  C   UNL     1       4.068  -4.667  27.983  0.00  0.00    +0.016 A 
BRANCH  30  39
ATOM     36  N   UNL     1       4.182  -7.480  28.756  0.00  0.00    -0.247 N 
ATOM     37  H   UNL     1       3.328  -6.965  28.940  0.00  0.00    +0.288 HD
ATOM     38  H   UNL     1       4.244  -8.323  29.311  0.00  0.00    +0.288 HD
ATOM     39  C   UNL     1       5.325  -6.742  28.636  0.00  0.00    +0.308 C 
ATOM     40  N   UNL     1       6.463  -7.270  28.955  0.00  0.00    -0.099 NA
ATOM     41  H   UNL     1       6.323  -8.244  29.227  0.00  0.00    +0.363 HD
ENDBRANCH  30  39
ENDBRANCH  29  32
ENDBRANCH   1  29
TORSDOF 9
ENDMDL
MODEL 5
REMARK VINA RESULT:      -7.2      2.847      7.658
REMARK  Name = 
REMARK  9 active torsions:
REMARK  status: ('A' for Active; 'I' for Inactive)
REMARK    1  A    between atoms: C_2  and  C_4
REMARK    2  A    between atoms: C_8  and  C_9
REMARK    3  A    between atoms: C_9  and  C_10
REMARK    4  A    between atoms: C_10  and  N_12
REMARK    5  A    between atoms: C_10  and  C_26
REMARK    6  A    between atoms: N_12  and  S_13
REMARK    7  A    between atoms: S_13  and  C_16
REMARK    8  A    between atoms: C_33  and  C_35
REMARK    9  A    between atoms: C_35  and  O_36
REMARK                            x       y       z     vdW  Elec       q    Type
REMARK                         _______ _______ _______ _____ _____    ______ ____
ROOT
ATOM      1  C   UNL     1       4.802  -2.726  25.139  0.00  0.00    +0.166 C 
ENDROOT
BRANCH   1   2
ATOM      2  C   UNL     1       3.771  -3.878  25.141  0.00  0.00    +0.235 C 
ATOM      3  N   UNL     1       4.105  -5.101  25.730  0.00  0.00    -0.287 N 
ATOM      4  C   UNL     1       3.066  -6.170  25.787  0.00  0.00    +0.184 C 
ATOM      5  C   UNL     1       2.627  -6.437  27.235  0.00  0.00    +0.034 C 
ATOM      6  C   UNL     1       3.805  -6.626  28.192  0.00  0.00    +0.004 C 
ATOM      7  C   UNL     1       4.811  -5.484  28.057  0.00  0.00    +0.019 C 
ATOM      8  C   UNL     1       5.263  -5.340  26.608  0.00  0.00    +0.109 C 
ATOM      9  O   UNL     1       2.666  -3.719  24.614  0.00  0.00    -0.274 OA
BRANCH   4  10
ATOM     10  C   UNL     1       3.533  -7.448  25.066  0.00  0.00    +0.325 C 
ATOM     11  O   UNL     1       4.464  -7.508  24.279  0.00  0.00    -0.249 OA
BRANCH  10  12
ATOM     12  O   UNL     1       2.848  -8.553  25.456  0.00  0.00    -0.479 OA
ATOM     13  H   UNL     1       1.953  -8.306  25.764  0.00  0.00    +0.295 HD
ENDBRANCH  10  12
ENDBRANCH   4  10
ENDBRANCH   1   2
BRANCH   1  14
ATOM     14  N   UNL     1       4.167  -1.491  25.641  0.00  0.00    -0.178 NA
ATOM     15  H   UNL     1       3.185  -1.337  25.405  0.00  0.00    +0.149 HD
BRANCH  14  16
ATOM     16  S   UNL     1       4.716  -0.642  26.966  0.00  0.00    +0.059 S 
ATOM     17  O   UNL     1       4.769  -1.575  28.069  0.00  0.00    -0.153 OA
ATOM     18  O   UNL     1       4.005   0.613  27.069  0.00  0.00    -0.153 OA
BRANCH  16  19
ATOM     19  C   UNL     1       6.387  -0.276  26.505  0.00  0.00    +0.106 A 
ATOM     20  C   UNL     1       6.641   0.680  25.515  0.00  0.00    +0.037 A 
ATOM     21  C   UNL     1       7.945   0.860  25.043  0.00  0.00    -0.016 A 
ATOM     22  C   UNL     1       9.004   0.116  25.619  0.00  0.00    -0.018 A 
ATOM     23  C   UNL     1      10.307   0.286  25.126  0.00  0.00    +0.008 A 
ATOM     24  C   UNL     1      10.553   1.145  24.055  0.00  0.00    +0.001 A 
ATOM     25  C   UNL     1       9.510   1.870  23.486  0.00  0.00    +0.001 A 
ATOM     26  C   UNL     1       8.732  -0.790  26.658  0.00  0.00    +0.010 A 
ATOM     27  C   UNL     1       8.216   1.743  23.987  0.00  0.00    +0.008 A 
ATOM     28  C   UNL     1       7.426  -0.997  27.094  0.00  0.00    +0.029 A 
ENDBRANCH  16  19
ENDBRANCH  14  16
ENDBRANCH   1  14
BRANCH   1  29
ATOM     29  C   UNL     1       5.480  -2.625  23.760  0.00  0.00    +0.065 C 
BRANCH  29  32
ATOM     30  C   UNL     1       8.998  -3.835  24.537  0.00  0.00    +0.065 A 
ATOM     31  C   UNL     1       7.600  -3.778  24.423  0.00  0.00    +0.019 A 
ATOM     32  C   UNL     1       6.972  -2.842  23.576  0.00  0.00    -0.045 A 
ATOM     33  C   UNL     1       7.786  -2.056  22.754  0.00  0.00    +0.004 A 
ATOM     34  C   UNL     1       9.178  -2.123  22.846  0.00  0.00    +0.001 A 
ATOM     35  C   UNL     1       9.785  -2.992  23.750  0.00  0.00    +0.016 A 
BRANCH  30  39
ATOM     36  N   UNL     1       9.182  -4.644  26.887  0.00  0.00    -0.247 N 
ATOM     37  H   UNL     1       8.799  -3.759  27.202  0.00  0.00    +0.288 HD
ATOM     38  H   UNL     1       9.778  -5.070  27.584  0.00  0.00    +0.288 HD
ATOM     39  C   UNL     1       9.622  -4.691  25.595  0.00  0.00    +0.308 C 
ATOM     40  N   UNL     1      10.578  -5.503  25.274  0.00  0.00    -0.099 NA
ATOM     41  H   UNL     1      10.845  -6.054  26.091  0.00  0.00    +0.363 HD
ENDBRANCH  30  39
ENDBRANCH  29  32
ENDBRANCH   1  29
TORSDOF 9
ENDMDL
MODEL 6
REMARK VINA RESULT:      -7.2      2.717      8.407
REMARK  Name = 
REMARK  9 active torsions:
REMARK  status: ('A' for Active; 'I' for Inactive)
REMARK    1  A    between atoms: C_2  and  C_4
REMARK    2  A    between atoms: C_8  and  C_9
REMARK    3  A    between atoms: C_9  and  C_10
REMARK    4  A    between atoms: C_10  and  N_12
REMARK    5  A    between atoms: C_10  and  C_26
REMARK    6  A    between atoms: N_12  and  S_13
REMARK    7  A    between atoms: S_13  and  C_16
REMARK    8  A    between atoms: C_33  and  C_35
REMARK    9  A    between atoms: C_35  and  O_36
REMARK                            x       y       z     vdW  Elec       q    Type
REMARK                         _______ _______ _______ _____ _____    ______ ____
ROOT
ATOM      1  C   UNL     1       5.860  -2.680  24.478  0.00  0.00    +0.166 C 
ENDROOT
BRANCH   1   2
ATOM      2  C   UNL     1       5.013  -3.669  23.644  0.00  0.00    +0.235 C 
ATOM      3  N   UNL     1       4.138  -4.545  24.294  0.00  0.00    -0.287 N 
ATOM      4  C   UNL     1       3.276  -5.435  23.463  0.00  0.00    +0.184 C 
ATOM      5  C   UNL     1       1.796  -5.043  23.585  0.00  0.00    +0.034 C 
ATOM      6  C   UNL     1       1.341  -4.869  25.035  0.00  0.00    +0.004 C 
ATOM      7  C   UNL     1       2.285  -3.943  25.800  0.00  0.00    +0.019 C 
ATOM      8  C   UNL     1       3.722  -4.448  25.703  0.00  0.00    +0.109 C 
ATOM      9  O   UNL     1       5.122  -3.692  22.415  0.00  0.00    -0.274 OA
BRANCH   4  10
ATOM     10  C   UNL     1       3.523  -6.920  23.789  0.00  0.00    +0.325 C 
ATOM     11  O   UNL     1       4.467  -7.348  24.433  0.00  0.00    -0.249 OA
BRANCH  10  12
ATOM     12  O   UNL     1       2.524  -7.728  23.351  0.00  0.00    -0.479 OA
ATOM     13  H   UNL     1       2.882  -8.417  22.756  0.00  0.00    +0.295 HD
ENDBRANCH  10  12
ENDBRANCH   4  10
ENDBRANCH   1   2
BRANCH   1  14
ATOM     14  N   UNL     1       5.117  -1.415  24.651  0.00  0.00    -0.178 NA
ATOM     15  H   UNL     1       4.342  -1.233  24.011  0.00  0.00    +0.149 HD
BRANCH  14  16
ATOM     16  S   UNL     1       5.067  -0.560  26.081  0.00  0.00    +0.059 S 
ATOM     17  O   UNL     1       5.926  -1.255  27.014  0.00  0.00    -0.153 OA
ATOM     18  O   UNL     1       3.696  -0.239  26.409  0.00  0.00    -0.153 OA
BRANCH  16  19
ATOM     19  C   UNL     1       5.883   0.949  25.639  0.00  0.00    +0.106 A 
ATOM     20  C   UNL     1       5.613   1.546  24.402  0.00  0.00    +0.037 A 
ATOM     21  C   UNL     1       6.365   2.651  23.987  0.00  0.00    -0.016 A 
ATOM     22  C   UNL     1       7.348   3.190  24.853  0.00  0.00    -0.018 A 
ATOM     23  C   UNL     1       8.113   4.284  24.421  0.00  0.00    +0.008 A 
ATOM     24  C   UNL     1       7.939   4.811  23.141  0.00  0.00    +0.001 A 
ATOM     25  C   UNL     1       6.977   4.275  22.290  0.00  0.00    +0.001 A 
ATOM     26  C   UNL     1       7.554   2.612  26.117  0.00  0.00    +0.010 A 
ATOM     27  C   UNL     1       6.182   3.213  22.715  0.00  0.00    +0.008 A 
ATOM     28  C   UNL     1       6.833   1.487  26.507  0.00  0.00    +0.029 A 
ENDBRANCH  16  19
ENDBRANCH  14  16
ENDBRANCH   1  14
BRANCH   1  29
ATOM     29  C   UNL     1       7.273  -2.557  23.878  0.00  0.00    +0.065 C 
BRANCH  29  32
ATOM     30  C   UNL     1       9.216   0.605  23.059  0.00  0.00    +0.065 A 
ATOM     31  C   UNL     1       8.225  -0.389  23.067  0.00  0.00    +0.019 A 
ATOM     32  C   UNL     1       8.145  -1.335  24.110  0.00  0.00    -0.045 A 
ATOM     33  C   UNL     1       9.002  -1.176  25.203  0.00  0.00    +0.004 A 
ATOM     34  C   UNL     1       9.976  -0.174  25.213  0.00  0.00    +0.001 A 
ATOM     35  C   UNL     1      10.100   0.700  24.136  0.00  0.00    +0.016 A 
BRANCH  30  39
ATOM     36  N   UNL     1       8.594   1.313  20.752  0.00  0.00    -0.247 N 
ATOM     37  H   UNL     1       8.215   0.387  20.590  0.00  0.00    +0.288 HD
ATOM     38  H   UNL     1       8.905   1.752  19.896  0.00  0.00    +0.288 HD
ATOM     39  C   UNL     1       9.404   1.457  21.843  0.00  0.00    +0.308 C 
ATOM     40  N   UNL     1      10.334   2.358  21.834  0.00  0.00    -0.099 NA
ATOM     41  H   UNL     1      10.286   2.889  20.963  0.00  0.00    +0.363 HD
ENDBRANCH  30  39
ENDBRANCH  29  32
ENDBRANCH   1  29
TORSDOF 9
ENDMDL
MODEL 7
REMARK VINA RESULT:      -7.1      2.738      7.872
REMARK  Name = 
REMARK  9 active torsions:
REMARK  status: ('A' for Active; 'I' for Inactive)
REMARK    1  A    between atoms: C_2  and  C_4
REMARK    2  A    between atoms: C_8  and  C_9
REMARK    3  A    between atoms: C_9  and  C_10
REMARK    4  A    between atoms: C_10  and  N_12
REMARK    5  A    between atoms: C_10  and  C_26
REMARK    6  A    between atoms: N_12  and  S_13
REMARK    7  A    between atoms: S_13  and  C_16
REMARK    8  A    between atoms: C_33  and  C_35
REMARK    9  A    between atoms: C_35  and  O_36
REMARK                            x       y       z     vdW  Elec       q    Type
REMARK                         _______ _______ _______ _____ _____    ______ ____
ROOT
ATOM      1  C   UNL     1       6.013  -3.532  24.784  0.00  0.00    +0.166 C 
ENDROOT
BRANCH   1   2
ATOM      2  C   UNL     1       5.124  -4.654  25.369  0.00  0.00    +0.235 C 
ATOM      3  N   UNL     1       5.033  -4.809  26.756  0.00  0.00    -0.287 N 
ATOM      4  C   UNL     1       4.109  -5.848  27.296  0.00  0.00    +0.184 C 
ATOM      5  C   UNL     1       2.926  -5.205  28.035  0.00  0.00    +0.034 C 
ATOM      6  C   UNL     1       3.358  -4.136  29.040  0.00  0.00    +0.004 C 
ATOM      7  C   UNL     1       4.300  -3.122  28.392  0.00  0.00    +0.019 C 
ATOM      8  C   UNL     1       5.492  -3.831  27.757  0.00  0.00    +0.109 C 
ATOM      9  O   UNL     1       4.510  -5.414  24.614  0.00  0.00    -0.274 OA
BRANCH   4  10
ATOM     10  C   UNL     1       4.862  -6.873  28.165  0.00  0.00    +0.325 C 
ATOM     11  O   UNL     1       6.072  -7.035  28.168  0.00  0.00    -0.249 OA
BRANCH  10  12
ATOM     12  O   UNL     1       4.043  -7.547  29.013  0.00  0.00    -0.479 OA
ATOM     13  H   UNL     1       4.198  -8.510  28.938  0.00  0.00    +0.295 HD
ENDBRANCH  10  12
ENDBRANCH   4  10
ENDBRANCH   1   2
BRANCH   1  14
ATOM     14  N   UNL     1       7.380  -3.648  25.330  0.00  0.00    -0.178 NA
ATOM     15  H   UNL     1       7.475  -3.789  26.337  0.00  0.00    +0.149 HD
BRANCH  14  16
ATOM     16  S   UNL     1       8.701  -4.114  24.425  0.00  0.00    +0.059 S 
ATOM     17  O   UNL     1       8.209  -4.999  23.393  0.00  0.00    -0.153 OA
ATOM     18  O   UNL     1       9.781  -4.501  25.305  0.00  0.00    -0.153 OA
BRANCH  16  19
ATOM     19  C   UNL     1       9.165  -2.595  23.640  0.00  0.00    +0.106 A 
ATOM     20  C   UNL     1       9.784  -1.588  24.388  0.00  0.00    +0.037 A 
ATOM     21  C   UNL     1      10.013  -0.335  23.809  0.00  0.00    -0.016 A 
ATOM     22  C   UNL     1       9.672  -0.123  22.451  0.00  0.00    -0.018 A 
ATOM     23  C   UNL     1       9.884   1.143  21.883  0.00  0.00    +0.008 A 
ATOM     24  C   UNL     1      10.386   2.192  22.655  0.00  0.00    +0.001 A 
ATOM     25  C   UNL     1      10.714   1.982  23.991  0.00  0.00    +0.001 A 
ATOM     26  C   UNL     1       9.113  -1.171  21.702  0.00  0.00    +0.010 A 
ATOM     27  C   UNL     1      10.546   0.722  24.562  0.00  0.00    +0.008 A 
ATOM     28  C   UNL     1       8.846  -2.402  22.295  0.00  0.00    +0.029 A 
ENDBRANCH  16  19
ENDBRANCH  14  16
ENDBRANCH   1  14
BRANCH   1  29
ATOM     29  C   UNL     1       5.326  -2.165  24.964  0.00  0.00    +0.065 C 
BRANCH  29  32
ATOM     30  C   UNL     1       7.040   1.011  26.156  0.00  0.00    +0.065 A 
ATOM     31  C   UNL     1       6.585  -0.316  26.086  0.00  0.00    +0.019 A 
ATOM     32  C   UNL     1       6.096  -0.858  24.880  0.00  0.00    -0.045 A 
ATOM     33  C   UNL     1       6.197  -0.078  23.724  0.00  0.00    +0.004 A 
ATOM     34  C   UNL     1       6.670   1.235  23.782  0.00  0.00    +0.001 A 
ATOM     35  C   UNL     1       7.070   1.788  24.997  0.00  0.00    +0.016 A 
BRANCH  30  39
ATOM     36  N   UNL     1       7.686   0.836  28.557  0.00  0.00    -0.247 N 
ATOM     37  H   UNL     1       7.284  -0.095  28.578  0.00  0.00    +0.288 HD
ATOM     38  H   UNL     1       7.669   1.279  29.465  0.00  0.00    +0.288 HD
ATOM     39  C   UNL     1       7.353   1.618  27.488  0.00  0.00    +0.308 C 
ATOM     40  N   UNL     1       7.329   2.906  27.622  0.00  0.00    -0.099 NA
ATOM     41  H   UNL     1       7.626   3.156  28.566  0.00  0.00    +0.363 HD
ENDBRANCH  30  39
ENDBRANCH  29  32
ENDBRANCH   1  29
TORSDOF 9
ENDMDL
MODEL 8
REMARK VINA RESULT:      -7.0      2.861      4.072
REMARK  Name = 
REMARK  9 active torsions:
REMARK  status: ('A' for Active; 'I' for Inactive)
REMARK    1  A    between atoms: C_2  and  C_4
REMARK    2  A    between atoms: C_8  and  C_9
REMARK    3  A    between atoms: C_9  and  C_10
REMARK    4  A    between atoms: C_10  and  N_12
REMARK    5  A    between atoms: C_10  and  C_26
REMARK    6  A    between atoms: N_12  and  S_13
REMARK    7  A    between atoms: S_13  and  C_16
REMARK    8  A    between atoms: C_33  and  C_35
REMARK    9  A    between atoms: C_35  and  O_36
REMARK                            x       y       z     vdW  Elec       q    Type
REMARK                         _______ _______ _______ _____ _____    ______ ____
ROOT
ATOM      1  C   UNL     1       7.240  -0.478  26.131  0.00  0.00    +0.166 C 
ENDROOT
BRANCH   1   2
ATOM      2  C   UNL     1       7.764   0.927  25.755  0.00  0.00    +0.235 C 
ATOM      3  N   UNL     1       8.306   1.143  24.484  0.00  0.00    -0.287 N 
ATOM      4  C   UNL     1       8.734   2.525  24.119  0.00  0.00    +0.184 C 
ATOM      5  C   UNL     1       7.832   3.111  23.022  0.00  0.00    +0.034 C 
ATOM      6  C   UNL     1       7.633   2.161  21.841  0.00  0.00    +0.004 C 
ATOM      7  C   UNL     1       7.198   0.776  22.317  0.00  0.00    +0.019 C 
ATOM      8  C   UNL     1       8.189   0.226  23.337  0.00  0.00    +0.109 C 
ATOM      9  O   UNL     1       7.715   1.846  26.578  0.00  0.00    -0.274 OA
BRANCH   4  10
ATOM     10  C   UNL     1      10.227   2.571  23.745  0.00  0.00    +0.325 C 
ATOM     11  O   UNL     1      11.050   1.721  24.041  0.00  0.00    -0.249 OA
BRANCH  10  12
ATOM     12  O   UNL     1      10.541   3.635  22.962  0.00  0.00    -0.479 OA
ATOM     13  H   UNL     1      11.481   3.877  23.081  0.00  0.00    +0.295 HD
ENDBRANCH  10  12
ENDBRANCH   4  10
ENDBRANCH   1   2
BRANCH   1  14
ATOM     14  N   UNL     1       6.246  -0.362  27.216  0.00  0.00    -0.178 NA
ATOM     15  H   UNL     1       6.424   0.329  27.947  0.00  0.00    +0.149 HD
BRANCH  14  16
ATOM     16  S   UNL     1       4.654  -0.836  27.066  0.00  0.00    +0.059 S 
ATOM     17  O   UNL     1       4.102  -0.098  25.952  0.00  0.00    -0.153 OA
ATOM     18  O   UNL     1       4.021  -0.831  28.366  0.00  0.00    -0.153 OA
BRANCH  16  19
ATOM     19  C   UNL     1       4.816  -2.523  26.553  0.00  0.00    +0.106 A 
ATOM     20  C   UNL     1       4.404  -2.901  25.270  0.00  0.00    +0.037 A 
ATOM     21  C   UNL     1       4.390  -4.255  24.916  0.00  0.00    -0.016 A 
ATOM     22  C   UNL     1       4.853  -5.221  25.842  0.00  0.00    -0.018 A 
ATOM     23  C   UNL     1       4.815  -6.579  25.489  0.00  0.00    +0.008 A 
ATOM     24  C   UNL     1       4.290  -6.978  24.260  0.00  0.00    +0.001 A 
ATOM     25  C   UNL     1       3.830  -6.027  23.354  0.00  0.00    +0.001 A 
ATOM     26  C   UNL     1       5.325  -4.810  27.100  0.00  0.00    +0.010 A 
ATOM     27  C   UNL     1       3.894  -4.671  23.672  0.00  0.00    +0.008 A 
ATOM     28  C   UNL     1       5.296  -3.466  27.463  0.00  0.00    +0.029 A 
ENDBRANCH  16  19
ENDBRANCH  14  16
ENDBRANCH   1  14
BRANCH   1  29
ATOM     29  C   UNL     1       8.422  -1.430  26.395  0.00  0.00    +0.065 C 
BRANCH  29  32
ATOM     30  C   UNL     1       7.876  -4.121  23.767  0.00  0.00    +0.065 A 
ATOM     31  C   UNL     1       8.088  -2.876  24.380  0.00  0.00    +0.019 A 
ATOM     32  C   UNL     1       8.537  -2.783  25.713  0.00  0.00    -0.045 A 
ATOM     33  C   UNL     1       8.889  -3.967  26.368  0.00  0.00    +0.004 A 
ATOM     34  C   UNL     1       8.702  -5.209  25.757  0.00  0.00    +0.001 A 
ATOM     35  C   UNL     1       8.176  -5.290  24.469  0.00  0.00    +0.016 A 
BRANCH  30  39
ATOM     36  N   UNL     1       7.101  -5.369  21.755  0.00  0.00    -0.247 N 
ATOM     37  H   UNL     1       7.839  -6.045  21.912  0.00  0.00    +0.288 HD
ATOM     38  H   UNL     1       6.840  -5.310  20.779  0.00  0.00    +0.288 HD
ATOM     39  C   UNL     1       7.203  -4.187  22.432  0.00  0.00    +0.308 C 
ATOM     40  N   UNL     1       6.692  -3.112  21.924  0.00  0.00    -0.099 NA
ATOM     41  H   UNL     1       6.218  -3.341  21.048  0.00  0.00    +0.363 HD
ENDBRANCH  30  39
ENDBRANCH  29  32
ENDBRANCH   1  29
TORSDOF 9
ENDMDL
MODEL 9
REMARK VINA RESULT:      -7.0      3.410      7.177
REMARK  Name = 
REMARK  9 active torsions:
REMARK  status: ('A' for Active; 'I' for Inactive)
REMARK    1  A    between atoms: C_2  and  C_4
REMARK    2  A    between atoms: C_8  and  C_9
REMARK    3  A    between atoms: C_9  and  C_10
REMARK    4  A    between atoms: C_10  and  N_12
REMARK    5  A    between atoms: C_10  and  C_26
REMARK    6  A    between atoms: N_12  and  S_13
REMARK    7  A    between atoms: S_13  and  C_16
REMARK    8  A    between atoms: C_33  and  C_35
REMARK    9  A    between atoms: C_35  and  O_36
REMARK                            x       y       z     vdW  Elec       q    Type
REMARK                         _______ _______ _______ _____ _____    ______ ____
ROOT
ATOM      1  C   UNL     1       5.974  -0.302  25.192  0.00  0.00    +0.166 C 
ENDROOT
BRANCH   1   2
ATOM      2  C   UNL     1       7.513  -0.448  25.147  0.00  0.00    +0.235 C 
ATOM      3  N   UNL     1       8.179  -0.356  23.921  0.00  0.00    -0.287 N 
ATOM      4  C   UNL     1       9.669  -0.423  23.914  0.00  0.00    +0.184 C 
ATOM      5  C   UNL     1      10.281   0.925  23.506  0.00  0.00    +0.034 C 
ATOM      6  C   UNL     1       9.653   1.509  22.240  0.00  0.00    +0.004 C 
ATOM      7  C   UNL     1       8.129   1.535  22.344  0.00  0.00    +0.019 C 
ATOM      8  C   UNL     1       7.592   0.143  22.666  0.00  0.00    +0.109 C 
ATOM      9  O   UNL     1       8.145  -0.657  26.187  0.00  0.00    -0.274 OA
BRANCH   4  10
ATOM     10  C   UNL     1      10.175  -1.589  23.045  0.00  0.00    +0.325 C 
ATOM     11  O   UNL     1      10.546  -1.489  21.886  0.00  0.00    -0.249 OA
BRANCH  10  12
ATOM     12  O   UNL     1      10.250  -2.760  23.727  0.00  0.00    -0.479 OA
ATOM     13  H   UNL     1      11.159  -3.118  23.687  0.00  0.00    +0.295 HD
ENDBRANCH  10  12
ENDBRANCH   4  10
ENDBRANCH   1   2
BRANCH   1  14
ATOM     14  N   UNL     1       5.595   0.610  26.290  0.00  0.00    -0.178 NA
ATOM     15  H   UNL     1       6.147   0.569  27.148  0.00  0.00    +0.149 HD
BRANCH  14  16
ATOM     16  S   UNL     1       4.747   2.028  26.063  0.00  0.00    +0.059 S 
ATOM     17  O   UNL     1       4.341   2.486  27.373  0.00  0.00    -0.153 OA
ATOM     18  O   UNL     1       3.793   1.858  24.990  0.00  0.00    -0.153 OA
BRANCH  16  19
ATOM     19  C   UNL     1       6.012   3.127  25.489  0.00  0.00    +0.106 A 
ATOM     20  C   UNL     1       5.727   4.038  24.465  0.00  0.00    +0.037 A 
ATOM     21  C   UNL     1       6.760   4.799  23.907  0.00  0.00    -0.016 A 
ATOM     22  C   UNL     1       8.072   4.683  24.430  0.00  0.00    -0.018 A 
ATOM     23  C   UNL     1       9.107   5.433  23.851  0.00  0.00    +0.008 A 
ATOM     24  C   UNL     1       8.859   6.252  22.749  0.00  0.00    +0.001 A 
ATOM     25  C   UNL     1       7.571   6.359  22.233  0.00  0.00    +0.001 A 
ATOM     26  C   UNL     1       8.319   3.810  25.503  0.00  0.00    +0.010 A 
ATOM     27  C   UNL     1       6.523   5.651  22.819  0.00  0.00    +0.008 A 
ATOM     28  C   UNL     1       7.296   3.023  26.025  0.00  0.00    +0.029 A 
ENDBRANCH  16  19
ENDBRANCH  14  16
ENDBRANCH   1  14
BRANCH   1  29
ATOM     29  C   UNL     1       5.311  -1.692  25.208  0.00  0.00    +0.065 C 
BRANCH  29  32
ATOM     30  C   UNL     1       7.600  -4.676  24.657  0.00  0.00    +0.065 A 
ATOM     31  C   UNL     1       6.758  -3.733  25.269  0.00  0.00    +0.019 A 
ATOM     32  C   UNL     1       5.928  -2.888  24.504  0.00  0.00    -0.045 A 
ATOM     33  C   UNL     1       5.871  -3.104  23.123  0.00  0.00    +0.004 A 
ATOM     34  C   UNL     1       6.689  -4.056  22.510  0.00  0.00    +0.001 A 
ATOM     35  C   UNL     1       7.568  -4.825  23.270  0.00  0.00    +0.016 A 
BRANCH  30  39
ATOM     36  N   UNL     1       8.317  -5.850  26.735  0.00  0.00    -0.247 N 
ATOM     37  H   UNL     1       7.635  -5.308  27.254  0.00  0.00    +0.288 HD
ATOM     38  H   UNL     1       9.097  -6.133  27.313  0.00  0.00    +0.288 HD
ATOM     39  C   UNL     1       8.616  -5.407  25.478  0.00  0.00    +0.308 C 
ATOM     40  N   UNL     1       9.787  -5.642  24.979  0.00  0.00    -0.099 NA
ATOM     41  H   UNL     1      10.333  -6.201  25.637  0.00  0.00    +0.363 HD
ENDBRANCH  30  39
ENDBRANCH  29  32
ENDBRANCH   1  29
TORSDOF 9
ENDMDL
