MODEL 1
REMARK VINA RESULT:      -5.4      0.000      0.000
REMARK  Name = 
REMARK  5 active torsions:
REMARK  status: ('A' for Active; 'I' for Inactive)
REMARK    1  A    between atoms: O_1  and  C_2
REMARK    2  A    between atoms: C_2  and  C_4
REMARK    3  A    between atoms: N_6  and  C_7
REMARK    4  A    between atoms: C_8  and  C_13
REMARK    5  A    between atoms: C_13  and  O_14
REMARK                            x       y       z     vdW  Elec       q    Type
REMARK                         _______ _______ _______ _____ _____    ______ ____
ROOT
ATOM      1  C   UNL     1       8.073  -2.910  23.735  0.00  0.00    +0.048 A 
ATOM      2  C   UNL     1       7.195  -2.718  22.661  0.00  0.00    +0.024 A 
ATOM      3  C   UNL     1       6.653  -3.810  21.979  0.00  0.00    +0.002 A 
ATOM      4  C   UNL     1       6.973  -5.108  22.370  0.00  0.00    +0.001 A 
ATOM      5  C   UNL     1       7.842  -5.318  23.439  0.00  0.00    +0.017 A 
ATOM      6  C   UNL     1       8.392  -4.222  24.126  0.00  0.00    +0.080 A 
ENDROOT
BRANCH   1   8
ATOM      7  C   UNL     1       9.794  -1.167  23.941  0.00  0.00    +0.325 C 
ATOM      8  N   UNL     1       8.648  -1.794  24.380  0.00  0.00    -0.275 N 
ATOM      9  H   UNL     1       8.089  -1.301  25.085  0.00  0.00    +0.155 HD
ATOM     10  O   UNL     1      10.393  -1.346  22.885  0.00  0.00    -0.263 OA
BRANCH   7  11
ATOM     11  C   UNL     1      10.325  -0.053  24.853  0.00  0.00    +0.393 C 
ATOM     12  O   UNL     1      11.208   0.717  24.527  0.00  0.00    -0.240 OA
BRANCH  11  13
ATOM     13  O   UNL     1       9.662  -0.053  26.028  0.00  0.00    -0.474 OA
ATOM     14  H   UNL     1       9.533  -0.989  26.314  0.00  0.00    +0.296 HD
ENDBRANCH  11  13
ENDBRANCH   7  11
ENDBRANCH   1   8
BRANCH   6  15
ATOM     15  C   UNL     1       9.265  -4.454  25.302  0.00  0.00    +0.339 C 
ATOM     16  O   UNL     1       8.973  -4.060  26.418  0.00  0.00    -0.245 OA
BRANCH  15  17
ATOM     17  O   UNL     1      10.353  -5.200  25.039  0.00  0.00    -0.477 OA
ATOM     18  H   UNL     1      10.795  -5.577  25.824  0.00  0.00    +0.295 HD
ENDBRANCH  15  17
ENDBRANCH   6  15
TORSDOF 5
ENDMDL
MODEL 2
REMARK VINA RESULT:      -5.4      3.170      5.219
REMARK  Name = 
REMARK  5 active torsions:
REMARK  status: ('A' for Active; 'I' for Inactive)
REMARK    1  A    between atoms: O_1  and  C_2
REMARK    2  A    between atoms: C_2  and  C_4
REMARK    3  A    between atoms: N_6  and  C_7
REMARK    4  A    between atoms: C_8  and  C_13
REMARK    5  A    between atoms: C_13  and  O_14
REMARK                            x       y       z     vdW  Elec       q    Type
REMARK                         _______ _______ _______ _____ _____    ______ ____
ROOT
ATOM      1  C   UNL     1       6.769  -5.331  25.233  0.00  0.00    +0.048 A 
ATOM      2  C   UNL     1       5.696  -5.179  24.347  0.00  0.00    +0.024 A 
ATOM      3  C   UNL     1       5.846  -4.457  23.161  0.00  0.00    +0.002 A 
ATOM      4  C   UNL     1       7.075  -3.887  22.841  0.00  0.00    +0.001 A 
ATOM      5  C   UNL     1       8.157  -4.031  23.709  0.00  0.00    +0.017 A 
ATOM      6  C   UNL     1       8.009  -4.754  24.904  0.00  0.00    +0.080 A 
ENDROOT
BRANCH   1   8
ATOM      7  C   UNL     1       6.010  -5.458  27.568  0.00  0.00    +0.325 C 
ATOM      8  N   UNL     1       6.584  -6.023  26.450  0.00  0.00    -0.275 N 
ATOM      9  H   UNL     1       6.693  -7.043  26.447  0.00  0.00    +0.155 HD
ATOM     10  O   UNL     1       5.440  -4.374  27.656  0.00  0.00    -0.263 OA
BRANCH   7  11
ATOM     11  C   UNL     1       6.015  -6.337  28.825  0.00  0.00    +0.393 C 
ATOM     12  O   UNL     1       6.370  -5.941  29.919  0.00  0.00    -0.240 OA
BRANCH  11  13
ATOM     13  O   UNL     1       5.559  -7.573  28.535  0.00  0.00    -0.474 OA
ATOM     14  H   UNL     1       4.981  -7.875  29.275  0.00  0.00    +0.296 HD
ENDBRANCH  11  13
ENDBRANCH   7  11
ENDBRANCH   1   8
BRANCH   6  15
ATOM     15  C   UNL     1       9.179  -4.956  25.791  0.00  0.00    +0.339 C 
ATOM     16  O   UNL     1       9.230  -4.494  26.918  0.00  0.00    -0.245 OA
BRANCH  15  17
ATOM     17  O   UNL     1      10.129  -5.756  25.274  0.00  0.00    -0.477 OA
ATOM     18  H   UNL     1      10.590  -5.396  24.491  0.00  0.00    +0.295 HD
ENDBRANCH  15  17
ENDBRANCH   6  15
TORSDOF 5
ENDMDL
MODEL 3
REMARK VINA RESULT:      -5.4      2.995      4.979
REMARK  Name = 
REMARK  5 active torsions:
REMARK  status: ('A' for Active; 'I' for Inactive)
REMARK    1  A    between atoms: O_1  and  C_2
REMARK    2  A    between atoms: C_2  and  C_4
REMARK    3  A    between atoms: N_6  and  C_7
REMARK    4  A    between atoms: C_8  and  C_13
REMARK    5  A    between atoms: C_13  and  O_14
REMARK                            x       y       z     vdW  Elec       q    Type
REMARK                         _______ _______ _______ _____ _____    ______ ____
ROOT
ATOM      1  C   UNL     1       7.576  -3.536  23.423  0.00  0.00    +0.048 A 
ATOM      2  C   UNL     1       7.585  -2.477  22.507  0.00  0.00    +0.024 A 
ATOM      3  C   UNL     1       8.715  -1.667  22.365  0.00  0.00    +0.002 A 
ATOM      4  C   UNL     1       9.853  -1.914  23.128  0.00  0.00    +0.001 A 
ATOM      5  C   UNL     1       9.863  -2.967  24.042  0.00  0.00    +0.017 A 
ATOM      6  C   UNL     1       8.728  -3.782  24.190  0.00  0.00    +0.080 A 
ENDROOT
BRANCH   1   8
ATOM      7  C   UNL     1       6.066  -5.359  22.759  0.00  0.00    +0.325 C 
ATOM      8  N   UNL     1       6.408  -4.312  23.587  0.00  0.00    -0.275 N 
ATOM      9  H   UNL     1       5.892  -4.230  24.470  0.00  0.00    +0.155 HD
ATOM     10  O   UNL     1       6.751  -5.883  21.885  0.00  0.00    -0.263 OA
BRANCH   7  11
ATOM     11  C   UNL     1       4.696  -5.993  23.031  0.00  0.00    +0.393 C 
ATOM     12  O   UNL     1       3.641  -5.458  22.747  0.00  0.00    -0.240 OA
BRANCH  11  13
ATOM     13  O   UNL     1       4.845  -7.207  23.598  0.00  0.00    -0.474 OA
ATOM     14  H   UNL     1       4.144  -7.322  24.283  0.00  0.00    +0.296 HD
ENDBRANCH  11  13
ENDBRANCH   7  11
ENDBRANCH   1   8
BRANCH   6  15
ATOM     15  C   UNL     1       8.767  -4.937  25.118  0.00  0.00    +0.339 C 
ATOM     16  O   UNL     1       7.916  -5.118  25.972  0.00  0.00    -0.245 OA
BRANCH  15  17
ATOM     17  O   UNL     1       9.772  -5.800  24.878  0.00  0.00    -0.477 OA
ATOM     18  H   UNL     1      10.373  -5.953  25.633  0.00  0.00    +0.295 HD
ENDBRANCH  15  17
ENDBRANCH   6  15
TORSDOF 5
ENDMDL
MODEL 4
REMARK VINA RESULT:      -5.3      5.304      7.347
REMARK  Name = 
REMARK  5 active torsions:
REMARK  status: ('A' for Active; 'I' for Inactive)
REMARK    1  A    between atoms: O_1  and  C_2
REMARK    2  A    between atoms: C_2  and  C_4
REMARK    3  A    between atoms: N_6  and  C_7
REMARK    4  A    between atoms: C_8  and  C_13
REMARK    5  A    between atoms: C_13  and  O_14
REMARK                            x       y       z     vdW  Elec       q    Type
REMARK                         _______ _______ _______ _____ _____    ______ ____
ROOT
ATOM      1  C   UNL     1      10.006   4.005  23.952  0.00  0.00    +0.048 A 
ATOM      2  C   UNL     1       9.242   5.109  24.350  0.00  0.00    +0.024 A 
ATOM      3  C   UNL     1       8.026   4.933  25.013  0.00  0.00    +0.002 A 
ATOM      4  C   UNL     1       7.563   3.651  25.298  0.00  0.00    +0.001 A 
ATOM      5  C   UNL     1       8.312   2.540  24.912  0.00  0.00    +0.017 A 
ATOM      6  C   UNL     1       9.534   2.713  24.242  0.00  0.00    +0.080 A 
ENDROOT
BRANCH   1   8
ATOM      7  C   UNL     1      12.122   5.188  23.544  0.00  0.00    +0.325 C 
ATOM      8  N   UNL     1      11.208   4.202  23.239  0.00  0.00    -0.275 N 
ATOM      9  H   UNL     1      11.517   3.464  22.597  0.00  0.00    +0.155 HD
ATOM     10  O   UNL     1      12.138   5.921  24.528  0.00  0.00    -0.263 OA
BRANCH   7  11
ATOM     11  C   UNL     1      13.301   5.316  22.571  0.00  0.00    +0.393 C 
ATOM     12  O   UNL     1      13.177   5.637  21.405  0.00  0.00    -0.240 OA
BRANCH  11  13
ATOM     13  O   UNL     1      14.461   5.043  23.203  0.00  0.00    -0.474 OA
ATOM     14  H   UNL     1      15.110   5.755  22.989  0.00  0.00    +0.296 HD
ENDBRANCH  11  13
ENDBRANCH   7  11
ENDBRANCH   1   8
BRANCH   6  15
ATOM     15  C   UNL     1      10.355   1.528  23.891  0.00  0.00    +0.339 C 
ATOM     16  O   UNL     1      10.965   0.887  24.730  0.00  0.00    -0.245 OA
BRANCH  15  17
ATOM     17  O   UNL     1      10.297   1.186  22.592  0.00  0.00    -0.477 OA
ATOM     18  H   UNL     1      10.448   0.238  22.408  0.00  0.00    +0.295 HD
ENDBRANCH  15  17
ENDBRANCH   6  15
TORSDOF 5
ENDMDL
MODEL 5
REMARK VINA RESULT:      -5.2      1.568      2.211
REMARK  Name = 
REMARK  5 active torsions:
REMARK  status: ('A' for Active; 'I' for Inactive)
REMARK    1  A    between atoms: O_1  and  C_2
REMARK    2  A    between atoms: C_2  and  C_4
REMARK    3  A    between atoms: N_6  and  C_7
REMARK    4  A    between atoms: C_8  and  C_13
REMARK    5  A    between atoms: C_13  and  O_14
REMARK                            x       y       z     vdW  Elec       q    Type
REMARK                         _______ _______ _______ _____ _____    ______ ____
ROOT
ATOM      1  C   UNL     1       7.688  -3.708  24.080  0.00  0.00    +0.048 A 
ATOM      2  C   UNL     1       6.376  -3.526  23.626  0.00  0.00    +0.024 A 
ATOM      3  C   UNL     1       5.325  -4.275  24.160  0.00  0.00    +0.002 A 
ATOM      4  C   UNL     1       5.571  -5.208  25.164  0.00  0.00    +0.001 A 
ATOM      5  C   UNL     1       6.870  -5.400  25.632  0.00  0.00    +0.017 A 
ATOM      6  C   UNL     1       7.930  -4.650  25.095  0.00  0.00    +0.080 A 
ENDROOT
BRANCH   1   8
ATOM      7  C   UNL     1       9.084  -1.696  23.870  0.00  0.00    +0.325 C 
ATOM      8  N   UNL     1       8.743  -2.976  23.493  0.00  0.00    -0.275 N 
ATOM      9  H   UNL     1       9.413  -3.482  22.905  0.00  0.00    +0.155 HD
ATOM     10  O   UNL     1       8.669  -1.058  24.834  0.00  0.00    -0.263 OA
BRANCH   7  11
ATOM     11  C   UNL     1      10.176  -1.029  23.024  0.00  0.00    +0.393 C 
ATOM     12  O   UNL     1      10.770  -0.025  23.366  0.00  0.00    -0.240 OA
BRANCH  11  13
ATOM     13  O   UNL     1      10.378  -1.726  21.887  0.00  0.00    -0.474 OA
ATOM     14  H   UNL     1      11.212  -2.245  21.981  0.00  0.00    +0.296 HD
ENDBRANCH  11  13
ENDBRANCH   7  11
ENDBRANCH   1   8
BRANCH   6  15
ATOM     15  C   UNL     1       9.299  -4.815  25.641  0.00  0.00    +0.339 C 
ATOM     16  O   UNL     1      10.282  -4.897  24.923  0.00  0.00    -0.245 OA
BRANCH  15  17
ATOM     17  O   UNL     1       9.361  -4.784  26.984  0.00  0.00    -0.477 OA
ATOM     18  H   UNL     1       8.777  -4.127  27.409  0.00  0.00    +0.295 HD
ENDBRANCH  15  17
ENDBRANCH   6  15
TORSDOF 5
ENDMDL
MODEL 6
REMARK VINA RESULT:      -5.2      1.996      4.529
REMARK  Name = 
REMARK  5 active torsions:
REMARK  status: ('A' for Active; 'I' for Inactive)
REMARK    1  A    between atoms: O_1  and  C_2
REMARK    2  A    between atoms: C_2  and  C_4
REMARK    3  A    between atoms: N_6  and  C_7
REMARK    4  A    between atoms: C_8  and  C_13
REMARK    5  A    between atoms: C_13  and  O_14
REMARK                            x       y       z     vdW  Elec       q    Type
REMARK                         _______ _______ _______ _____ _____    ______ ____
ROOT
ATOM      1  C   UNL     1       9.485  -1.266  23.450  0.00  0.00    +0.048 A 
ATOM      2  C   UNL     1       9.792  -1.323  22.085  0.00  0.00    +0.024 A 
ATOM      3  C   UNL     1       9.466  -0.265  21.235  0.00  0.00    +0.002 A 
ATOM      4  C   UNL     1       8.838   0.871  21.741  0.00  0.00    +0.001 A 
ATOM      5  C   UNL     1       8.528   0.947  23.098  0.00  0.00    +0.017 A 
ATOM      6  C   UNL     1       8.852  -0.117  23.956  0.00  0.00    +0.080 A 
ENDROOT
BRANCH   1   8
ATOM      7  C   UNL     1       8.984  -3.490  24.371  0.00  0.00    +0.325 C 
ATOM      8  N   UNL     1       9.778  -2.367  24.283  0.00  0.00    -0.275 N 
ATOM      9  H   UNL     1      10.719  -2.429  24.689  0.00  0.00    +0.155 HD
ATOM     10  O   UNL     1       8.026  -3.792  23.665  0.00  0.00    -0.263 OA
BRANCH   7  11
ATOM     11  C   UNL     1       9.411  -4.517  25.428  0.00  0.00    +0.393 C 
ATOM     12  O   UNL     1       8.926  -4.575  26.541  0.00  0.00    -0.240 OA
BRANCH  11  13
ATOM     13  O   UNL     1      10.366  -5.330  24.931  0.00  0.00    -0.474 OA
ATOM     14  H   UNL     1      11.060  -4.774  24.503  0.00  0.00    +0.296 HD
ENDBRANCH  11  13
ENDBRANCH   7  11
ENDBRANCH   1   8
BRANCH   6  15
ATOM     15  C   UNL     1       8.576  -0.002  25.408  0.00  0.00    +0.339 C 
ATOM     16  O   UNL     1       7.442   0.010  25.857  0.00  0.00    -0.245 OA
BRANCH  15  17
ATOM     17  O   UNL     1       9.679   0.005  26.178  0.00  0.00    -0.477 OA
ATOM     18  H   UNL     1       9.655  -0.609  26.938  0.00  0.00    +0.295 HD
ENDBRANCH  15  17
ENDBRANCH   6  15
TORSDOF 5
ENDMDL
MODEL 7
REMARK VINA RESULT:      -5.1      2.467      5.300
REMARK  Name = 
REMARK  5 active torsions:
REMARK  status: ('A' for Active; 'I' for Inactive)
REMARK    1  A    between atoms: O_1  and  C_2
REMARK    2  A    between atoms: C_2  and  C_4
REMARK    3  A    between atoms: N_6  and  C_7
REMARK    4  A    between atoms: C_8  and  C_13
REMARK    5  A    between atoms: C_13  and  O_14
REMARK                            x       y       z     vdW  Elec       q    Type
REMARK                         _______ _______ _______ _____ _____    ______ ____
ROOT
ATOM      1  C   UNL     1       8.215  -1.468  23.868  0.00  0.00    +0.048 A 
ATOM      2  C   UNL     1       7.997  -1.464  25.251  0.00  0.00    +0.024 A 
ATOM      3  C   UNL     1       8.800  -0.697  26.098  0.00  0.00    +0.002 A 
ATOM      4  C   UNL     1       9.825   0.084  25.571  0.00  0.00    +0.001 A 
ATOM      5  C   UNL     1      10.055   0.095  24.196  0.00  0.00    +0.017 A 
ATOM      6  C   UNL     1       9.251  -0.677  23.341  0.00  0.00    +0.080 A 
ENDROOT
BRANCH   1   8
ATOM      7  C   UNL     1       7.632  -3.640  22.876  0.00  0.00    +0.325 C 
ATOM      8  N   UNL     1       7.423  -2.288  23.034  0.00  0.00    -0.275 N 
ATOM      9  H   UNL     1       6.535  -1.910  22.688  0.00  0.00    +0.155 HD
ATOM     10  O   UNL     1       8.389  -4.367  23.514  0.00  0.00    -0.263 OA
BRANCH   7  11
ATOM     11  C   UNL     1       6.743  -4.325  21.829  0.00  0.00    +0.393 C 
ATOM     12  O   UNL     1       5.770  -3.797  21.327  0.00  0.00    -0.240 OA
BRANCH  11  13
ATOM     13  O   UNL     1       7.212  -5.559  21.551  0.00  0.00    -0.474 OA
ATOM     14  H   UNL     1       7.777  -5.505  20.744  0.00  0.00    +0.296 HD
ENDBRANCH  11  13
ENDBRANCH   7  11
ENDBRANCH   1   8
BRANCH   6  15
ATOM     15  C   UNL     1       9.460  -0.611  21.875  0.00  0.00    +0.339 C 
ATOM     16  O   UNL     1       9.156   0.369  21.217  0.00  0.00    -0.245 OA
BRANCH  15  17
ATOM     17  O   UNL     1      10.085  -1.686  21.361  0.00  0.00    -0.477 OA
ATOM     18  H   UNL     1      10.667  -2.162  21.984  0.00  0.00    +0.295 HD
ENDBRANCH  15  17
ENDBRANCH   6  15
TORSDOF 5
ENDMDL
MODEL 8
REMARK VINA RESULT:      -5.0      3.565      6.761
REMARK  Name = 
REMARK  5 active torsions:
REMARK  status: ('A' for Active; 'I' for Inactive)
REMARK    1  A    between atoms: O_1  and  C_2
REMARK    2  A    between atoms: C_2  and  C_4
REMARK    3  A    between atoms: N_6  and  C_7
REMARK    4  A    between atoms: C_8  and  C_13
REMARK    5  A    between atoms: C_13  and  O_14
REMARK                            x       y       z     vdW  Elec       q    Type
REMARK                         _______ _______ _______ _____ _____    ______ ____
ROOT
ATOM      1  C   UNL     1      10.345   2.660  23.803  0.00  0.00    +0.048 A 
ATOM      2  C   UNL     1      11.398   3.484  23.390  0.00  0.00    +0.024 A 
ATOM      3  C   UNL     1      11.286   4.875  23.460  0.00  0.00    +0.002 A 
ATOM      4  C   UNL     1      10.122   5.458  23.954  0.00  0.00    +0.001 A 
ATOM      5  C   UNL     1       9.064   4.653  24.374  0.00  0.00    +0.017 A 
ATOM      6  C   UNL     1       9.173   3.254  24.302  0.00  0.00    +0.080 A 
ENDROOT
BRANCH   1   8
ATOM      7  C   UNL     1      10.030   0.553  22.576  0.00  0.00    +0.325 C 
ATOM      8  N   UNL     1      10.460   1.258  23.678  0.00  0.00    -0.275 N 
ATOM      9  H   UNL     1      11.067   0.762  24.340  0.00  0.00    +0.155 HD
ATOM     10  O   UNL     1       9.644   1.000  21.499  0.00  0.00    -0.263 OA
BRANCH   7  11
ATOM     11  C   UNL     1      10.130  -0.974  22.690  0.00  0.00    +0.393 C 
ATOM     12  O   UNL     1      10.092  -1.571  23.749  0.00  0.00    -0.240 OA
BRANCH  11  13
ATOM     13  O   UNL     1      10.242  -1.529  21.466  0.00  0.00    -0.474 OA
ATOM     14  H   UNL     1      11.154  -1.363  21.129  0.00  0.00    +0.296 HD
ENDBRANCH  11  13
ENDBRANCH   7  11
ENDBRANCH   1   8
BRANCH   6  15
ATOM     15  C   UNL     1       8.069   2.403  24.809  0.00  0.00    +0.339 C 
ATOM     16  O   UNL     1       6.965   2.390  24.290  0.00  0.00    -0.245 OA
BRANCH  15  17
ATOM     17  O   UNL     1       8.419   1.598  25.828  0.00  0.00    -0.477 OA
ATOM     18  H   UNL     1       7.797   0.867  26.009  0.00  0.00    +0.295 HD
ENDBRANCH  15  17
ENDBRANCH   6  15
TORSDOF 5
ENDMDL
MODEL 9
REMARK VINA RESULT:      -5.0      2.294      4.693
REMARK  Name = 
REMARK  5 active torsions:
REMARK  status: ('A' for Active; 'I' for Inactive)
REMARK    1  A    between atoms: O_1  and  C_2
REMARK    2  A    between atoms: C_2  and  C_4
REMARK    3  A    between atoms: N_6  and  C_7
REMARK    4  A    between atoms: C_8  and  C_13
REMARK    5  A    between atoms: C_13  and  O_14
REMARK                            x       y       z     vdW  Elec       q    Type
REMARK                         _______ _______ _______ _____ _____    ______ ____
ROOT
ATOM      1  C   UNL     1       9.316  -1.863  23.839  0.00  0.00    +0.048 A 
ATOM      2  C   UNL     1      10.309  -0.932  24.169  0.00  0.00    +0.024 A 
ATOM      3  C   UNL     1      10.398   0.285  23.490  0.00  0.00    +0.002 A 
ATOM      4  C   UNL     1       9.489   0.592  22.481  0.00  0.00    +0.001 A 
ATOM      5  C   UNL     1       8.491  -0.321  22.142  0.00  0.00    +0.017 A 
ATOM      6  C   UNL     1       8.400  -1.548  22.821  0.00  0.00    +0.080 A 
ENDROOT
BRANCH   1   8
ATOM      7  C   UNL     1       8.749  -3.281  25.766  0.00  0.00    +0.325 C 
ATOM      8  N   UNL     1       9.273  -3.108  24.503  0.00  0.00    -0.275 N 
ATOM      9  H   UNL     1       9.451  -3.956  23.954  0.00  0.00    +0.155 HD
ATOM     10  O   UNL     1       8.115  -2.470  26.436  0.00  0.00    -0.263 OA
BRANCH   7  11
ATOM     11  C   UNL     1       8.911  -4.686  26.360  0.00  0.00    +0.393 C 
ATOM     12  O   UNL     1       8.155  -5.155  27.188  0.00  0.00    -0.240 OA
BRANCH  11  13
ATOM     13  O   UNL     1       9.981  -5.303  25.818  0.00  0.00    -0.474 OA
ATOM     14  H   UNL     1      10.281  -4.781  25.036  0.00  0.00    +0.296 HD
ENDBRANCH  11  13
ENDBRANCH   7  11
ENDBRANCH   1   8
BRANCH   6  15
ATOM     15  C   UNL     1       7.299  -2.487  22.498  0.00  0.00    +0.339 C 
ATOM     16  O   UNL     1       7.502  -3.651  22.197  0.00  0.00    -0.245 OA
BRANCH  15  17
ATOM     17  O   UNL     1       6.069  -1.963  22.647  0.00  0.00    -0.477 OA
ATOM     18  H   UNL     1       5.999  -1.010  22.442  0.00  0.00    +0.295 HD
ENDBRANCH  15  17
ENDBRANCH   6  15
TORSDOF 5
ENDMDL
