MODEL 1
REMARK VINA RESULT:      -7.2      0.000      0.000
REMARK  Name = 
REMARK  4 active torsions:
REMARK  status: ('A' for Active; 'I' for Inactive)
REMARK    1  A    between atoms: O_1  and  C_2
REMARK    2  A    between atoms: C_2  and  C_4
REMARK    3  A    between atoms: N_6  and  C_7
REMARK    4  A    between atoms: C_16  and  N_17
REMARK                            x       y       z     vdW  Elec       q    Type
REMARK                         _______ _______ _______ _____ _____    ______ ____
ROOT
ATOM      1  C   UNL     1      11.135   5.066  23.732  0.00  0.00    +0.122 A 
ATOM      2  C   UNL     1       9.943   5.877  24.026  0.00  0.00    +0.203 A 
ATOM      3  O   UNL     1      10.047   7.090  24.193  0.00  0.00    -0.286 OA
ATOM      4  C   UNL     1       8.643   5.182  24.129  0.00  0.00    +0.049 A 
ATOM      5  C   UNL     1       8.569   3.798  23.903  0.00  0.00    +0.059 A 
ATOM      6  C   UNL     1       7.324   3.183  24.133  0.00  0.00    +0.053 A 
ATOM      7  C   UNL     1       6.149   3.887  24.472  0.00  0.00    +0.067 A 
ATOM      8  C   UNL     1       6.286   5.276  24.635  0.00  0.00    +0.145 A 
ATOM      9  F   UNL     1       5.234   6.029  24.995  0.00  0.00    -0.204 F 
ATOM     10  N   UNL     1       9.738   3.057  23.493  0.00  0.00    -0.315 N 
ATOM     11  C   UNL     1       7.510   5.922  24.485  0.00  0.00    +0.054 A 
ATOM     12  C   UNL     1      10.946   3.764  23.474  0.00  0.00    +0.110 A 
ENDROOT
BRANCH   7  13
ATOM     13  N   UNL     1       4.949   3.210  24.571  0.00  0.00    -0.325 N 
ATOM     14  C   UNL     1       3.966   3.163  23.476  0.00  0.00    +0.120 C 
ATOM     15  C   UNL     1       2.556   3.453  24.038  0.00  0.00    +0.100 C 
ATOM     16  N   UNL     1       2.169   2.534  25.126  0.00  0.00    -0.313 NA
ATOM     17  H   UNL     1       1.285   2.846  25.525  0.00  0.00    +0.122 HD
ATOM     18  C   UNL     1       3.202   2.545  26.181  0.00  0.00    +0.100 C 
ATOM     19  C   UNL     1       4.644   2.280  25.671  0.00  0.00    +0.120 C 
ENDBRANCH   7  13
BRANCH  10  20
ATOM     20  C   UNL     1       9.742   1.677  23.074  0.00  0.00    +0.047 A 
ATOM     21  C   UNL     1       9.420   1.305  21.752  0.00  0.00    +0.029 A 
ATOM     22  C   UNL     1       9.396  -0.038  21.361  0.00  0.00    +0.040 A 
ATOM     23  C   UNL     1       9.748  -1.025  22.271  0.00  0.00    +0.124 A 
ATOM     24  F   UNL     1       9.743  -2.308  21.891  0.00  0.00    -0.205 F 
ATOM     25  C   UNL     1      10.109  -0.692  23.568  0.00  0.00    +0.040 A 
ATOM     26  C   UNL     1      10.091   0.648  23.969  0.00  0.00    +0.029 A 
ENDBRANCH  10  20
BRANCH   1  27
ATOM     27  C   UNL     1      12.509   5.611  23.693  0.00  0.00    +0.342 C 
ATOM     28  O   UNL     1      13.299   5.371  22.792  0.00  0.00    -0.245 OA
BRANCH  27  29
ATOM     29  O   UNL     1      12.836   6.388  24.749  0.00  0.00    -0.477 OA
ATOM     30  H   UNL     1      13.645   6.092  25.234  0.00  0.00    +0.295 HD
ENDBRANCH  27  29
ENDBRANCH   1  27
TORSDOF 4
ENDMDL
MODEL 2
REMARK VINA RESULT:      -7.1      4.988      8.010
REMARK  Name = 
REMARK  4 active torsions:
REMARK  status: ('A' for Active; 'I' for Inactive)
REMARK    1  A    between atoms: O_1  and  C_2
REMARK    2  A    between atoms: C_2  and  C_4
REMARK    3  A    between atoms: N_6  and  C_7
REMARK    4  A    between atoms: C_16  and  N_17
REMARK                            x       y       z     vdW  Elec       q    Type
REMARK                         _______ _______ _______ _____ _____    ______ ____
ROOT
ATOM      1  C   UNL     1       8.132  -3.768  26.026  0.00  0.00    +0.122 A 
ATOM      2  C   UNL     1       8.770  -3.492  24.729  0.00  0.00    +0.203 A 
ATOM      3  O   UNL     1       9.290  -4.404  24.090  0.00  0.00    -0.286 OA
ATOM      4  C   UNL     1       8.777  -2.096  24.245  0.00  0.00    +0.049 A 
ATOM      5  C   UNL     1       8.147  -1.091  24.998  0.00  0.00    +0.059 A 
ATOM      6  C   UNL     1       8.294   0.231  24.539  0.00  0.00    +0.053 A 
ATOM      7  C   UNL     1       8.941   0.579  23.334  0.00  0.00    +0.067 A 
ATOM      8  C   UNL     1       9.507  -0.481  22.608  0.00  0.00    +0.145 A 
ATOM      9  F   UNL     1      10.177  -0.249  21.468  0.00  0.00    -0.204 F 
ATOM     10  N   UNL     1       7.422  -1.420  26.202  0.00  0.00    -0.315 N 
ATOM     11  C   UNL     1       9.447  -1.799  23.054  0.00  0.00    +0.054 A 
ATOM     12  C   UNL     1       7.507  -2.749  26.634  0.00  0.00    +0.110 A 
ENDROOT
BRANCH   7  13
ATOM     13  N   UNL     1       8.941   1.894  22.912  0.00  0.00    -0.325 N 
ATOM     14  C   UNL     1       9.984   2.858  23.302  0.00  0.00    +0.120 C 
ATOM     15  C   UNL     1       9.322   4.180  23.747  0.00  0.00    +0.100 C 
ATOM     16  N   UNL     1       8.437   4.758  22.717  0.00  0.00    -0.313 NA
ATOM     17  H   UNL     1       7.949   5.561  23.111  0.00  0.00    +0.122 HD
ATOM     18  C   UNL     1       7.442   3.753  22.292  0.00  0.00    +0.100 C 
ATOM     19  C   UNL     1       8.050   2.394  21.851  0.00  0.00    +0.120 C 
ENDBRANCH   7  13
BRANCH  10  20
ATOM     20  C   UNL     1       6.603  -0.503  26.955  0.00  0.00    +0.047 A 
ATOM     21  C   UNL     1       7.167   0.410  27.871  0.00  0.00    +0.029 A 
ATOM     22  C   UNL     1       6.365   1.276  28.621  0.00  0.00    +0.040 A 
ATOM     23  C   UNL     1       4.991   1.282  28.425  0.00  0.00    +0.124 A 
ATOM     24  F   UNL     1       4.226   2.124  29.129  0.00  0.00    -0.205 F 
ATOM     25  C   UNL     1       4.406   0.427  27.504  0.00  0.00    +0.040 A 
ATOM     26  C   UNL     1       5.206  -0.468  26.786  0.00  0.00    +0.029 A 
ENDBRANCH  10  20
BRANCH   1  27
ATOM     27  C   UNL     1       8.132  -5.096  26.675  0.00  0.00    +0.342 C 
ATOM     28  O   UNL     1       7.464  -5.358  27.665  0.00  0.00    -0.245 OA
BRANCH  27  29
ATOM     29  O   UNL     1       8.949  -6.004  26.098  0.00  0.00    -0.477 OA
ATOM     30  H   UNL     1       9.151  -5.821  25.149  0.00  0.00    +0.295 HD
ENDBRANCH  27  29
ENDBRANCH   1  27
TORSDOF 4
ENDMDL
MODEL 3
REMARK VINA RESULT:      -7.1      1.566      2.192
REMARK  Name = 
REMARK  4 active torsions:
REMARK  status: ('A' for Active; 'I' for Inactive)
REMARK    1  A    between atoms: O_1  and  C_2
REMARK    2  A    between atoms: C_2  and  C_4
REMARK    3  A    between atoms: N_6  and  C_7
REMARK    4  A    between atoms: C_16  and  N_17
REMARK                            x       y       z     vdW  Elec       q    Type
REMARK                         _______ _______ _______ _____ _____    ______ ____
ROOT
ATOM      1  C   UNL     1      11.843   4.858  23.320  0.00  0.00    +0.122 A 
ATOM      2  C   UNL     1      10.923   5.693  24.109  0.00  0.00    +0.203 A 
ATOM      3  O   UNL     1      11.168   6.883  24.287  0.00  0.00    -0.286 OA
ATOM      4  C   UNL     1       9.724   5.047  24.684  0.00  0.00    +0.049 A 
ATOM      5  C   UNL     1       9.472   3.689  24.431  0.00  0.00    +0.059 A 
ATOM      6  C   UNL     1       8.379   3.111  25.105  0.00  0.00    +0.053 A 
ATOM      7  C   UNL     1       7.486   3.835  25.922  0.00  0.00    +0.067 A 
ATOM      8  C   UNL     1       7.772   5.200  26.093  0.00  0.00    +0.145 A 
ATOM      9  F   UNL     1       7.003   5.966  26.883  0.00  0.00    -0.204 F 
ATOM     10  N   UNL     1      10.329   2.934  23.549  0.00  0.00    -0.315 N 
ATOM     11  C   UNL     1       8.879   5.803  25.502  0.00  0.00    +0.054 A 
ATOM     12  C   UNL     1      11.477   3.588  23.088  0.00  0.00    +0.110 A 
ENDROOT
BRANCH   7  13
ATOM     13  N   UNL     1       6.379   3.203  26.455  0.00  0.00    -0.325 N 
ATOM     14  C   UNL     1       6.289   2.812  27.872  0.00  0.00    +0.120 C 
ATOM     15  C   UNL     1       5.763   1.363  27.973  0.00  0.00    +0.100 C 
ATOM     16  N   UNL     1       4.467   1.171  27.295  0.00  0.00    -0.313 NA
ATOM     17  H   UNL     1       4.232   0.179  27.301  0.00  0.00    +0.122 HD
ATOM     18  C   UNL     1       4.561   1.633  25.895  0.00  0.00    +0.100 C 
ATOM     19  C   UNL     1       5.103   3.078  25.731  0.00  0.00    +0.120 C 
ENDBRANCH   7  13
BRANCH  10  20
ATOM     20  C   UNL     1      10.071   1.591  23.089  0.00  0.00    +0.047 A 
ATOM     21  C   UNL     1      10.368   0.467  23.888  0.00  0.00    +0.029 A 
ATOM     22  C   UNL     1      10.143  -0.834  23.424  0.00  0.00    +0.040 A 
ATOM     23  C   UNL     1       9.568  -1.027  22.176  0.00  0.00    +0.124 A 
ATOM     24  F   UNL     1       9.336  -2.271  21.740  0.00  0.00    -0.205 F 
ATOM     25  C   UNL     1       9.226   0.056  21.380  0.00  0.00    +0.040 A 
ATOM     26  C   UNL     1       9.491   1.354  21.829  0.00  0.00    +0.029 A 
ENDBRANCH  10  20
BRANCH   1  27
ATOM     27  C   UNL     1      13.124   5.345  22.766  0.00  0.00    +0.342 C 
ATOM     28  O   UNL     1      13.197   6.057  21.775  0.00  0.00    -0.245 OA
BRANCH  27  29
ATOM     29  O   UNL     1      14.221   4.927  23.434  0.00  0.00    -0.477 OA
ATOM     30  H   UNL     1      14.505   4.008  23.211  0.00  0.00    +0.295 HD
ENDBRANCH  27  29
ENDBRANCH   1  27
TORSDOF 4
ENDMDL
MODEL 4
REMARK VINA RESULT:      -6.8      4.435      7.197
REMARK  Name = 
REMARK  4 active torsions:
REMARK  status: ('A' for Active; 'I' for Inactive)
REMARK    1  A    between atoms: O_1  and  C_2
REMARK    2  A    between atoms: C_2  and  C_4
REMARK    3  A    between atoms: N_6  and  C_7
REMARK    4  A    between atoms: C_16  and  N_17
REMARK                            x       y       z     vdW  Elec       q    Type
REMARK                         _______ _______ _______ _____ _____    ______ ____
ROOT
ATOM      1  C   UNL     1       9.014  -2.861  24.900  0.00  0.00    +0.122 A 
ATOM      2  C   UNL     1       9.672  -2.079  23.841  0.00  0.00    +0.203 A 
ATOM      3  O   UNL     1      10.454  -2.624  23.066  0.00  0.00    -0.286 OA
ATOM      4  C   UNL     1       9.373  -0.634  23.762  0.00  0.00    +0.049 A 
ATOM      5  C   UNL     1       8.452  -0.060  24.654  0.00  0.00    +0.059 A 
ATOM      6  C   UNL     1       8.305   1.339  24.599  0.00  0.00    +0.053 A 
ATOM      7  C   UNL     1       8.945   2.162  23.648  0.00  0.00    +0.067 A 
ATOM      8  C   UNL     1       9.816   1.514  22.757  0.00  0.00    +0.145 A 
ATOM      9  F   UNL     1      10.502   2.215  21.840  0.00  0.00    -0.204 F 
ATOM     10  N   UNL     1       7.732  -0.881  25.597  0.00  0.00    -0.315 N 
ATOM     11  C   UNL     1      10.047   0.143  22.814  0.00  0.00    +0.054 A 
ATOM     12  C   UNL     1       8.107  -2.228  25.659  0.00  0.00    +0.110 A 
ENDROOT
BRANCH   7  13
ATOM     13  N   UNL     1       8.654   3.512  23.604  0.00  0.00    -0.325 N 
ATOM     14  C   UNL     1       7.348   4.033  23.167  0.00  0.00    +0.120 C 
ATOM     15  C   UNL     1       7.564   5.197  22.175  0.00  0.00    +0.100 C 
ATOM     16  N   UNL     1       8.400   6.280  22.729  0.00  0.00    -0.313 NA
ATOM     17  H   UNL     1       8.596   6.957  21.994  0.00  0.00    +0.122 HD
ATOM     18  C   UNL     1       9.675   5.724  23.223  0.00  0.00    +0.100 C 
ATOM     19  C   UNL     1       9.520   4.537  24.211  0.00  0.00    +0.120 C 
ENDBRANCH   7  13
BRANCH  10  20
ATOM     20  C   UNL     1       6.650  -0.428  26.436  0.00  0.00    +0.047 A 
ATOM     21  C   UNL     1       6.891   0.252  27.649  0.00  0.00    +0.029 A 
ATOM     22  C   UNL     1       5.838   0.662  28.473  0.00  0.00    +0.040 A 
ATOM     23  C   UNL     1       4.527   0.447  28.070  0.00  0.00    +0.124 A 
ATOM     24  F   UNL     1       3.520   0.856  28.851  0.00  0.00    -0.205 F 
ATOM     25  C   UNL     1       4.253  -0.183  26.866  0.00  0.00    +0.040 A 
ATOM     26  C   UNL     1       5.308  -0.629  26.063  0.00  0.00    +0.029 A 
ENDBRANCH  10  20
BRANCH   1  27
ATOM     27  C   UNL     1       9.289  -4.290  25.157  0.00  0.00    +0.342 C 
ATOM     28  O   UNL     1       9.745  -4.706  26.212  0.00  0.00    -0.245 OA
BRANCH  27  29
ATOM     29  O   UNL     1       9.012  -5.111  24.120  0.00  0.00    -0.477 OA
ATOM     30  H   UNL     1       9.067  -4.677  23.234  0.00  0.00    +0.295 HD
ENDBRANCH  27  29
ENDBRANCH   1  27
TORSDOF 4
ENDMDL
MODEL 5
REMARK VINA RESULT:      -6.8      3.901      6.842
REMARK  Name = 
REMARK  4 active torsions:
REMARK  status: ('A' for Active; 'I' for Inactive)
REMARK    1  A    between atoms: O_1  and  C_2
REMARK    2  A    between atoms: C_2  and  C_4
REMARK    3  A    between atoms: N_6  and  C_7
REMARK    4  A    between atoms: C_16  and  N_17
REMARK                            x       y       z     vdW  Elec       q    Type
REMARK                         _______ _______ _______ _____ _____    ______ ____
ROOT
ATOM      1  C   UNL     1       8.871   3.036  24.730  0.00  0.00    +0.122 A 
ATOM      2  C   UNL     1       9.733   1.967  24.203  0.00  0.00    +0.203 A 
ATOM      3  O   UNL     1      10.711   2.246  23.513  0.00  0.00    -0.286 OA
ATOM      4  C   UNL     1       9.370   0.569  24.514  0.00  0.00    +0.049 A 
ATOM      5  C   UNL     1       8.258   0.300  25.329  0.00  0.00    +0.059 A 
ATOM      6  C   UNL     1       7.901  -1.053  25.488  0.00  0.00    +0.053 A 
ATOM      7  C   UNL     1       8.647  -2.131  24.966  0.00  0.00    +0.067 A 
ATOM      8  C   UNL     1       9.775  -1.789  24.200  0.00  0.00    +0.145 A 
ATOM      9  F   UNL     1      10.528  -2.742  23.628  0.00  0.00    -0.204 F 
ATOM     10  N   UNL     1       7.511   1.377  25.932  0.00  0.00    -0.315 N 
ATOM     11  C   UNL     1      10.131  -0.465  23.958  0.00  0.00    +0.054 A 
ATOM     12  C   UNL     1       7.870   2.673  25.546  0.00  0.00    +0.110 A 
ENDROOT
BRANCH   7  13
ATOM     13  N   UNL     1       8.279  -3.428  25.265  0.00  0.00    -0.325 N 
ATOM     14  C   UNL     1       7.683  -4.337  24.272  0.00  0.00    +0.120 C 
ATOM     15  C   UNL     1       6.455  -5.041  24.891  0.00  0.00    +0.100 C 
ATOM     16  N   UNL     1       6.773  -5.765  26.137  0.00  0.00    -0.313 NA
ATOM     17  H   UNL     1       5.908  -6.110  26.551  0.00  0.00    +0.122 HD
ATOM     18  C   UNL     1       7.432  -4.852  27.092  0.00  0.00    +0.100 C 
ATOM     19  C   UNL     1       8.662  -4.100  26.518  0.00  0.00    +0.120 C 
ENDBRANCH   7  13
BRANCH  10  20
ATOM     20  C   UNL     1       6.464   1.215  26.911  0.00  0.00    +0.047 A 
ATOM     21  C   UNL     1       6.748   1.148  28.292  0.00  0.00    +0.029 A 
ATOM     22  C   UNL     1       5.731   0.961  29.234  0.00  0.00    +0.040 A 
ATOM     23  C   UNL     1       4.410   0.895  28.815  0.00  0.00    +0.124 A 
ATOM     24  F   UNL     1       3.437   0.734  29.718  0.00  0.00    -0.205 F 
ATOM     25  C   UNL     1       4.091   0.997  27.469  0.00  0.00    +0.040 A 
ATOM     26  C   UNL     1       5.113   1.141  26.525  0.00  0.00    +0.029 A 
ENDBRANCH  10  20
BRANCH   1  27
ATOM     27  C   UNL     1       9.057   4.469  24.421  0.00  0.00    +0.342 C 
ATOM     28  O   UNL     1       9.084   5.341  25.277  0.00  0.00    -0.245 OA
BRANCH  27  29
ATOM     29  O   UNL     1       9.181   4.750  23.105  0.00  0.00    -0.477 OA
ATOM     30  H   UNL     1       8.504   4.314  22.533  0.00  0.00    +0.295 HD
ENDBRANCH  27  29
ENDBRANCH   1  27
TORSDOF 4
ENDMDL
MODEL 6
REMARK VINA RESULT:      -6.8      5.004      7.668
REMARK  Name = 
REMARK  4 active torsions:
REMARK  status: ('A' for Active; 'I' for Inactive)
REMARK    1  A    between atoms: O_1  and  C_2
REMARK    2  A    between atoms: C_2  and  C_4
REMARK    3  A    between atoms: N_6  and  C_7
REMARK    4  A    between atoms: C_16  and  N_17
REMARK                            x       y       z     vdW  Elec       q    Type
REMARK                         _______ _______ _______ _____ _____    ______ ____
ROOT
ATOM      1  C   UNL     1       8.158   0.770  22.791  0.00  0.00    +0.122 A 
ATOM      2  C   UNL     1       8.550  -0.588  22.382  0.00  0.00    +0.203 A 
ATOM      3  O   UNL     1       9.208  -0.760  21.359  0.00  0.00    -0.286 OA
ATOM      4  C   UNL     1       8.110  -1.718  23.227  0.00  0.00    +0.049 A 
ATOM      5  C   UNL     1       7.381  -1.470  24.403  0.00  0.00    +0.059 A 
ATOM      6  C   UNL     1       6.894  -2.595  25.095  0.00  0.00    +0.053 A 
ATOM      7  C   UNL     1       7.181  -3.928  24.732  0.00  0.00    +0.067 A 
ATOM      8  C   UNL     1       7.954  -4.100  23.573  0.00  0.00    +0.145 A 
ATOM      9  F   UNL     1       8.249  -5.331  23.123  0.00  0.00    -0.204 F 
ATOM     10  N   UNL     1       7.125  -0.118  24.838  0.00  0.00    -0.315 N 
ATOM     11  C   UNL     1       8.403  -3.022  22.816  0.00  0.00    +0.054 A 
ATOM     12  C   UNL     1       7.515   0.900  23.961  0.00  0.00    +0.110 A 
ENDROOT
BRANCH   7  13
ATOM     13  N   UNL     1       6.748  -4.965  25.536  0.00  0.00    -0.325 N 
ATOM     14  C   UNL     1       5.668  -5.884  25.140  0.00  0.00    +0.120 C 
ATOM     15  C   UNL     1       4.682  -6.057  26.316  0.00  0.00    +0.100 C 
ATOM     16  N   UNL     1       5.336  -6.524  27.554  0.00  0.00    -0.313 NA
ATOM     17  H   UNL     1       4.658  -6.509  28.314  0.00  0.00    +0.122 HD
ATOM     18  C   UNL     1       6.459  -5.627  27.895  0.00  0.00    +0.100 C 
ATOM     19  C   UNL     1       7.473  -5.399  26.742  0.00  0.00    +0.120 C 
ENDBRANCH   7  13
BRANCH  10  20
ATOM     20  C   UNL     1       6.539   0.250  26.103  0.00  0.00    +0.047 A 
ATOM     21  C   UNL     1       7.333   0.470  27.249  0.00  0.00    +0.029 A 
ATOM     22  C   UNL     1       6.755   0.797  28.480  0.00  0.00    +0.040 A 
ATOM     23  C   UNL     1       5.381   0.965  28.571  0.00  0.00    +0.124 A 
ATOM     24  F   UNL     1       4.831   1.296  29.745  0.00  0.00    -0.205 F 
ATOM     25  C   UNL     1       4.574   0.796  27.456  0.00  0.00    +0.040 A 
ATOM     26  C   UNL     1       5.149   0.427  26.236  0.00  0.00    +0.029 A 
ENDBRANCH  10  20
BRANCH   1  27
ATOM     27  C   UNL     1       8.446   1.982  21.995  0.00  0.00    +0.342 C 
ATOM     28  O   UNL     1       7.620   2.859  21.787  0.00  0.00    -0.245 OA
BRANCH  27  29
ATOM     29  O   UNL     1       9.699   2.042  21.494  0.00  0.00    -0.477 OA
ATOM     30  H   UNL     1      10.171   1.174  21.478  0.00  0.00    +0.295 HD
ENDBRANCH  27  29
ENDBRANCH   1  27
TORSDOF 4
ENDMDL
MODEL 7
REMARK VINA RESULT:      -6.6      4.663      7.241
REMARK  Name = 
REMARK  4 active torsions:
REMARK  status: ('A' for Active; 'I' for Inactive)
REMARK    1  A    between atoms: O_1  and  C_2
REMARK    2  A    between atoms: C_2  and  C_4
REMARK    3  A    between atoms: N_6  and  C_7
REMARK    4  A    between atoms: C_16  and  N_17
REMARK                            x       y       z     vdW  Elec       q    Type
REMARK                         _______ _______ _______ _____ _____    ______ ____
ROOT
ATOM      1  C   UNL     1       9.252   0.840  23.187  0.00  0.00    +0.122 A 
ATOM      2  C   UNL     1       9.324  -0.496  22.574  0.00  0.00    +0.203 A 
ATOM      3  O   UNL     1      10.191  -0.747  21.741  0.00  0.00    -0.286 OA
ATOM      4  C   UNL     1       8.316  -1.497  22.979  0.00  0.00    +0.049 A 
ATOM      5  C   UNL     1       7.359  -1.172  23.955  0.00  0.00    +0.059 A 
ATOM      6  C   UNL     1       6.359  -2.130  24.207  0.00  0.00    +0.053 A 
ATOM      7  C   UNL     1       6.330  -3.411  23.616  0.00  0.00    +0.067 A 
ATOM      8  C   UNL     1       7.344  -3.686  22.685  0.00  0.00    +0.145 A 
ATOM      9  F   UNL     1       7.380  -4.863  22.039  0.00  0.00    -0.204 F 
ATOM     10  N   UNL     1       7.399   0.105  24.626  0.00  0.00    -0.315 N 
ATOM     11  C   UNL     1       8.317  -2.747  22.351  0.00  0.00    +0.054 A 
ATOM     12  C   UNL     1       8.339   1.027  24.151  0.00  0.00    +0.110 A 
ENDROOT
BRANCH   7  13
ATOM     13  N   UNL     1       5.369  -4.324  24.007  0.00  0.00    -0.325 N 
ATOM     14  C   UNL     1       5.694  -5.562  24.735  0.00  0.00    +0.120 C 
ATOM     15  C   UNL     1       4.945  -6.749  24.091  0.00  0.00    +0.100 C 
ATOM     16  N   UNL     1       3.484  -6.546  24.033  0.00  0.00    -0.313 NA
ATOM     17  H   UNL     1       3.064  -7.307  23.500  0.00  0.00    +0.122 HD
ATOM     18  C   UNL     1       3.183  -5.266  23.360  0.00  0.00    +0.100 C 
ATOM     19  C   UNL     1       3.926  -4.039  23.953  0.00  0.00    +0.120 C 
ENDBRANCH   7  13
BRANCH  10  20
ATOM     20  C   UNL     1       6.578   0.478  25.752  0.00  0.00    +0.047 A 
ATOM     21  C   UNL     1       7.003   0.263  27.079  0.00  0.00    +0.029 A 
ATOM     22  C   UNL     1       6.189   0.599  28.166  0.00  0.00    +0.040 A 
ATOM     23  C   UNL     1       4.962   1.207  27.943  0.00  0.00    +0.124 A 
ATOM     24  F   UNL     1       4.191   1.545  28.983  0.00  0.00    -0.205 F 
ATOM     25  C   UNL     1       4.529   1.470  26.652  0.00  0.00    +0.040 A 
ATOM     26  C   UNL     1       5.326   1.094  25.565  0.00  0.00    +0.029 A 
ENDBRANCH  10  20
BRANCH   1  27
ATOM     27  C   UNL     1      10.133   1.965  22.809  0.00  0.00    +0.342 C 
ATOM     28  O   UNL     1      10.771   2.619  23.621  0.00  0.00    -0.245 OA
BRANCH  27  29
ATOM     29  O   UNL     1      10.168   2.232  21.485  0.00  0.00    -0.477 OA
ATOM     30  H   UNL     1      10.894   1.771  20.998  0.00  0.00    +0.295 HD
ENDBRANCH  27  29
ENDBRANCH   1  27
TORSDOF 4
ENDMDL
MODEL 8
REMARK VINA RESULT:      -6.5      5.975      9.226
REMARK  Name = 
REMARK  4 active torsions:
REMARK  status: ('A' for Active; 'I' for Inactive)
REMARK    1  A    between atoms: O_1  and  C_2
REMARK    2  A    between atoms: C_2  and  C_4
REMARK    3  A    between atoms: N_6  and  C_7
REMARK    4  A    between atoms: C_16  and  N_17
REMARK                            x       y       z     vdW  Elec       q    Type
REMARK                         _______ _______ _______ _____ _____    ______ ____
ROOT
ATOM      1  C   UNL     1       6.589  -4.757  27.438  0.00  0.00    +0.122 A 
ATOM      2  C   UNL     1       7.606  -4.775  26.375  0.00  0.00    +0.203 A 
ATOM      3  O   UNL     1       8.208  -5.814  26.114  0.00  0.00    -0.286 OA
ATOM      4  C   UNL     1       7.882  -3.512  25.660  0.00  0.00    +0.049 A 
ATOM      5  C   UNL     1       7.149  -2.355  25.975  0.00  0.00    +0.059 A 
ATOM      6  C   UNL     1       7.544  -1.162  25.340  0.00  0.00    +0.053 A 
ATOM      7  C   UNL     1       8.547  -1.092  24.351  0.00  0.00    +0.067 A 
ATOM      8  C   UNL     1       9.207  -2.295  24.052  0.00  0.00    +0.145 A 
ATOM      9  F   UNL     1      10.204  -2.325  23.153  0.00  0.00    -0.204 F 
ATOM     10  N   UNL     1       6.072  -2.406  26.934  0.00  0.00    -0.315 N 
ATOM     11  C   UNL     1       8.899  -3.488  24.700  0.00  0.00    +0.054 A 
ATOM     12  C   UNL     1       5.906  -3.616  27.617  0.00  0.00    +0.110 A 
ENDROOT
BRANCH   7  13
ATOM     13  N   UNL     1       8.791   0.106  23.706  0.00  0.00    -0.325 N 
ATOM     14  C   UNL     1       8.208   0.439  22.396  0.00  0.00    +0.120 C 
ATOM     15  C   UNL     1       9.307   1.016  21.476  0.00  0.00    +0.100 C 
ATOM     16  N   UNL     1       9.988   2.189  22.058  0.00  0.00    -0.313 NA
ATOM     17  H   UNL     1      10.770   2.450  21.458  0.00  0.00    +0.122 HD
ATOM     18  C   UNL     1      10.505   1.853  23.400  0.00  0.00    +0.100 C 
ATOM     19  C   UNL     1       9.448   1.248  24.363  0.00  0.00    +0.120 C 
ENDBRANCH   7  13
BRANCH  10  20
ATOM     20  C   UNL     1       5.152  -1.329  27.208  0.00  0.00    +0.047 A 
ATOM     21  C   UNL     1       3.783  -1.428  26.884  0.00  0.00    +0.029 A 
ATOM     22  C   UNL     1       2.901  -0.368  27.124  0.00  0.00    +0.040 A 
ATOM     23  C   UNL     1       3.366   0.783  27.744  0.00  0.00    +0.124 A 
ATOM     24  F   UNL     1       2.518   1.789  27.990  0.00  0.00    -0.205 F 
ATOM     25  C   UNL     1       4.697   0.899  28.113  0.00  0.00    +0.040 A 
ATOM     26  C   UNL     1       5.585  -0.145  27.833  0.00  0.00    +0.029 A 
ENDBRANCH  10  20
BRANCH   1  27
ATOM     27  C   UNL     1       6.277  -5.919  28.297  0.00  0.00    +0.342 C 
ATOM     28  O   UNL     1       6.489  -5.938  29.500  0.00  0.00    -0.245 OA
BRANCH  27  29
ATOM     29  O   UNL     1       5.751  -6.977  27.642  0.00  0.00    -0.477 OA
ATOM     30  H   UNL     1       5.836  -6.928  26.659  0.00  0.00    +0.295 HD
ENDBRANCH  27  29
ENDBRANCH   1  27
TORSDOF 4
ENDMDL
MODEL 9
REMARK VINA RESULT:      -6.4      5.898      7.695
REMARK  Name = 
REMARK  4 active torsions:
REMARK  status: ('A' for Active; 'I' for Inactive)
REMARK    1  A    between atoms: O_1  and  C_2
REMARK    2  A    between atoms: C_2  and  C_4
REMARK    3  A    between atoms: N_6  and  C_7
REMARK    4  A    between atoms: C_16  and  N_17
REMARK                            x       y       z     vdW  Elec       q    Type
REMARK                         _______ _______ _______ _____ _____    ______ ____
ROOT
ATOM      1  C   UNL     1       6.044  -4.396  22.385  0.00  0.00    +0.122 A 
ATOM      2  C   UNL     1       5.239  -4.457  23.615  0.00  0.00    +0.203 A 
ATOM      3  O   UNL     1       4.612  -5.476  23.893  0.00  0.00    -0.286 OA
ATOM      4  C   UNL     1       5.199  -3.256  24.475  0.00  0.00    +0.049 A 
ATOM      5  C   UNL     1       5.954  -2.122  24.129  0.00  0.00    +0.059 A 
ATOM      6  C   UNL     1       5.778  -0.976  24.927  0.00  0.00    +0.053 A 
ATOM      7  C   UNL     1       4.979  -0.941  26.090  0.00  0.00    +0.067 A 
ATOM      8  C   UNL     1       4.290  -2.125  26.402  0.00  0.00    +0.145 A 
ATOM      9  F   UNL     1       3.474  -2.180  27.467  0.00  0.00    -0.204 F 
ATOM     10  N   UNL     1       6.831  -2.145  22.983  0.00  0.00    -0.315 N 
ATOM     11  C   UNL     1       4.378  -3.264  25.607  0.00  0.00    +0.054 A 
ATOM     12  C   UNL     1       6.773  -3.289  22.180  0.00  0.00    +0.110 A 
ENDROOT
BRANCH   7  13
ATOM     13  N   UNL     1       4.954   0.199  26.869  0.00  0.00    -0.325 N 
ATOM     14  C   UNL     1       3.954   1.266  26.691  0.00  0.00    +0.120 C 
ATOM     15  C   UNL     1       4.661   2.639  26.695  0.00  0.00    +0.100 C 
ATOM     16  N   UNL     1       5.461   2.872  27.914  0.00  0.00    -0.313 NA
ATOM     17  H   UNL     1       5.987   3.738  27.805  0.00  0.00    +0.122 HD
ATOM     18  C   UNL     1       6.409   1.757  28.111  0.00  0.00    +0.100 C 
ATOM     19  C   UNL     1       5.756   0.348  28.095  0.00  0.00    +0.120 C 
ENDBRANCH   7  13
BRANCH  10  20
ATOM     20  C   UNL     1       7.770  -1.107  22.635  0.00  0.00    +0.047 A 
ATOM     21  C   UNL     1       9.129  -1.392  22.388  0.00  0.00    +0.029 A 
ATOM     22  C   UNL     1      10.040  -0.376  22.081  0.00  0.00    +0.040 A 
ATOM     23  C   UNL     1       9.595   0.932  21.961  0.00  0.00    +0.124 A 
ATOM     24  F   UNL     1      10.463   1.901  21.649  0.00  0.00    -0.205 F 
ATOM     25  C   UNL     1       8.258   1.244  22.158  0.00  0.00    +0.040 A 
ATOM     26  C   UNL     1       7.356   0.233  22.507  0.00  0.00    +0.029 A 
ENDBRANCH  10  20
BRANCH   1  27
ATOM     27  C   UNL     1       6.100  -5.484  21.386  0.00  0.00    +0.342 C 
ATOM     28  O   UNL     1       5.941  -5.303  20.188  0.00  0.00    -0.245 OA
BRANCH  27  29
ATOM     29  O   UNL     1       6.325  -6.712  21.903  0.00  0.00    -0.477 OA
ATOM     30  H   UNL     1       6.796  -7.329  21.291  0.00  0.00    +0.295 HD
ENDBRANCH  27  29
ENDBRANCH   1  27
TORSDOF 4
ENDMDL
