MODEL 1
REMARK VINA RESULT:      -6.9      0.000      0.000
REMARK  Name = 
REMARK  11 active torsions:
REMARK  status: ('A' for Active; 'I' for Inactive)
REMARK    1  A    between atoms: C_1  and  C_2
REMARK    2  A    between atoms: C_2  and  C_3
REMARK    3  A    between atoms: C_3  and  C_4
REMARK    4  A    between atoms: C_4  and  O_5
REMARK    5  A    between atoms: O_5  and  C_6
REMARK    6  A    between atoms: C_8  and  N_9
REMARK    7  A    between atoms: N_9  and  C_10
REMARK    8  A    between atoms: C_10  and  C_11
REMARK    9  A    between atoms: C_11  and  N_12
REMARK   10  A    between atoms: N_21  and  C_22
REMARK   11  A    between atoms: C_22  and  C_23
REMARK                            x       y       z     vdW  Elec       q    Type
REMARK                         _______ _______ _______ _____ _____    ______ ____
ROOT
ATOM      1  C   UNL     1       7.589  -4.370  26.574  0.00  0.00    +0.322 A 
ATOM      2  N   UNL     1       8.111  -3.122  26.579  0.00  0.00    -0.175 NA
ATOM      3  C   UNL     1       8.680  -2.837  25.393  0.00  0.00    +0.169 A 
ATOM      4  C   UNL     1       8.788  -3.676  24.293  0.00  0.00    +0.148 A 
ATOM      5  N   UNL     1       9.542  -3.091  23.296  0.00  0.00    -0.231 NA
ATOM      6  C   UNL     1       9.839  -1.897  23.756  0.00  0.00    +0.202 A 
ATOM      7  C   UNL     1       8.095  -4.898  24.359  0.00  0.00    +0.153 A 
ATOM      8  N   UNL     1       9.254  -1.662  24.974  0.00  0.00    -0.310 N 
ATOM      9  N   UNL     1       7.512  -5.229  25.536  0.00  0.00    -0.178 NA
ENDROOT
BRANCH   7  10
ATOM     10  N   UNL     1       7.986  -5.718  23.240  0.00  0.00    -0.326 N 
ATOM     11  H   UNL     1       7.978  -6.703  23.503  0.00  0.00    +0.148 HD
BRANCH  10  12
ATOM     12  C   UNL     1       6.985  -5.377  22.240  0.00  0.00    +0.118 C 
BRANCH  12  13
ATOM     13  C   UNL     1       5.587  -5.808  22.755  0.00  0.00    +0.103 C 
BRANCH  13  14
ATOM     14  N   UNL     1       4.580  -4.747  22.566  0.00  0.00    -0.297 NA
ATOM     15  C   UNL     1       5.126  -3.386  22.723  0.00  0.00    +0.112 C 
ATOM     16  C   UNL     1       5.143  -2.829  24.157  0.00  0.00    +0.175 C 
ATOM     17  O   UNL     1       3.871  -2.972  24.798  0.00  0.00    -0.377 OA
ATOM     18  C   UNL     1       3.493  -4.350  24.826  0.00  0.00    +0.175 C 
ATOM     19  C   UNL     1       3.377  -4.919  23.404  0.00  0.00    +0.112 C 
ENDBRANCH  13  14
ENDBRANCH  12  13
ENDBRANCH  10  12
ENDBRANCH   7  10
BRANCH   1  20
ATOM     20  O   UNL     1       7.223  -4.954  27.768  0.00  0.00    -0.462 OA
BRANCH  20  21
ATOM     21  C   UNL     1       5.953  -5.599  27.756  0.00  0.00    +0.232 C 
BRANCH  21  22
ATOM     22  C   UNL     1       5.930  -6.528  28.975  0.00  0.00    +0.041 C 
BRANCH  22  24
ATOM     23  C   UNL     1       4.548  -4.736  30.087  0.00  0.00    +0.004 C 
ATOM     24  C   UNL     1       5.625  -5.796  30.278  0.00  0.00    -0.000 C 
ENDBRANCH  22  24
ENDBRANCH  21  22
ENDBRANCH  20  21
ENDBRANCH   1  20
BRANCH   8  25
ATOM     25  C   UNL     1       9.318  -0.409  25.696  0.00  0.00    +0.165 C 
BRANCH  25  26
ATOM     26  C   UNL     1       9.289   0.797  24.797  0.00  0.00    +0.043 A 
ATOM     27  C   UNL     1      10.462   1.394  24.332  0.00  0.00    +0.131 A 
ATOM     28  F   UNL     1      11.650   0.820  24.598  0.00  0.00    -0.205 F 
ATOM     29  C   UNL     1      10.444   2.595  23.607  0.00  0.00    +0.039 A 
ATOM     30  C   UNL     1       9.229   3.214  23.331  0.00  0.00    +0.006 A 
ATOM     31  C   UNL     1       8.046   2.606  23.736  0.00  0.00    +0.039 A 
ATOM     32  C   UNL     1       8.083   1.412  24.456  0.00  0.00    +0.131 A 
ATOM     33  F   UNL     1       6.925   0.875  24.860  0.00  0.00    -0.205 F 
ENDBRANCH  25  26
ENDBRANCH   8  25
TORSDOF 10
ENDMDL
MODEL 2
REMARK VINA RESULT:      -6.8      1.925      4.253
REMARK  Name = 
REMARK  11 active torsions:
REMARK  status: ('A' for Active; 'I' for Inactive)
REMARK    1  A    between atoms: C_1  and  C_2
REMARK    2  A    between atoms: C_2  and  C_3
REMARK    3  A    between atoms: C_3  and  C_4
REMARK    4  A    between atoms: C_4  and  O_5
REMARK    5  A    between atoms: O_5  and  C_6
REMARK    6  A    between atoms: C_8  and  N_9
REMARK    7  A    between atoms: N_9  and  C_10
REMARK    8  A    between atoms: C_10  and  C_11
REMARK    9  A    between atoms: C_11  and  N_12
REMARK   10  A    between atoms: N_21  and  C_22
REMARK   11  A    between atoms: C_22  and  C_23
REMARK                            x       y       z     vdW  Elec       q    Type
REMARK                         _______ _______ _______ _____ _____    ______ ____
ROOT
ATOM      1  C   UNL     1       7.918  -3.160  22.807  0.00  0.00    +0.322 A 
ATOM      2  N   UNL     1       8.419  -1.943  22.495  0.00  0.00    -0.175 NA
ATOM      3  C   UNL     1       8.909  -1.331  23.591  0.00  0.00    +0.169 A 
ATOM      4  C   UNL     1       8.895  -1.810  24.893  0.00  0.00    +0.148 A 
ATOM      5  N   UNL     1       9.372  -0.862  25.774  0.00  0.00    -0.231 NA
ATOM      6  C   UNL     1       9.724   0.153  25.018  0.00  0.00    +0.202 A 
ATOM      7  C   UNL     1       8.469  -3.139  25.075  0.00  0.00    +0.153 A 
ATOM      8  N   UNL     1       9.558  -0.125  23.685  0.00  0.00    -0.310 N 
ATOM      9  N   UNL     1       7.962  -3.790  24.000  0.00  0.00    -0.178 NA
ENDROOT
BRANCH   7  10
ATOM     10  N   UNL     1       8.599  -3.767  26.309  0.00  0.00    -0.326 N 
ATOM     11  H   UNL     1       8.355  -3.136  27.072  0.00  0.00    +0.148 HD
BRANCH  10  12
ATOM     12  C   UNL     1       8.037  -5.101  26.457  0.00  0.00    +0.118 C 
BRANCH  12  13
ATOM     13  C   UNL     1       6.751  -5.017  27.321  0.00  0.00    +0.103 C 
BRANCH  13  14
ATOM     14  N   UNL     1       6.188  -6.351  27.599  0.00  0.00    -0.297 NA
ATOM     15  C   UNL     1       5.019  -6.681  26.763  0.00  0.00    +0.112 C 
ATOM     16  C   UNL     1       3.654  -6.219  27.304  0.00  0.00    +0.175 C 
ATOM     17  O   UNL     1       3.462  -6.609  28.667  0.00  0.00    -0.377 OA
ATOM     18  C   UNL     1       4.505  -6.065  29.479  0.00  0.00    +0.175 C 
ATOM     19  C   UNL     1       5.881  -6.577  29.026  0.00  0.00    +0.112 C 
ENDBRANCH  13  14
ENDBRANCH  12  13
ENDBRANCH  10  12
ENDBRANCH   7  10
BRANCH   1  20
ATOM     20  O   UNL     1       7.121  -3.817  21.896  0.00  0.00    -0.462 OA
BRANCH  20  21
ATOM     21  C   UNL     1       7.206  -5.238  21.936  0.00  0.00    +0.232 C 
BRANCH  21  22
ATOM     22  C   UNL     1       5.774  -5.760  21.774  0.00  0.00    +0.041 C 
BRANCH  22  24
ATOM     23  C   UNL     1       4.067  -4.799  23.361  0.00  0.00    +0.004 C 
ATOM     24  C   UNL     1       5.048  -5.935  23.104  0.00  0.00    -0.000 C 
ENDBRANCH  22  24
ENDBRANCH  21  22
ENDBRANCH  20  21
ENDBRANCH   1  20
BRANCH   8  25
ATOM     25  C   UNL     1       9.939   0.755  22.601  0.00  0.00    +0.165 C 
BRANCH  25  26
ATOM     26  C   UNL     1       9.381   2.145  22.741  0.00  0.00    +0.043 A 
ATOM     27  C   UNL     1      10.090   3.158  23.388  0.00  0.00    +0.131 A 
ATOM     28  F   UNL     1      11.349   2.927  23.805  0.00  0.00    -0.205 F 
ATOM     29  C   UNL     1       9.520   4.415  23.641  0.00  0.00    +0.039 A 
ATOM     30  C   UNL     1       8.216   4.673  23.233  0.00  0.00    +0.006 A 
ATOM     31  C   UNL     1       7.513   3.697  22.536  0.00  0.00    +0.039 A 
ATOM     32  C   UNL     1       8.095   2.454  22.294  0.00  0.00    +0.131 A 
ATOM     33  F   UNL     1       7.374   1.527  21.651  0.00  0.00    -0.205 F 
ENDBRANCH  25  26
ENDBRANCH   8  25
TORSDOF 10
ENDMDL
MODEL 3
REMARK VINA RESULT:      -6.8      0.602      1.642
REMARK  Name = 
REMARK  11 active torsions:
REMARK  status: ('A' for Active; 'I' for Inactive)
REMARK    1  A    between atoms: C_1  and  C_2
REMARK    2  A    between atoms: C_2  and  C_3
REMARK    3  A    between atoms: C_3  and  C_4
REMARK    4  A    between atoms: C_4  and  O_5
REMARK    5  A    between atoms: O_5  and  C_6
REMARK    6  A    between atoms: C_8  and  N_9
REMARK    7  A    between atoms: N_9  and  C_10
REMARK    8  A    between atoms: C_10  and  C_11
REMARK    9  A    between atoms: C_11  and  N_12
REMARK   10  A    between atoms: N_21  and  C_22
REMARK   11  A    between atoms: C_22  and  C_23
REMARK                            x       y       z     vdW  Elec       q    Type
REMARK                         _______ _______ _______ _____ _____    ______ ____
ROOT
ATOM      1  C   UNL     1       7.813  -4.475  26.435  0.00  0.00    +0.322 A 
ATOM      2  N   UNL     1       8.335  -3.227  26.457  0.00  0.00    -0.175 NA
ATOM      3  C   UNL     1       8.800  -2.881  25.241  0.00  0.00    +0.169 A 
ATOM      4  C   UNL     1       8.811  -3.664  24.096  0.00  0.00    +0.148 A 
ATOM      5  N   UNL     1       9.477  -3.028  23.069  0.00  0.00    -0.231 NA
ATOM      6  C   UNL     1       9.815  -1.858  23.560  0.00  0.00    +0.202 A 
ATOM      7  C   UNL     1       8.125  -4.891  24.161  0.00  0.00    +0.153 A 
ATOM      8  N   UNL     1       9.337  -1.686  24.834  0.00  0.00    -0.310 N 
ATOM      9  N   UNL     1       7.646  -5.281  25.366  0.00  0.00    -0.178 NA
ENDROOT
BRANCH   7  10
ATOM     10  N   UNL     1       7.919  -5.654  23.016  0.00  0.00    -0.326 N 
ATOM     11  H   UNL     1       7.917  -6.651  23.232  0.00  0.00    +0.148 HD
BRANCH  10  12
ATOM     12  C   UNL     1       6.849  -5.255  22.114  0.00  0.00    +0.118 C 
BRANCH  12  13
ATOM     13  C   UNL     1       5.495  -5.758  22.679  0.00  0.00    +0.103 C 
BRANCH  13  14
ATOM     14  N   UNL     1       4.458  -4.710  22.636  0.00  0.00    -0.297 NA
ATOM     15  C   UNL     1       4.959  -3.374  23.006  0.00  0.00    +0.112 C 
ATOM     16  C   UNL     1       4.941  -3.041  24.509  0.00  0.00    +0.175 C 
ATOM     17  O   UNL     1       3.667  -3.316  25.099  0.00  0.00    -0.377 OA
ATOM     18  C   UNL     1       3.332  -4.693  24.912  0.00  0.00    +0.175 C 
ATOM     19  C   UNL     1       3.251  -5.042  23.418  0.00  0.00    +0.112 C 
ENDBRANCH  13  14
ENDBRANCH  12  13
ENDBRANCH  10  12
ENDBRANCH   7  10
BRANCH   1  20
ATOM     20  O   UNL     1       7.549  -5.118  27.625  0.00  0.00    -0.462 OA
BRANCH  20  21
ATOM     21  C   UNL     1       6.222  -5.616  27.758  0.00  0.00    +0.232 C 
BRANCH  21  22
ATOM     22  C   UNL     1       5.340  -4.408  28.092  0.00  0.00    +0.041 C 
BRANCH  22  24
ATOM     23  C   UNL     1       2.949  -3.793  28.605  0.00  0.00    +0.004 C 
ATOM     24  C   UNL     1       4.077  -4.785  28.860  0.00  0.00    -0.000 C 
ENDBRANCH  22  24
ENDBRANCH  21  22
ENDBRANCH  20  21
ENDBRANCH   1  20
BRANCH   8  25
ATOM     25  C   UNL     1       9.465  -0.470  25.609  0.00  0.00    +0.165 C 
BRANCH  25  26
ATOM     26  C   UNL     1       9.324   0.779  24.782  0.00  0.00    +0.043 A 
ATOM     27  C   UNL     1       8.073   1.297  24.444  0.00  0.00    +0.131 A 
ATOM     28  F   UNL     1       6.961   0.736  24.955  0.00  0.00    -0.205 F 
ATOM     29  C   UNL     1       7.934   2.380  23.562  0.00  0.00    +0.039 A 
ATOM     30  C   UNL     1       9.068   2.967  23.010  0.00  0.00    +0.006 A 
ATOM     31  C   UNL     1      10.325   2.502  23.379  0.00  0.00    +0.039 A 
ATOM     32  C   UNL     1      10.444   1.425  24.256  0.00  0.00    +0.131 A 
ATOM     33  F   UNL     1      11.671   0.983  24.560  0.00  0.00    -0.205 F 
ENDBRANCH  25  26
ENDBRANCH   8  25
TORSDOF 10
ENDMDL
MODEL 4
REMARK VINA RESULT:      -6.8      2.488      4.842
REMARK  Name = 
REMARK  11 active torsions:
REMARK  status: ('A' for Active; 'I' for Inactive)
REMARK    1  A    between atoms: C_1  and  C_2
REMARK    2  A    between atoms: C_2  and  C_3
REMARK    3  A    between atoms: C_3  and  C_4
REMARK    4  A    between atoms: C_4  and  O_5
REMARK    5  A    between atoms: O_5  and  C_6
REMARK    6  A    between atoms: C_8  and  N_9
REMARK    7  A    between atoms: N_9  and  C_10
REMARK    8  A    between atoms: C_10  and  C_11
REMARK    9  A    between atoms: C_11  and  N_12
REMARK   10  A    between atoms: N_21  and  C_22
REMARK   11  A    between atoms: C_22  and  C_23
REMARK                            x       y       z     vdW  Elec       q    Type
REMARK                         _______ _______ _______ _____ _____    ______ ____
ROOT
ATOM      1  C   UNL     1       6.194  -0.652  24.550  0.00  0.00    +0.322 A 
ATOM      2  N   UNL     1       7.396  -0.706  23.934  0.00  0.00    -0.175 NA
ATOM      3  C   UNL     1       8.073  -1.812  24.300  0.00  0.00    +0.169 A 
ATOM      4  C   UNL     1       7.667  -2.778  25.210  0.00  0.00    +0.148 A 
ATOM      5  N   UNL     1       8.668  -3.702  25.429  0.00  0.00    -0.231 NA
ATOM      6  C   UNL     1       9.642  -3.339  24.626  0.00  0.00    +0.202 A 
ATOM      7  C   UNL     1       6.347  -2.684  25.687  0.00  0.00    +0.153 A 
ATOM      8  N   UNL     1       9.289  -2.265  23.851  0.00  0.00    -0.310 N 
ATOM      9  N   UNL     1       5.632  -1.584  25.348  0.00  0.00    -0.178 NA
ENDROOT
BRANCH   7  10
ATOM     10  N   UNL     1       5.790  -3.706  26.450  0.00  0.00    -0.326 N 
ATOM     11  H   UNL     1       5.463  -3.357  27.351  0.00  0.00    +0.148 HD
BRANCH  10  12
ATOM     12  C   UNL     1       4.849  -4.606  25.800  0.00  0.00    +0.118 C 
BRANCH  12  13
ATOM     13  C   UNL     1       5.630  -5.567  24.865  0.00  0.00    +0.103 C 
BRANCH  13  14
ATOM     14  N   UNL     1       4.977  -5.705  23.550  0.00  0.00    -0.297 NA
ATOM     15  C   UNL     1       5.854  -6.284  22.516  0.00  0.00    +0.112 C 
ATOM     16  C   UNL     1       6.734  -5.285  21.744  0.00  0.00    +0.175 C 
ATOM     17  O   UNL     1       5.972  -4.183  21.241  0.00  0.00    -0.377 OA
ATOM     18  C   UNL     1       5.322  -3.510  22.321  0.00  0.00    +0.175 C 
ATOM     19  C   UNL     1       4.363  -4.454  23.062  0.00  0.00    +0.112 C 
ENDBRANCH  13  14
ENDBRANCH  12  13
ENDBRANCH  10  12
ENDBRANCH   7  10
BRANCH   1  20
ATOM     20  O   UNL     1       5.480   0.526  24.536  0.00  0.00    -0.462 OA
BRANCH  20  21
ATOM     21  C   UNL     1       6.269   1.706  24.426  0.00  0.00    +0.232 C 
BRANCH  21  22
ATOM     22  C   UNL     1       5.883   2.362  23.095  0.00  0.00    +0.041 C 
BRANCH  22  24
ATOM     23  C   UNL     1       6.880   4.558  22.360  0.00  0.00    +0.004 C 
ATOM     24  C   UNL     1       5.790   3.881  23.182  0.00  0.00    -0.000 C 
ENDBRANCH  22  24
ENDBRANCH  21  22
ENDBRANCH  20  21
ENDBRANCH   1  20
BRANCH   8  25
ATOM     25  C   UNL     1      10.110  -1.689  22.807  0.00  0.00    +0.165 C 
BRANCH  25  26
ATOM     26  C   UNL     1      10.142  -0.185  22.838  0.00  0.00    +0.043 A 
ATOM     27  C   UNL     1      10.587   0.516  23.960  0.00  0.00    +0.131 A 
ATOM     28  F   UNL     1      11.105  -0.159  25.003  0.00  0.00    -0.205 F 
ATOM     29  C   UNL     1      10.490   1.913  24.046  0.00  0.00    +0.039 A 
ATOM     30  C   UNL     1       9.945   2.631  22.986  0.00  0.00    +0.006 A 
ATOM     31  C   UNL     1       9.549   1.956  21.837  0.00  0.00    +0.039 A 
ATOM     32  C   UNL     1       9.652   0.568  21.770  0.00  0.00    +0.131 A 
ATOM     33  F   UNL     1       9.226  -0.050  20.660  0.00  0.00    -0.205 F 
ENDBRANCH  25  26
ENDBRANCH   8  25
TORSDOF 10
ENDMDL
MODEL 5
REMARK VINA RESULT:      -6.8      2.555      4.047
REMARK  Name = 
REMARK  11 active torsions:
REMARK  status: ('A' for Active; 'I' for Inactive)
REMARK    1  A    between atoms: C_1  and  C_2
REMARK    2  A    between atoms: C_2  and  C_3
REMARK    3  A    between atoms: C_3  and  C_4
REMARK    4  A    between atoms: C_4  and  O_5
REMARK    5  A    between atoms: O_5  and  C_6
REMARK    6  A    between atoms: C_8  and  N_9
REMARK    7  A    between atoms: N_9  and  C_10
REMARK    8  A    between atoms: C_10  and  C_11
REMARK    9  A    between atoms: C_11  and  N_12
REMARK   10  A    between atoms: N_21  and  C_22
REMARK   11  A    between atoms: C_22  and  C_23
REMARK                            x       y       z     vdW  Elec       q    Type
REMARK                         _______ _______ _______ _____ _____    ______ ____
ROOT
ATOM      1  C   UNL     1       8.387  -0.764  26.557  0.00  0.00    +0.322 A 
ATOM      2  N   UNL     1       9.045  -0.007  25.650  0.00  0.00    -0.175 NA
ATOM      3  C   UNL     1       9.546  -0.772  24.662  0.00  0.00    +0.169 A 
ATOM      4  C   UNL     1       9.470  -2.153  24.552  0.00  0.00    +0.148 A 
ATOM      5  N   UNL     1      10.203  -2.605  23.474  0.00  0.00    -0.231 NA
ATOM      6  C   UNL     1      10.669  -1.517  22.905  0.00  0.00    +0.202 A 
ATOM      7  C   UNL     1       8.651  -2.818  25.483  0.00  0.00    +0.153 A 
ATOM      8  N   UNL     1      10.214  -0.383  23.527  0.00  0.00    -0.310 N 
ATOM      9  N   UNL     1       8.131  -2.088  26.498  0.00  0.00    -0.178 NA
ENDROOT
BRANCH   7  10
ATOM     10  N   UNL     1       8.361  -4.171  25.339  0.00  0.00    -0.326 N 
ATOM     11  H   UNL     1       9.073  -4.750  25.785  0.00  0.00    +0.148 HD
BRANCH  10  12
ATOM     12  C   UNL     1       7.001  -4.609  25.614  0.00  0.00    +0.118 C 
BRANCH  12  13
ATOM     13  C   UNL     1       6.374  -5.165  24.308  0.00  0.00    +0.103 C 
BRANCH  13  14
ATOM     14  N   UNL     1       7.189  -4.837  23.124  0.00  0.00    -0.297 NA
ATOM     15  C   UNL     1       6.809  -3.564  22.484  0.00  0.00    +0.112 C 
ATOM     16  C   UNL     1       5.689  -3.649  21.432  0.00  0.00    +0.175 C 
ATOM     17  O   UNL     1       5.940  -4.677  20.469  0.00  0.00    -0.377 OA
ATOM     18  C   UNL     1       6.071  -5.939  21.128  0.00  0.00    +0.175 C 
ATOM     19  C   UNL     1       7.241  -5.921  22.123  0.00  0.00    +0.112 C 
ENDBRANCH  13  14
ENDBRANCH  12  13
ENDBRANCH  10  12
ENDBRANCH   7  10
BRANCH   1  20
ATOM     20  O   UNL     1       8.053  -0.218  27.778  0.00  0.00    -0.462 OA
BRANCH  20  21
ATOM     21  C   UNL     1       6.764   0.383  27.835  0.00  0.00    +0.232 C 
BRANCH  21  22
ATOM     22  C   UNL     1       6.977   1.883  27.597  0.00  0.00    +0.041 C 
BRANCH  22  24
ATOM     23  C   UNL     1       5.621   1.354  25.538  0.00  0.00    +0.004 C 
ATOM     24  C   UNL     1       6.083   2.445  26.496  0.00  0.00    -0.000 C 
ENDBRANCH  22  24
ENDBRANCH  21  22
ENDBRANCH  20  21
ENDBRANCH   1  20
BRANCH   8  25
ATOM     25  C   UNL     1      10.476   0.969  23.081  0.00  0.00    +0.165 C 
BRANCH  25  26
ATOM     26  C   UNL     1       9.225   1.754  22.796  0.00  0.00    +0.043 A 
ATOM     27  C   UNL     1       8.485   1.556  21.629  0.00  0.00    +0.131 A 
ATOM     28  F   UNL     1       8.829   0.566  20.785  0.00  0.00    -0.205 F 
ATOM     29  C   UNL     1       7.397   2.376  21.294  0.00  0.00    +0.039 A 
ATOM     30  C   UNL     1       7.032   3.415  22.145  0.00  0.00    +0.006 A 
ATOM     31  C   UNL     1       7.720   3.593  23.339  0.00  0.00    +0.039 A 
ATOM     32  C   UNL     1       8.799   2.768  23.655  0.00  0.00    +0.131 A 
ATOM     33  F   UNL     1       9.460   2.994  24.798  0.00  0.00    -0.205 F 
ENDBRANCH  25  26
ENDBRANCH   8  25
TORSDOF 10
ENDMDL
MODEL 6
REMARK VINA RESULT:      -6.7      2.103      3.963
REMARK  Name = 
REMARK  11 active torsions:
REMARK  status: ('A' for Active; 'I' for Inactive)
REMARK    1  A    between atoms: C_1  and  C_2
REMARK    2  A    between atoms: C_2  and  C_3
REMARK    3  A    between atoms: C_3  and  C_4
REMARK    4  A    between atoms: C_4  and  O_5
REMARK    5  A    between atoms: O_5  and  C_6
REMARK    6  A    between atoms: C_8  and  N_9
REMARK    7  A    between atoms: N_9  and  C_10
REMARK    8  A    between atoms: C_10  and  C_11
REMARK    9  A    between atoms: C_11  and  N_12
REMARK   10  A    between atoms: N_21  and  C_22
REMARK   11  A    between atoms: C_22  and  C_23
REMARK                            x       y       z     vdW  Elec       q    Type
REMARK                         _______ _______ _______ _____ _____    ______ ____
ROOT
ATOM      1  C   UNL     1       8.457  -4.364  24.681  0.00  0.00    +0.322 A 
ATOM      2  N   UNL     1       9.070  -3.166  24.554  0.00  0.00    -0.175 NA
ATOM      3  C   UNL     1       8.574  -2.278  25.437  0.00  0.00    +0.169 A 
ATOM      4  C   UNL     1       7.549  -2.488  26.348  0.00  0.00    +0.148 A 
ATOM      5  N   UNL     1       7.223  -1.319  27.004  0.00  0.00    -0.231 NA
ATOM      6  C   UNL     1       8.071  -0.428  26.544  0.00  0.00    +0.202 A 
ATOM      7  C   UNL     1       7.078  -3.807  26.479  0.00  0.00    +0.153 A 
ATOM      8  N   UNL     1       8.971  -0.985  25.673  0.00  0.00    -0.310 N 
ATOM      9  N   UNL     1       7.546  -4.732  25.607  0.00  0.00    -0.178 NA
ENDROOT
BRANCH   7  10
ATOM     10  N   UNL     1       6.191  -4.150  27.494  0.00  0.00    -0.326 N 
ATOM     11  H   UNL     1       5.750  -3.322  27.895  0.00  0.00    +0.148 HD
BRANCH  10  12
ATOM     12  C   UNL     1       5.259  -5.240  27.244  0.00  0.00    +0.118 C 
BRANCH  12  13
ATOM     13  C   UNL     1       4.071  -4.709  26.401  0.00  0.00    +0.103 C 
BRANCH  13  14
ATOM     14  N   UNL     1       4.087  -5.248  25.028  0.00  0.00    -0.297 NA
ATOM     15  C   UNL     1       2.859  -4.955  24.267  0.00  0.00    +0.112 C 
ATOM     16  C   UNL     1       1.709  -5.965  24.429  0.00  0.00    +0.175 C 
ATOM     17  O   UNL     1       2.152  -7.311  24.230  0.00  0.00    -0.377 OA
ATOM     18  C   UNL     1       3.194  -7.622  25.157  0.00  0.00    +0.175 C 
ATOM     19  C   UNL     1       4.400  -6.690  24.964  0.00  0.00    +0.112 C 
ENDBRANCH  13  14
ENDBRANCH  12  13
ENDBRANCH  10  12
ENDBRANCH   7  10
BRANCH   1  20
ATOM     20  O   UNL     1       8.613  -5.311  23.693  0.00  0.00    -0.462 OA
BRANCH  20  21
ATOM     21  C   UNL     1       7.418  -5.663  23.003  0.00  0.00    +0.232 C 
BRANCH  21  22
ATOM     22  C   UNL     1       7.169  -4.551  21.977  0.00  0.00    +0.041 C 
BRANCH  22  24
ATOM     23  C   UNL     1       6.029  -2.416  22.682  0.00  0.00    +0.004 C 
ATOM     24  C   UNL     1       5.835  -3.841  22.178  0.00  0.00    -0.000 C 
ENDBRANCH  22  24
ENDBRANCH  21  22
ENDBRANCH  20  21
ENDBRANCH   1  20
BRANCH   8  25
ATOM     25  C   UNL     1      10.084  -0.283  25.069  0.00  0.00    +0.165 C 
BRANCH  25  26
ATOM     26  C   UNL     1       9.707   0.459  23.816  0.00  0.00    +0.043 A 
ATOM     27  C   UNL     1       9.178   1.750  23.859  0.00  0.00    +0.131 A 
ATOM     28  F   UNL     1       9.101   2.397  25.037  0.00  0.00    -0.205 F 
ATOM     29  C   UNL     1       8.699   2.392  22.708  0.00  0.00    +0.039 A 
ATOM     30  C   UNL     1       8.755   1.738  21.481  0.00  0.00    +0.006 A 
ATOM     31  C   UNL     1       9.331   0.475  21.408  0.00  0.00    +0.039 A 
ATOM     32  C   UNL     1       9.801  -0.148  22.562  0.00  0.00    +0.131 A 
ATOM     33  F   UNL     1      10.317  -1.380  22.457  0.00  0.00    -0.205 F 
ENDBRANCH  25  26
ENDBRANCH   8  25
TORSDOF 10
ENDMDL
MODEL 7
REMARK VINA RESULT:      -6.6      2.477      4.349
REMARK  Name = 
REMARK  11 active torsions:
REMARK  status: ('A' for Active; 'I' for Inactive)
REMARK    1  A    between atoms: C_1  and  C_2
REMARK    2  A    between atoms: C_2  and  C_3
REMARK    3  A    between atoms: C_3  and  C_4
REMARK    4  A    between atoms: C_4  and  O_5
REMARK    5  A    between atoms: O_5  and  C_6
REMARK    6  A    between atoms: C_8  and  N_9
REMARK    7  A    between atoms: N_9  and  C_10
REMARK    8  A    between atoms: C_10  and  C_11
REMARK    9  A    between atoms: C_11  and  N_12
REMARK   10  A    between atoms: N_21  and  C_22
REMARK   11  A    between atoms: C_22  and  C_23
REMARK                            x       y       z     vdW  Elec       q    Type
REMARK                         _______ _______ _______ _____ _____    ______ ____
ROOT
ATOM      1  C   UNL     1       6.036  -0.351  24.799  0.00  0.00    +0.322 A 
ATOM      2  N   UNL     1       6.840   0.283  23.915  0.00  0.00    -0.175 NA
ATOM      3  C   UNL     1       8.024  -0.349  23.807  0.00  0.00    +0.169 A 
ATOM      4  C   UNL     1       8.441  -1.472  24.508  0.00  0.00    +0.148 A 
ATOM      5  N   UNL     1       9.759  -1.767  24.230  0.00  0.00    -0.231 NA
ATOM      6  C   UNL     1      10.122  -0.877  23.336  0.00  0.00    +0.202 A 
ATOM      7  C   UNL     1       7.474  -2.118  25.300  0.00  0.00    +0.153 A 
ATOM      8  N   UNL     1       9.078  -0.065  22.974  0.00  0.00    -0.310 N 
ATOM      9  N   UNL     1       6.270  -1.514  25.441  0.00  0.00    -0.178 NA
ENDROOT
BRANCH   7  10
ATOM     10  N   UNL     1       7.741  -3.352  25.886  0.00  0.00    -0.326 N 
ATOM     11  H   UNL     1       8.091  -3.240  26.837  0.00  0.00    +0.148 HD
BRANCH  10  12
ATOM     12  C   UNL     1       6.738  -4.399  25.756  0.00  0.00    +0.118 C 
BRANCH  12  13
ATOM     13  C   UNL     1       6.980  -5.171  24.432  0.00  0.00    +0.103 C 
BRANCH  13  14
ATOM     14  N   UNL     1       5.748  -5.284  23.629  0.00  0.00    -0.297 NA
ATOM     15  C   UNL     1       5.932  -6.033  22.373  0.00  0.00    +0.112 C 
ATOM     16  C   UNL     1       6.399  -5.208  21.161  0.00  0.00    +0.175 C 
ATOM     17  O   UNL     1       5.597  -4.039  20.972  0.00  0.00    -0.377 OA
ATOM     18  C   UNL     1       5.640  -3.225  22.147  0.00  0.00    +0.175 C 
ATOM     19  C   UNL     1       5.094  -3.987  23.364  0.00  0.00    +0.112 C 
ENDBRANCH  13  14
ENDBRANCH  12  13
ENDBRANCH  10  12
ENDBRANCH   7  10
BRANCH   1  20
ATOM     20  O   UNL     1       4.906   0.288  25.263  0.00  0.00    -0.462 OA
BRANCH  20  21
ATOM     21  C   UNL     1       5.079   1.004  26.482  0.00  0.00    +0.232 C 
BRANCH  21  22
ATOM     22  C   UNL     1       4.685   2.456  26.189  0.00  0.00    +0.041 C 
BRANCH  22  24
ATOM     23  C   UNL     1       7.079   3.023  26.738  0.00  0.00    +0.004 C 
ATOM     24  C   UNL     1       5.879   3.343  25.856  0.00  0.00    -0.000 C 
ENDBRANCH  22  24
ENDBRANCH  21  22
ENDBRANCH  20  21
ENDBRANCH   1  20
BRANCH   8  25
ATOM     25  C   UNL     1       9.137   0.953  21.947  0.00  0.00    +0.165 C 
BRANCH  25  26
ATOM     26  C   UNL     1       8.984   2.350  22.485  0.00  0.00    +0.043 A 
ATOM     27  C   UNL     1       9.930   2.912  23.344  0.00  0.00    +0.131 A 
ATOM     28  F   UNL     1      11.064   2.239  23.616  0.00  0.00    -0.205 F 
ATOM     29  C   UNL     1       9.726   4.158  23.956  0.00  0.00    +0.039 A 
ATOM     30  C   UNL     1       8.555   4.865  23.701  0.00  0.00    +0.006 A 
ATOM     31  C   UNL     1       7.627   4.349  22.805  0.00  0.00    +0.039 A 
ATOM     32  C   UNL     1       7.847   3.109  22.206  0.00  0.00    +0.131 A 
ATOM     33  F   UNL     1       6.913   2.628  21.376  0.00  0.00    -0.205 F 
ENDBRANCH  25  26
ENDBRANCH   8  25
TORSDOF 10
ENDMDL
MODEL 8
REMARK VINA RESULT:      -6.5      2.080      4.442
REMARK  Name = 
REMARK  11 active torsions:
REMARK  status: ('A' for Active; 'I' for Inactive)
REMARK    1  A    between atoms: C_1  and  C_2
REMARK    2  A    between atoms: C_2  and  C_3
REMARK    3  A    between atoms: C_3  and  C_4
REMARK    4  A    between atoms: C_4  and  O_5
REMARK    5  A    between atoms: O_5  and  C_6
REMARK    6  A    between atoms: C_8  and  N_9
REMARK    7  A    between atoms: N_9  and  C_10
REMARK    8  A    between atoms: C_10  and  C_11
REMARK    9  A    between atoms: C_11  and  N_12
REMARK   10  A    between atoms: N_21  and  C_22
REMARK   11  A    between atoms: C_22  and  C_23
REMARK                            x       y       z     vdW  Elec       q    Type
REMARK                         _______ _______ _______ _____ _____    ______ ____
ROOT
ATOM      1  C   UNL     1       7.719  -2.424  22.550  0.00  0.00    +0.322 A 
ATOM      2  N   UNL     1       8.190  -1.179  22.311  0.00  0.00    -0.175 NA
ATOM      3  C   UNL     1       8.971  -0.760  23.325  0.00  0.00    +0.169 A 
ATOM      4  C   UNL     1       9.257  -1.443  24.499  0.00  0.00    +0.148 A 
ATOM      5  N   UNL     1       9.990  -0.656  25.363  0.00  0.00    -0.231 NA
ATOM      6  C   UNL     1      10.195   0.463  24.707  0.00  0.00    +0.202 A 
ATOM      7  C   UNL     1       8.819  -2.777  24.578  0.00  0.00    +0.153 A 
ATOM      8  N   UNL     1       9.687   0.406  23.435  0.00  0.00    -0.310 N 
ATOM      9  N   UNL     1       8.025  -3.239  23.581  0.00  0.00    -0.178 NA
ENDROOT
BRANCH   7  10
ATOM     10  N   UNL     1       9.218  -3.599  25.627  0.00  0.00    -0.326 N 
ATOM     11  H   UNL     1      10.145  -3.340  25.966  0.00  0.00    +0.148 HD
BRANCH  10  12
ATOM     12  C   UNL     1       8.262  -3.857  26.692  0.00  0.00    +0.118 C 
BRANCH  12  13
ATOM     13  C   UNL     1       7.580  -5.228  26.440  0.00  0.00    +0.103 C 
BRANCH  13  14
ATOM     14  N   UNL     1       6.226  -5.072  25.875  0.00  0.00    -0.297 NA
ATOM     15  C   UNL     1       5.478  -3.937  26.448  0.00  0.00    +0.112 C 
ATOM     16  C   UNL     1       4.684  -4.235  27.732  0.00  0.00    +0.175 C 
ATOM     17  O   UNL     1       3.864  -5.399  27.592  0.00  0.00    -0.377 OA
ATOM     18  C   UNL     1       4.675  -6.528  27.262  0.00  0.00    +0.175 C 
ATOM     19  C   UNL     1       5.416  -6.305  25.934  0.00  0.00    +0.112 C 
ENDBRANCH  13  14
ENDBRANCH  12  13
ENDBRANCH  10  12
ENDBRANCH   7  10
BRANCH   1  20
ATOM     20  O   UNL     1       6.684  -2.914  21.783  0.00  0.00    -0.462 OA
BRANCH  20  21
ATOM     21  C   UNL     1       5.482  -3.185  22.497  0.00  0.00    +0.232 C 
BRANCH  21  22
ATOM     22  C   UNL     1       5.177  -4.672  22.278  0.00  0.00    +0.041 C 
BRANCH  22  24
ATOM     23  C   UNL     1       7.047  -6.346  22.036  0.00  0.00    +0.004 C 
ATOM     24  C   UNL     1       6.150  -5.346  21.317  0.00  0.00    -0.000 C 
ENDBRANCH  22  24
ENDBRANCH  21  22
ENDBRANCH  20  21
ENDBRANCH   1  20
BRANCH   8  25
ATOM     25  C   UNL     1       9.832   1.445  22.437  0.00  0.00    +0.165 C 
BRANCH  25  26
ATOM     26  C   UNL     1       8.934   2.628  22.677  0.00  0.00    +0.043 A 
ATOM     27  C   UNL     1       7.658   2.706  22.116  0.00  0.00    +0.131 A 
ATOM     28  F   UNL     1       7.167   1.655  21.435  0.00  0.00    -0.205 F 
ATOM     29  C   UNL     1       6.872   3.863  22.224  0.00  0.00    +0.039 A 
ATOM     30  C   UNL     1       7.364   4.967  22.912  0.00  0.00    +0.006 A 
ATOM     31  C   UNL     1       8.609   4.890  23.525  0.00  0.00    +0.039 A 
ATOM     32  C   UNL     1       9.377   3.732  23.408  0.00  0.00    +0.131 A 
ATOM     33  F   UNL     1      10.586   3.708  23.983  0.00  0.00    -0.205 F 
ENDBRANCH  25  26
ENDBRANCH   8  25
TORSDOF 10
ENDMDL
MODEL 9
REMARK VINA RESULT:      -6.4      2.576      4.883
REMARK  Name = 
REMARK  11 active torsions:
REMARK  status: ('A' for Active; 'I' for Inactive)
REMARK    1  A    between atoms: C_1  and  C_2
REMARK    2  A    between atoms: C_2  and  C_3
REMARK    3  A    between atoms: C_3  and  C_4
REMARK    4  A    between atoms: C_4  and  O_5
REMARK    5  A    between atoms: O_5  and  C_6
REMARK    6  A    between atoms: C_8  and  N_9
REMARK    7  A    between atoms: N_9  and  C_10
REMARK    8  A    between atoms: C_10  and  C_11
REMARK    9  A    between atoms: C_11  and  N_12
REMARK   10  A    between atoms: N_21  and  C_22
REMARK   11  A    between atoms: C_22  and  C_23
REMARK                            x       y       z     vdW  Elec       q    Type
REMARK                         _______ _______ _______ _____ _____    ______ ____
ROOT
ATOM      1  C   UNL     1       4.939  -0.303  25.909  0.00  0.00    +0.322 A 
ATOM      2  N   UNL     1       6.288  -0.209  25.941  0.00  0.00    -0.175 NA
ATOM      3  C   UNL     1       6.850  -1.425  26.088  0.00  0.00    +0.169 A 
ATOM      4  C   UNL     1       6.192  -2.638  26.235  0.00  0.00    +0.148 A 
ATOM      5  N   UNL     1       7.087  -3.658  26.486  0.00  0.00    -0.231 NA
ATOM      6  C   UNL     1       8.269  -3.088  26.436  0.00  0.00    +0.202 A 
ATOM      7  C   UNL     1       4.797  -2.627  26.055  0.00  0.00    +0.153 A 
ATOM      8  N   UNL     1       8.180  -1.762  26.097  0.00  0.00    -0.310 N 
ATOM      9  N   UNL     1       4.190  -1.425  25.910  0.00  0.00    -0.178 NA
ENDROOT
BRANCH   7  10
ATOM     10  N   UNL     1       4.077  -3.816  25.995  0.00  0.00    -0.326 N 
ATOM     11  H   UNL     1       3.430  -3.897  26.780  0.00  0.00    +0.148 HD
BRANCH  10  12
ATOM     12  C   UNL     1       3.489  -4.192  24.718  0.00  0.00    +0.118 C 
BRANCH  12  13
ATOM     13  C   UNL     1       4.417  -5.216  24.013  0.00  0.00    +0.103 C 
BRANCH  13  14
ATOM     14  N   UNL     1       4.745  -4.803  22.636  0.00  0.00    -0.297 NA
ATOM     15  C   UNL     1       5.596  -5.771  21.919  0.00  0.00    +0.112 C 
ATOM     16  C   UNL     1       7.113  -5.603  22.110  0.00  0.00    +0.175 C 
ATOM     17  O   UNL     1       7.532  -4.254  21.883  0.00  0.00    -0.377 OA
ATOM     18  C   UNL     1       6.841  -3.375  22.773  0.00  0.00    +0.175 C 
ATOM     19  C   UNL     1       5.323  -3.446  22.548  0.00  0.00    +0.112 C 
ENDBRANCH  13  14
ENDBRANCH  12  13
ENDBRANCH  10  12
ENDBRANCH   7  10
BRANCH   1  20
ATOM     20  O   UNL     1       4.179   0.837  26.054  0.00  0.00    -0.462 OA
BRANCH  20  21
ATOM     21  C   UNL     1       4.883   2.059  25.853  0.00  0.00    +0.232 C 
BRANCH  21  22
ATOM     22  C   UNL     1       4.672   2.441  24.383  0.00  0.00    +0.041 C 
BRANCH  22  24
ATOM     23  C   UNL     1       5.714   3.431  22.311  0.00  0.00    +0.004 C 
ATOM     24  C   UNL     1       5.974   2.768  23.659  0.00  0.00    -0.000 C 
ENDBRANCH  22  24
ENDBRANCH  21  22
ENDBRANCH  20  21
ENDBRANCH   1  20
BRANCH   8  25
ATOM     25  C   UNL     1       9.311  -0.886  25.873  0.00  0.00    +0.165 C 
BRANCH  25  26
ATOM     26  C   UNL     1       9.406  -0.390  24.456  0.00  0.00    +0.043 A 
ATOM     27  C   UNL     1       9.775  -1.233  23.407  0.00  0.00    +0.131 A 
ATOM     28  F   UNL     1       9.945  -2.548  23.639  0.00  0.00    -0.205 F 
ATOM     29  C   UNL     1       9.997  -0.747  22.110  0.00  0.00    +0.039 A 
ATOM     30  C   UNL     1       9.841   0.610  21.848  0.00  0.00    +0.006 A 
ATOM     31  C   UNL     1       9.420   1.457  22.866  0.00  0.00    +0.039 A 
ATOM     32  C   UNL     1       9.203   0.957  24.149  0.00  0.00    +0.131 A 
ATOM     33  F   UNL     1       8.832   1.810  25.113  0.00  0.00    -0.205 F 
ENDBRANCH  25  26
ENDBRANCH   8  25
TORSDOF 10
ENDMDL
