MODEL 1
REMARK VINA RESULT:      -4.3      0.000      0.000
REMARK  Name = 
REMARK  13 active torsions:
REMARK  status: ('A' for Active; 'I' for Inactive)
REMARK    1  A    between atoms: C_2  and  O_3
REMARK    2  A    between atoms: C_2  and  C_4
REMARK    3  A    between atoms: C_2  and  C_13
REMARK    4  A    between atoms: C_4  and  C_5
REMARK    5  A    between atoms: C_5  and  C_6
REMARK    6  A    between atoms: C_6  and  C_7
REMARK    7  A    between atoms: C_7  and  C_8
REMARK    8  A    between atoms: C_8  and  C_9
REMARK    9  A    between atoms: C_9  and  C_10
REMARK   10  A    between atoms: C_10  and  C_11
REMARK   11  A    between atoms: C_11  and  C_12
REMARK   12  A    between atoms: C_13  and  C_14
REMARK   13  A    between atoms: C_14  and  O_15
REMARK                            x       y       z     vdW  Elec       q    Type
REMARK                         _______ _______ _______ _____ _____    ______ ____
ROOT
ATOM      1  C   UNL     1       7.807  -1.999  24.530  0.00  0.00    +0.032 C 
ENDROOT
BRANCH   1   2
ATOM      2  C   UNL     1       7.410  -3.093  25.530  0.00  0.00    +0.125 C 
BRANCH   2   3
ATOM      3  O   UNL     1       6.885  -4.227  24.824  0.00  0.00    -0.391 OA
ATOM      4  H   UNL     1       5.986  -4.386  25.171  0.00  0.00    +0.210 HD
ENDBRANCH   2   3
BRANCH   2   5
ATOM      5  C   UNL     1       8.631  -3.563  26.313  0.00  0.00    +0.151 C 
BRANCH   5   6
ATOM      6  C   UNL     1       9.055  -4.943  25.883  0.00  0.00    +0.307 C 
ATOM      7  O   UNL     1       9.826  -5.162  24.963  0.00  0.00    -0.251 OA
BRANCH   6   8
ATOM      8  O   UNL     1       8.455  -5.930  26.588  0.00  0.00    -0.481 OA
ATOM      9  H   UNL     1       7.579  -6.157  26.191  0.00  0.00    +0.295 HD
ENDBRANCH   6   8
ENDBRANCH   5   6
ENDBRANCH   2   5
ENDBRANCH   1   2
BRANCH   1  10
ATOM     10  C   UNL     1       9.273  -1.580  24.658  0.00  0.00    +0.003 C 
BRANCH  10  11
ATOM     11  C   UNL     1      10.023  -1.772  23.338  0.00  0.00    +0.000 C 
BRANCH  11  12
ATOM     12  C   UNL     1       9.081  -1.610  22.145  0.00  0.00    +0.000 C 
BRANCH  12  13
ATOM     13  C   UNL     1       9.469  -0.405  21.290  0.00  0.00    -0.000 C 
BRANCH  13  14
ATOM     14  C   UNL     1       8.972   0.898  21.917  0.00  0.00    -0.000 C 
BRANCH  14  15
ATOM     15  C   UNL     1      10.130   1.857  22.187  0.00  0.00    -0.000 C 
BRANCH  15  16
ATOM     16  C   UNL     1      10.442   1.946  23.680  0.00  0.00    -0.003 C 
ATOM     17  C   UNL     1       9.175   2.139  24.498  0.00  0.00    +0.004 C 
ENDBRANCH  15  16
ENDBRANCH  14  15
ENDBRANCH  13  14
ENDBRANCH  12  13
ENDBRANCH  11  12
ENDBRANCH  10  11
ENDBRANCH   1  10
TORSDOF 12
ENDMDL
MODEL 2
REMARK VINA RESULT:      -4.2      2.122      2.797
REMARK  Name = 
REMARK  13 active torsions:
REMARK  status: ('A' for Active; 'I' for Inactive)
REMARK    1  A    between atoms: C_2  and  O_3
REMARK    2  A    between atoms: C_2  and  C_4
REMARK    3  A    between atoms: C_2  and  C_13
REMARK    4  A    between atoms: C_4  and  C_5
REMARK    5  A    between atoms: C_5  and  C_6
REMARK    6  A    between atoms: C_6  and  C_7
REMARK    7  A    between atoms: C_7  and  C_8
REMARK    8  A    between atoms: C_8  and  C_9
REMARK    9  A    between atoms: C_9  and  C_10
REMARK   10  A    between atoms: C_10  and  C_11
REMARK   11  A    between atoms: C_11  and  C_12
REMARK   12  A    between atoms: C_13  and  C_14
REMARK   13  A    between atoms: C_14  and  O_15
REMARK                            x       y       z     vdW  Elec       q    Type
REMARK                         _______ _______ _______ _____ _____    ______ ____
ROOT
ATOM      1  C   UNL     1       8.101  -3.084  23.895  0.00  0.00    +0.032 C 
ENDROOT
BRANCH   1   2
ATOM      2  C   UNL     1       7.767  -4.554  23.610  0.00  0.00    +0.125 C 
BRANCH   2   3
ATOM      3  O   UNL     1       6.727  -4.994  24.496  0.00  0.00    -0.391 OA
ATOM      4  H   UNL     1       6.710  -4.368  25.246  0.00  0.00    +0.210 HD
ENDBRANCH   2   3
BRANCH   2   5
ATOM      5  C   UNL     1       7.253  -4.713  22.183  0.00  0.00    +0.151 C 
BRANCH   5   6
ATOM      6  C   UNL     1       5.812  -5.152  22.170  0.00  0.00    +0.307 C 
ATOM      7  O   UNL     1       4.865  -4.384  22.230  0.00  0.00    -0.251 OA
BRANCH   6   8
ATOM      8  O   UNL     1       5.663  -6.497  22.135  0.00  0.00    -0.481 OA
ATOM      9  H   UNL     1       4.797  -6.761  22.530  0.00  0.00    +0.295 HD
ENDBRANCH   6   8
ENDBRANCH   5   6
ENDBRANCH   2   5
ENDBRANCH   1   2
BRANCH   1  10
ATOM     10  C   UNL     1       9.605  -2.830  24.024  0.00  0.00    +0.003 C 
BRANCH  10  11
ATOM     11  C   UNL     1      10.096  -1.850  22.956  0.00  0.00    +0.000 C 
BRANCH  11  12
ATOM     12  C   UNL     1       8.932  -1.338  22.107  0.00  0.00    +0.000 C 
BRANCH  12  13
ATOM     13  C   UNL     1       9.372  -0.198  21.190  0.00  0.00    -0.000 C 
BRANCH  13  14
ATOM     14  C   UNL     1       8.981   1.160  21.773  0.00  0.00    -0.000 C 
BRANCH  14  15
ATOM     15  C   UNL     1      10.214   1.957  22.193  0.00  0.00    -0.000 C 
BRANCH  15  16
ATOM     16  C   UNL     1      10.057   2.524  23.603  0.00  0.00    -0.003 C 
ATOM     17  C   UNL     1       9.705   1.432  24.601  0.00  0.00    +0.004 C 
ENDBRANCH  15  16
ENDBRANCH  14  15
ENDBRANCH  13  14
ENDBRANCH  12  13
ENDBRANCH  11  12
ENDBRANCH  10  11
ENDBRANCH   1  10
TORSDOF 12
ENDMDL
MODEL 3
REMARK VINA RESULT:      -4.2      3.170      4.804
REMARK  Name = 
REMARK  13 active torsions:
REMARK  status: ('A' for Active; 'I' for Inactive)
REMARK    1  A    between atoms: C_2  and  O_3
REMARK    2  A    between atoms: C_2  and  C_4
REMARK    3  A    between atoms: C_2  and  C_13
REMARK    4  A    between atoms: C_4  and  C_5
REMARK    5  A    between atoms: C_5  and  C_6
REMARK    6  A    between atoms: C_6  and  C_7
REMARK    7  A    between atoms: C_7  and  C_8
REMARK    8  A    between atoms: C_8  and  C_9
REMARK    9  A    between atoms: C_9  and  C_10
REMARK   10  A    between atoms: C_10  and  C_11
REMARK   11  A    between atoms: C_11  and  C_12
REMARK   12  A    between atoms: C_13  and  C_14
REMARK   13  A    between atoms: C_14  and  O_15
REMARK                            x       y       z     vdW  Elec       q    Type
REMARK                         _______ _______ _______ _____ _____    ______ ____
ROOT
ATOM      1  C   UNL     1       5.990  -4.709  26.574  0.00  0.00    +0.032 C 
ENDROOT
BRANCH   1   2
ATOM      2  C   UNL     1       7.521  -4.785  26.603  0.00  0.00    +0.125 C 
BRANCH   2   3
ATOM      3  O   UNL     1       7.937  -5.844  27.478  0.00  0.00    -0.391 OA
ATOM      4  H   UNL     1       7.350  -6.604  27.301  0.00  0.00    +0.210 HD
ENDBRANCH   2   3
BRANCH   2   5
ATOM      5  C   UNL     1       8.063  -5.097  25.212  0.00  0.00    +0.151 C 
BRANCH   5   6
ATOM      6  C   UNL     1       9.520  -4.730  25.101  0.00  0.00    +0.307 C 
ATOM      7  O   UNL     1       9.944  -3.830  24.394  0.00  0.00    -0.251 OA
BRANCH   6   8
ATOM      8  O   UNL     1      10.331  -5.534  25.829  0.00  0.00    -0.481 OA
ATOM      9  H   UNL     1       9.992  -5.624  26.752  0.00  0.00    +0.295 HD
ENDBRANCH   6   8
ENDBRANCH   5   6
ENDBRANCH   2   5
ENDBRANCH   1   2
BRANCH   1  10
ATOM     10  C   UNL     1       5.385  -5.379  25.338  0.00  0.00    +0.003 C 
BRANCH  10  11
ATOM     11  C   UNL     1       4.311  -4.497  24.698  0.00  0.00    +0.000 C 
BRANCH  11  12
ATOM     12  C   UNL     1       4.171  -4.800  23.206  0.00  0.00    +0.000 C 
BRANCH  12  13
ATOM     13  C   UNL     1       5.263  -5.756  22.728  0.00  0.00    -0.000 C 
BRANCH  13  14
ATOM     14  C   UNL     1       6.159  -5.090  21.684  0.00  0.00    -0.000 C 
BRANCH  14  15
ATOM     15  C   UNL     1       6.000  -3.571  21.708  0.00  0.00    -0.000 C 
BRANCH  15  16
ATOM     16  C   UNL     1       7.233  -2.892  22.302  0.00  0.00    -0.003 C 
ATOM     17  C   UNL     1       6.858  -1.991  23.469  0.00  0.00    +0.004 C 
ENDBRANCH  15  16
ENDBRANCH  14  15
ENDBRANCH  13  14
ENDBRANCH  12  13
ENDBRANCH  11  12
ENDBRANCH  10  11
ENDBRANCH   1  10
TORSDOF 12
ENDMDL
MODEL 4
REMARK VINA RESULT:      -4.2      3.562      5.927
REMARK  Name = 
REMARK  13 active torsions:
REMARK  status: ('A' for Active; 'I' for Inactive)
REMARK    1  A    between atoms: C_2  and  O_3
REMARK    2  A    between atoms: C_2  and  C_4
REMARK    3  A    between atoms: C_2  and  C_13
REMARK    4  A    between atoms: C_4  and  C_5
REMARK    5  A    between atoms: C_5  and  C_6
REMARK    6  A    between atoms: C_6  and  C_7
REMARK    7  A    between atoms: C_7  and  C_8
REMARK    8  A    between atoms: C_8  and  C_9
REMARK    9  A    between atoms: C_9  and  C_10
REMARK   10  A    between atoms: C_10  and  C_11
REMARK   11  A    between atoms: C_11  and  C_12
REMARK   12  A    between atoms: C_13  and  C_14
REMARK   13  A    between atoms: C_14  and  O_15
REMARK                            x       y       z     vdW  Elec       q    Type
REMARK                         _______ _______ _______ _____ _____    ______ ____
ROOT
ATOM      1  C   UNL     1       9.514  -1.955  23.218  0.00  0.00    +0.032 C 
ENDROOT
BRANCH   1   2
ATOM      2  C   UNL     1      10.309  -0.907  22.429  0.00  0.00    +0.125 C 
BRANCH   2   3
ATOM      3  O   UNL     1       9.756  -0.771  21.112  0.00  0.00    -0.391 OA
ATOM      4  H   UNL     1       9.215   0.043  21.115  0.00  0.00    +0.210 HD
ENDBRANCH   2   3
BRANCH   2   5
ATOM      5  C   UNL     1      10.214   0.454  23.111  0.00  0.00    +0.151 C 
BRANCH   5   6
ATOM      6  C   UNL     1       9.469   1.442  22.252  0.00  0.00    +0.307 C 
ATOM      7  O   UNL     1       8.252   1.495  22.175  0.00  0.00    -0.251 OA
BRANCH   6   8
ATOM      8  O   UNL     1      10.285   2.241  21.526  0.00  0.00    -0.481 OA
ATOM      9  H   UNL     1      11.127   1.773  21.310  0.00  0.00    +0.295 HD
ENDBRANCH   6   8
ENDBRANCH   5   6
ENDBRANCH   2   5
ENDBRANCH   1   2
BRANCH   1  10
ATOM     10  C   UNL     1       9.039  -1.441  24.579  0.00  0.00    +0.003 C 
BRANCH  10  11
ATOM     11  C   UNL     1       7.522  -1.576  24.725  0.00  0.00    +0.000 C 
BRANCH  11  12
ATOM     12  C   UNL     1       6.834  -1.524  23.361  0.00  0.00    +0.000 C 
BRANCH  12  13
ATOM     13  C   UNL     1       5.795  -2.635  23.219  0.00  0.00    -0.000 C 
BRANCH  13  14
ATOM     14  C   UNL     1       6.030  -3.449  21.946  0.00  0.00    -0.000 C 
BRANCH  14  15
ATOM     15  C   UNL     1       7.090  -4.526  22.167  0.00  0.00    -0.000 C 
BRANCH  15  16
ATOM     16  C   UNL     1       6.937  -5.184  23.538  0.00  0.00    -0.003 C 
ATOM     17  C   UNL     1       8.254  -5.186  24.299  0.00  0.00    +0.004 C 
ENDBRANCH  15  16
ENDBRANCH  14  15
ENDBRANCH  13  14
ENDBRANCH  12  13
ENDBRANCH  11  12
ENDBRANCH  10  11
ENDBRANCH   1  10
TORSDOF 12
ENDMDL
MODEL 5
REMARK VINA RESULT:      -4.1      1.502      2.118
REMARK  Name = 
REMARK  13 active torsions:
REMARK  status: ('A' for Active; 'I' for Inactive)
REMARK    1  A    between atoms: C_2  and  O_3
REMARK    2  A    between atoms: C_2  and  C_4
REMARK    3  A    between atoms: C_2  and  C_13
REMARK    4  A    between atoms: C_4  and  C_5
REMARK    5  A    between atoms: C_5  and  C_6
REMARK    6  A    between atoms: C_6  and  C_7
REMARK    7  A    between atoms: C_7  and  C_8
REMARK    8  A    between atoms: C_8  and  C_9
REMARK    9  A    between atoms: C_9  and  C_10
REMARK   10  A    between atoms: C_10  and  C_11
REMARK   11  A    between atoms: C_11  and  C_12
REMARK   12  A    between atoms: C_13  and  C_14
REMARK   13  A    between atoms: C_14  and  O_15
REMARK                            x       y       z     vdW  Elec       q    Type
REMARK                         _______ _______ _______ _____ _____    ______ ____
ROOT
ATOM      1  C   UNL     1       7.304  -3.726  22.401  0.00  0.00    +0.032 C 
ENDROOT
BRANCH   1   2
ATOM      2  C   UNL     1       7.296  -4.867  23.426  0.00  0.00    +0.125 C 
BRANCH   2   3
ATOM      3  O   UNL     1       8.259  -5.863  23.050  0.00  0.00    -0.391 OA
ATOM      4  H   UNL     1       9.121  -5.572  23.405  0.00  0.00    +0.210 HD
ENDBRANCH   2   3
BRANCH   2   5
ATOM      5  C   UNL     1       7.691  -4.343  24.803  0.00  0.00    +0.151 C 
BRANCH   5   6
ATOM      6  C   UNL     1       8.925  -5.039  25.317  0.00  0.00    +0.307 C 
ATOM      7  O   UNL     1      10.048  -4.846  24.879  0.00  0.00    -0.251 OA
BRANCH   6   8
ATOM      8  O   UNL     1       8.662  -5.946  26.287  0.00  0.00    -0.481 OA
ATOM      9  H   UNL     1       9.118  -5.697  27.127  0.00  0.00    +0.295 HD
ENDBRANCH   6   8
ENDBRANCH   5   6
ENDBRANCH   2   5
ENDBRANCH   1   2
BRANCH   1  10
ATOM     10  C   UNL     1       7.562  -2.357  23.034  0.00  0.00    +0.003 C 
BRANCH  10  11
ATOM     11  C   UNL     1       8.645  -1.590  22.273  0.00  0.00    +0.000 C 
BRANCH  11  12
ATOM     12  C   UNL     1       9.959  -1.577  23.055  0.00  0.00    +0.000 C 
BRANCH  12  13
ATOM     13  C   UNL     1       9.715  -1.361  24.548  0.00  0.00    -0.000 C 
BRANCH  13  14
ATOM     14  C   UNL     1       9.677   0.129  24.890  0.00  0.00    -0.000 C 
BRANCH  14  15
ATOM     15  C   UNL     1      10.921   0.846  24.371  0.00  0.00    -0.000 C 
BRANCH  15  16
ATOM     16  C   UNL     1      10.552   2.116  23.605  0.00  0.00    -0.003 C 
ATOM     17  C   UNL     1       9.044   2.283  23.505  0.00  0.00    +0.004 C 
ENDBRANCH  15  16
ENDBRANCH  14  15
ENDBRANCH  13  14
ENDBRANCH  12  13
ENDBRANCH  11  12
ENDBRANCH  10  11
ENDBRANCH   1  10
TORSDOF 12
ENDMDL
MODEL 6
REMARK VINA RESULT:      -4.0      3.015      6.045
REMARK  Name = 
REMARK  13 active torsions:
REMARK  status: ('A' for Active; 'I' for Inactive)
REMARK    1  A    between atoms: C_2  and  O_3
REMARK    2  A    between atoms: C_2  and  C_4
REMARK    3  A    between atoms: C_2  and  C_13
REMARK    4  A    between atoms: C_4  and  C_5
REMARK    5  A    between atoms: C_5  and  C_6
REMARK    6  A    between atoms: C_6  and  C_7
REMARK    7  A    between atoms: C_7  and  C_8
REMARK    8  A    between atoms: C_8  and  C_9
REMARK    9  A    between atoms: C_9  and  C_10
REMARK   10  A    between atoms: C_10  and  C_11
REMARK   11  A    between atoms: C_11  and  C_12
REMARK   12  A    between atoms: C_13  and  C_14
REMARK   13  A    between atoms: C_14  and  O_15
REMARK                            x       y       z     vdW  Elec       q    Type
REMARK                         _______ _______ _______ _____ _____    ______ ____
ROOT
ATOM      1  C   UNL     1       8.787  -2.224  25.047  0.00  0.00    +0.032 C 
ENDROOT
BRANCH   1   2
ATOM      2  C   UNL     1       8.920  -0.900  24.285  0.00  0.00    +0.125 C 
BRANCH   2   3
ATOM      3  O   UNL     1      10.303  -0.525  24.202  0.00  0.00    -0.391 OA
ATOM      4  H   UNL     1      10.633  -0.454  25.119  0.00  0.00    +0.210 HD
ENDBRANCH   2   3
BRANCH   2   5
ATOM      5  C   UNL     1       8.399  -1.054  22.860  0.00  0.00    +0.151 C 
BRANCH   5   6
ATOM      6  C   UNL     1       9.421  -0.592  21.854  0.00  0.00    +0.307 C 
ATOM      7  O   UNL     1       9.484   0.548  21.422  0.00  0.00    -0.251 OA
BRANCH   6   8
ATOM      8  O   UNL     1      10.241  -1.583  21.432  0.00  0.00    -0.481 OA
ATOM      9  H   UNL     1      11.186  -1.307  21.505  0.00  0.00    +0.295 HD
ENDBRANCH   6   8
ENDBRANCH   5   6
ENDBRANCH   2   5
ENDBRANCH   1   2
BRANCH   1  10
ATOM     10  C   UNL     1       9.558  -3.370  24.387  0.00  0.00    +0.003 C 
BRANCH  10  11
ATOM     11  C   UNL     1       9.546  -4.624  25.264  0.00  0.00    +0.000 C 
BRANCH  11  12
ATOM     12  C   UNL     1       8.761  -4.383  26.554  0.00  0.00    +0.000 C 
BRANCH  12  13
ATOM     13  C   UNL     1       7.575  -5.339  26.669  0.00  0.00    -0.000 C 
BRANCH  13  14
ATOM     14  C   UNL     1       6.328  -4.751  26.007  0.00  0.00    -0.000 C 
BRANCH  14  15
ATOM     15  C   UNL     1       5.928  -5.554  24.771  0.00  0.00    -0.000 C 
BRANCH  15  16
ATOM     16  C   UNL     1       6.200  -4.773  23.487  0.00  0.00    -0.003 C 
ATOM     17  C   UNL     1       7.097  -5.557  22.542  0.00  0.00    +0.004 C 
ENDBRANCH  15  16
ENDBRANCH  14  15
ENDBRANCH  13  14
ENDBRANCH  12  13
ENDBRANCH  11  12
ENDBRANCH  10  11
ENDBRANCH   1  10
TORSDOF 12
ENDMDL
MODEL 7
REMARK VINA RESULT:      -4.0      1.218      2.567
REMARK  Name = 
REMARK  13 active torsions:
REMARK  status: ('A' for Active; 'I' for Inactive)
REMARK    1  A    between atoms: C_2  and  O_3
REMARK    2  A    between atoms: C_2  and  C_4
REMARK    3  A    between atoms: C_2  and  C_13
REMARK    4  A    between atoms: C_4  and  C_5
REMARK    5  A    between atoms: C_5  and  C_6
REMARK    6  A    between atoms: C_6  and  C_7
REMARK    7  A    between atoms: C_7  and  C_8
REMARK    8  A    between atoms: C_8  and  C_9
REMARK    9  A    between atoms: C_9  and  C_10
REMARK   10  A    between atoms: C_10  and  C_11
REMARK   11  A    between atoms: C_11  and  C_12
REMARK   12  A    between atoms: C_13  and  C_14
REMARK   13  A    between atoms: C_14  and  O_15
REMARK                            x       y       z     vdW  Elec       q    Type
REMARK                         _______ _______ _______ _____ _____    ______ ____
ROOT
ATOM      1  C   UNL     1       8.480  -2.258  25.405  0.00  0.00    +0.032 C 
ENDROOT
BRANCH   1   2
ATOM      2  C   UNL     1       8.621  -3.775  25.223  0.00  0.00    +0.125 C 
BRANCH   2   3
ATOM      3  O   UNL     1       9.845  -4.068  24.532  0.00  0.00    -0.391 OA
ATOM      4  H   UNL     1      10.051  -5.006  24.707  0.00  0.00    +0.210 HD
ENDBRANCH   2   3
BRANCH   2   5
ATOM      5  C   UNL     1       8.683  -4.468  26.580  0.00  0.00    +0.151 C 
BRANCH   5   6
ATOM      6  C   UNL     1       7.540  -5.435  26.749  0.00  0.00    +0.307 C 
ATOM      7  O   UNL     1       6.664  -5.607  25.917  0.00  0.00    -0.251 OA
BRANCH   6   8
ATOM      8  O   UNL     1       7.546  -6.065  27.947  0.00  0.00    -0.481 OA
ATOM      9  H   UNL     1       8.457  -6.074  28.330  0.00  0.00    +0.295 HD
ENDBRANCH   6   8
ENDBRANCH   5   6
ENDBRANCH   2   5
ENDBRANCH   1   2
BRANCH   1  10
ATOM     10  C   UNL     1       9.540  -1.465  24.638  0.00  0.00    +0.003 C 
BRANCH  10  11
ATOM     11  C   UNL     1       9.681  -0.046  25.194  0.00  0.00    +0.000 C 
BRANCH  11  12
ATOM     12  C   UNL     1      10.986   0.598  24.724  0.00  0.00    +0.000 C 
BRANCH  12  13
ATOM     13  C   UNL     1      10.741   1.988  24.140  0.00  0.00    -0.000 C 
BRANCH  13  14
ATOM     14  C   UNL     1       9.427   2.033  23.358  0.00  0.00    -0.000 C 
BRANCH  14  15
ATOM     15  C   UNL     1       9.670   1.853  21.861  0.00  0.00    -0.000 C 
BRANCH  15  16
ATOM     16  C   UNL     1       8.788   0.748  21.282  0.00  0.00    -0.003 C 
ATOM     17  C   UNL     1       9.489  -0.600  21.332  0.00  0.00    +0.004 C 
ENDBRANCH  15  16
ENDBRANCH  14  15
ENDBRANCH  13  14
ENDBRANCH  12  13
ENDBRANCH  11  12
ENDBRANCH  10  11
ENDBRANCH   1  10
TORSDOF 12
ENDMDL
MODEL 8
REMARK VINA RESULT:      -4.0      3.162      6.213
REMARK  Name = 
REMARK  13 active torsions:
REMARK  status: ('A' for Active; 'I' for Inactive)
REMARK    1  A    between atoms: C_2  and  O_3
REMARK    2  A    between atoms: C_2  and  C_4
REMARK    3  A    between atoms: C_2  and  C_13
REMARK    4  A    between atoms: C_4  and  C_5
REMARK    5  A    between atoms: C_5  and  C_6
REMARK    6  A    between atoms: C_6  and  C_7
REMARK    7  A    between atoms: C_7  and  C_8
REMARK    8  A    between atoms: C_8  and  C_9
REMARK    9  A    between atoms: C_9  and  C_10
REMARK   10  A    between atoms: C_10  and  C_11
REMARK   11  A    between atoms: C_11  and  C_12
REMARK   12  A    between atoms: C_13  and  C_14
REMARK   13  A    between atoms: C_14  and  O_15
REMARK                            x       y       z     vdW  Elec       q    Type
REMARK                         _______ _______ _______ _____ _____    ______ ____
ROOT
ATOM      1  C   UNL     1       9.931  -1.886  23.394  0.00  0.00    +0.032 C 
ENDROOT
BRANCH   1   2
ATOM      2  C   UNL     1      10.337  -0.886  22.305  0.00  0.00    +0.125 C 
BRANCH   2   3
ATOM      3  O   UNL     1       9.461  -1.019  21.175  0.00  0.00    -0.391 OA
ATOM      4  H   UNL     1       8.699  -1.554  21.469  0.00  0.00    +0.210 HD
ENDBRANCH   2   3
BRANCH   2   5
ATOM      5  C   UNL     1      10.206   0.543  22.822  0.00  0.00    +0.151 C 
BRANCH   5   6
ATOM      6  C   UNL     1       9.004   1.229  22.227  0.00  0.00    +0.307 C 
ATOM      7  O   UNL     1       7.850   0.961  22.523  0.00  0.00    -0.251 OA
BRANCH   6   8
ATOM      8  O   UNL     1       9.324   2.146  21.284  0.00  0.00    -0.481 OA
ATOM      9  H   UNL     1       8.832   1.969  20.446  0.00  0.00    +0.295 HD
ENDBRANCH   6   8
ENDBRANCH   5   6
ENDBRANCH   2   5
ENDBRANCH   1   2
BRANCH   1  10
ATOM     10  C   UNL     1       9.667  -1.220  24.746  0.00  0.00    +0.003 C 
BRANCH  10  11
ATOM     11  C   UNL     1       8.228  -1.457  25.210  0.00  0.00    +0.000 C 
BRANCH  11  12
ATOM     12  C   UNL     1       8.200  -2.166  26.564  0.00  0.00    +0.000 C 
BRANCH  12  13
ATOM     13  C   UNL     1       7.756  -3.621  26.420  0.00  0.00    -0.000 C 
BRANCH  13  14
ATOM     14  C   UNL     1       8.957  -4.546  26.222  0.00  0.00    -0.000 C 
BRANCH  14  15
ATOM     15  C   UNL     1       8.870  -5.286  24.888  0.00  0.00    -0.000 C 
BRANCH  15  16
ATOM     16  C   UNL     1       7.665  -4.822  24.072  0.00  0.00    -0.003 C 
ATOM     17  C   UNL     1       7.540  -5.607  22.776  0.00  0.00    +0.004 C 
ENDBRANCH  15  16
ENDBRANCH  14  15
ENDBRANCH  13  14
ENDBRANCH  12  13
ENDBRANCH  11  12
ENDBRANCH  10  11
ENDBRANCH   1  10
TORSDOF 12
ENDMDL
MODEL 9
REMARK VINA RESULT:      -3.9      2.687      3.130
REMARK  Name = 
REMARK  13 active torsions:
REMARK  status: ('A' for Active; 'I' for Inactive)
REMARK    1  A    between atoms: C_2  and  O_3
REMARK    2  A    between atoms: C_2  and  C_4
REMARK    3  A    between atoms: C_2  and  C_13
REMARK    4  A    between atoms: C_4  and  C_5
REMARK    5  A    between atoms: C_5  and  C_6
REMARK    6  A    between atoms: C_6  and  C_7
REMARK    7  A    between atoms: C_7  and  C_8
REMARK    8  A    between atoms: C_8  and  C_9
REMARK    9  A    between atoms: C_9  and  C_10
REMARK   10  A    between atoms: C_10  and  C_11
REMARK   11  A    between atoms: C_11  and  C_12
REMARK   12  A    between atoms: C_13  and  C_14
REMARK   13  A    between atoms: C_14  and  O_15
REMARK                            x       y       z     vdW  Elec       q    Type
REMARK                         _______ _______ _______ _____ _____    ______ ____
ROOT
ATOM      1  C   UNL     1       6.757  -2.249  22.834  0.00  0.00    +0.032 C 
ENDROOT
BRANCH   1   2
ATOM      2  C   UNL     1       5.913  -3.497  23.123  0.00  0.00    +0.125 C 
BRANCH   2   3
ATOM      3  O   UNL     1       5.058  -3.773  22.004  0.00  0.00    -0.391 OA
ATOM      4  H   UNL     1       4.147  -3.831  22.352  0.00  0.00    +0.210 HD
ENDBRANCH   2   3
BRANCH   2   5
ATOM      5  C   UNL     1       6.814  -4.712  23.323  0.00  0.00    +0.151 C 
BRANCH   5   6
ATOM      6  C   UNL     1       6.532  -5.774  22.292  0.00  0.00    +0.307 C 
ATOM      7  O   UNL     1       7.093  -5.840  21.210  0.00  0.00    -0.251 OA
BRANCH   6   8
ATOM      8  O   UNL     1       5.549  -6.629  22.662  0.00  0.00    -0.481 OA
ATOM      9  H   UNL     1       5.070  -6.285  23.453  0.00  0.00    +0.295 HD
ENDBRANCH   6   8
ENDBRANCH   5   6
ENDBRANCH   2   5
ENDBRANCH   1   2
BRANCH   1  10
ATOM     10  C   UNL     1       8.249  -2.560  22.690  0.00  0.00    +0.003 C 
BRANCH  10  11
ATOM     11  C   UNL     1       8.972  -1.462  21.907  0.00  0.00    +0.000 C 
BRANCH  11  12
ATOM     12  C   UNL     1      10.251  -1.031  22.624  0.00  0.00    +0.000 C 
BRANCH  12  13
ATOM     13  C   UNL     1      10.057  -1.001  24.139  0.00  0.00    -0.000 C 
BRANCH  13  14
ATOM     14  C   UNL     1      10.370   0.384  24.707  0.00  0.00    -0.000 C 
BRANCH  14  15
ATOM     15  C   UNL     1       9.116   1.253  24.763  0.00  0.00    -0.000 C 
BRANCH  15  16
ATOM     16  C   UNL     1       9.195   2.409  23.767  0.00  0.00    -0.003 C 
ATOM     17  C   UNL     1      10.639   2.763  23.446  0.00  0.00    +0.004 C 
ENDBRANCH  15  16
ENDBRANCH  14  15
ENDBRANCH  13  14
ENDBRANCH  12  13
ENDBRANCH  11  12
ENDBRANCH  10  11
ENDBRANCH   1  10
TORSDOF 12
ENDMDL
