MODEL 1
REMARK VINA RESULT:      -7.3      0.000      0.000
REMARK  Name = 
REMARK  12 active torsions:
REMARK  status: ('A' for Active; 'I' for Inactive)
REMARK    1  A    between atoms: C_1  and  N_2
REMARK    2  A    between atoms: N_2  and  C_3
REMARK    3  A    between atoms: N_2  and  C_15
REMARK    4  A    between atoms: C_3  and  C_4
REMARK    5  A    between atoms: C_18  and  C_21
REMARK    6  A    between atoms: N_23  and  CA_24
REMARK    7  A    between atoms: CA_24  and  CB_26
REMARK    8  A    between atoms: CA_24  and  C_31
REMARK    9  A    between atoms: CB_26  and  CG_27
REMARK   10  A    between atoms: CG_27  and  CD_28
REMARK   11  A    between atoms: CD_28  and  OE1_29
REMARK   12  A    between atoms: C_31  and  O_32
REMARK                            x       y       z     vdW  Elec       q    Type
REMARK                         _______ _______ _______ _____ _____    ______ ____
ROOT
ATOM      1  C   UNK A   0       9.589  -0.746  23.395  0.00  0.00    +0.030 A 
ATOM      2  C   UNK A   0       9.548   0.019  22.225  0.00  0.00    +0.024 A 
ATOM      3  C   UNK A   0       9.983   1.350  22.222  0.00  0.00    +0.015 A 
ATOM      4  C   UNK A   0      10.457   1.939  23.399  0.00  0.00    +0.037 A 
ATOM      5  C   UNK A   0      10.677   1.138  24.513  0.00  0.00    +0.015 A 
ATOM      6  C   UNK A   0      10.229  -0.182  24.513  0.00  0.00    +0.024 A 
ENDROOT
BRANCH   4   7
ATOM      7  C   UNK A   0      10.682   3.403  23.407  0.00  0.00    +0.245 C 
ATOM      8  N   GLU A   1       9.661   4.294  23.651  0.00  0.00    -0.298 N 
ATOM      9  H   GLU A   1       9.967   5.257  23.532  0.00  0.00    +0.150 HD
ATOM     10  O   UNK A   0      11.793   3.850  23.136  0.00  0.00    -0.270 OA
BRANCH   8  11
ATOM     11  CA  GLU A   1       8.217   4.094  23.909  0.00  0.00    +0.182 C 
BRANCH  11  12
ATOM     12  C   GLU A   1       7.815   4.888  25.175  0.00  0.00    +0.325 C 
ATOM     13  OXT GLU A   1       8.599   5.277  26.021  0.00  0.00    -0.249 OA
BRANCH  12  14
ATOM     14  O   GLU A   1       6.491   5.181  25.225  0.00  0.00    -0.479 OA
ATOM     15  H   GLU A   1       5.947   4.370  25.157  0.00  0.00    +0.295 HD
ENDBRANCH  12  14
ENDBRANCH  11  12
BRANCH  11  16
ATOM     16  CB  GLU A   1       7.339   4.509  22.726  0.00  0.00    +0.045 C 
BRANCH  16  17
ATOM     17  CG  GLU A   1       6.720   3.322  21.991  0.00  0.00    +0.123 C 
BRANCH  17  18
ATOM     18  CD  GLU A   1       5.907   2.462  22.939  0.00  0.00    +0.305 C 
ATOM     19  OE2 GLU A   1       5.057   2.875  23.706  0.00  0.00    -0.251 OA
BRANCH  18  20
ATOM     20  OE1 GLU A   1       6.221   1.150  22.845  0.00  0.00    -0.481 OA
ATOM     21  HE1 GLU A   1       5.498   0.585  22.514  0.00  0.00    +0.295 HD
ENDBRANCH  18  20
ENDBRANCH  17  18
ENDBRANCH  16  17
ENDBRANCH  11  16
ENDBRANCH   8  11
ENDBRANCH   4   7
BRANCH   1  23
ATOM     22  C   UNK A   0       9.769  -3.093  24.093  0.00  0.00    +0.129 C 
ATOM     23  N   UNK A   0       8.972  -1.999  23.533  0.00  0.00    -0.328 N 
BRANCH  23  24
ATOM     24  C   UNK A   0       7.569  -1.934  23.990  0.00  0.00    +0.143 C 
BRANCH  24  25
ATOM     25  C   UNK A   0       6.585  -2.826  23.298  0.00  0.00    +0.020 A 
ATOM     26  C   UNK A   0       5.997  -4.060  23.733  0.00  0.00    +0.084 A 
ATOM     27  C   UNK A   0       6.051  -4.910  24.842  0.00  0.00    +0.133 A 
ATOM     28  N   UNK A   0       5.265  -6.003  24.865  0.00  0.00    -0.199 NA
ATOM     29  C   UNK A   0       4.453  -6.257  23.829  0.00  0.00    +0.217 A 
ATOM     30  N   UNK A   0       4.361  -5.552  22.706  0.00  0.00    -0.179 NA
ATOM     31  N   UNK A   0       3.657  -7.378  23.945  0.00  0.00    -0.327 N 
ATOM     32  H   UNK A   0       3.411  -7.723  23.024  0.00  0.00    +0.145 HD
ATOM     33  H   UNK A   0       4.077  -8.032  24.589  0.00  0.00    +0.145 HD
ATOM     34  N   UNK A   0       6.849  -4.700  25.953  0.00  0.00    -0.342 N 
ATOM     35  H   UNK A   0       6.524  -5.238  26.743  0.00  0.00    +0.144 HD
ATOM     36  H   UNK A   0       7.034  -3.709  26.118  0.00  0.00    +0.144 HD
ATOM     37  C   UNK A   0       5.146  -4.470  22.720  0.00  0.00    +0.234 A 
ATOM     38  O   UNK A   0       5.204  -3.593  21.682  0.00  0.00    -0.445 OA
ATOM     39  C   UNK A   0       6.072  -2.613  22.033  0.00  0.00    +0.203 A 
ENDBRANCH  24  25
ENDBRANCH  23  24
ENDBRANCH   1  23
TORSDOF 11
ENDMDL
MODEL 2
REMARK VINA RESULT:      -7.2      2.831      9.035
REMARK  Name = 
REMARK  12 active torsions:
REMARK  status: ('A' for Active; 'I' for Inactive)
REMARK    1  A    between atoms: C_1  and  N_2
REMARK    2  A    between atoms: N_2  and  C_3
REMARK    3  A    between atoms: N_2  and  C_15
REMARK    4  A    between atoms: C_3  and  C_4
REMARK    5  A    between atoms: C_18  and  C_21
REMARK    6  A    between atoms: N_23  and  CA_24
REMARK    7  A    between atoms: CA_24  and  CB_26
REMARK    8  A    between atoms: CA_24  and  C_31
REMARK    9  A    between atoms: CB_26  and  CG_27
REMARK   10  A    between atoms: CG_27  and  CD_28
REMARK   11  A    between atoms: CD_28  and  OE1_29
REMARK   12  A    between atoms: C_31  and  O_32
REMARK                            x       y       z     vdW  Elec       q    Type
REMARK                         _______ _______ _______ _____ _____    ______ ____
ROOT
ATOM      1  C   UNK A   0       7.143  -2.360  24.601  0.00  0.00    +0.030 A 
ATOM      2  C   UNK A   0       7.818  -3.584  24.571  0.00  0.00    +0.024 A 
ATOM      3  C   UNK A   0       7.468  -4.576  23.646  0.00  0.00    +0.015 A 
ATOM      4  C   UNK A   0       6.423  -4.359  22.743  0.00  0.00    +0.037 A 
ATOM      5  C   UNK A   0       5.875  -3.085  22.639  0.00  0.00    +0.015 A 
ATOM      6  C   UNK A   0       6.220  -2.108  23.570  0.00  0.00    +0.024 A 
ENDROOT
BRANCH   4   7
ATOM      7  C   UNK A   0       5.932  -5.510  21.949  0.00  0.00    +0.245 C 
ATOM      8  N   GLU A   1       4.780  -6.185  22.284  0.00  0.00    -0.298 N 
ATOM      9  H   GLU A   1       4.636  -6.999  21.692  0.00  0.00    +0.150 HD
ATOM     10  O   UNK A   0       6.591  -5.917  20.997  0.00  0.00    -0.270 OA
BRANCH   8  11
ATOM     11  CA  GLU A   1       3.827  -6.016  23.406  0.00  0.00    +0.182 C 
BRANCH  11  12
ATOM     12  C   GLU A   1       2.444  -6.564  22.980  0.00  0.00    +0.325 C 
ATOM     13  OXT GLU A   1       1.543  -5.882  22.527  0.00  0.00    -0.249 OA
BRANCH  12  14
ATOM     14  O   GLU A   1       2.345  -7.912  23.092  0.00  0.00    -0.479 OA
ATOM     15  H   GLU A   1       1.872  -8.165  23.911  0.00  0.00    +0.295 HD
ENDBRANCH  12  14
ENDBRANCH  11  12
BRANCH  11  16
ATOM     16  CB  GLU A   1       4.294  -6.704  24.690  0.00  0.00    +0.045 C 
BRANCH  16  17
ATOM     17  CG  GLU A   1       4.654  -5.722  25.802  0.00  0.00    +0.123 C 
BRANCH  17  18
ATOM     18  CD  GLU A   1       5.657  -6.333  26.762  0.00  0.00    +0.305 C 
ATOM     19  OE2 GLU A   1       6.827  -6.012  26.851  0.00  0.00    -0.251 OA
BRANCH  18  20
ATOM     20  OE1 GLU A   1       5.109  -7.295  27.538  0.00  0.00    -0.481 OA
ATOM     21  HE1 GLU A   1       4.148  -7.408  27.421  0.00  0.00    +0.295 HD
ENDBRANCH  18  20
ENDBRANCH  17  18
ENDBRANCH  16  17
ENDBRANCH  11  16
ENDBRANCH   8  11
ENDBRANCH   4   7
BRANCH   1  23
ATOM     22  C   UNK A   0       6.404  -1.539  26.793  0.00  0.00    +0.129 C 
ATOM     23  N   UNK A   0       7.282  -1.414  25.627  0.00  0.00    -0.328 N 
BRANCH  23  24
ATOM     24  C   UNK A   0       8.681  -1.042  25.920  0.00  0.00    +0.143 C 
BRANCH  24  25
ATOM     25  C   UNK A   0       9.375  -0.161  24.928  0.00  0.00    +0.020 A 
ATOM     26  C   UNK A   0       9.248   1.250  24.704  0.00  0.00    +0.084 A 
ATOM     27  C   UNK A   0       8.523   2.329  25.218  0.00  0.00    +0.133 A 
ATOM     28  N   UNK A   0       8.749   3.562  24.724  0.00  0.00    -0.199 NA
ATOM     29  C   UNK A   0       9.657   3.731  23.753  0.00  0.00    +0.217 A 
ATOM     30  N   UNK A   0      10.361   2.774  23.155  0.00  0.00    -0.179 NA
ATOM     31  N   UNK A   0       9.853   5.027  23.325  0.00  0.00    -0.327 N 
ATOM     32  H   UNK A   0      10.202   5.028  22.374  0.00  0.00    +0.145 HD
ATOM     33  H   UNK A   0       9.031   5.580  23.519  0.00  0.00    +0.145 HD
ATOM     34  N   UNK A   0       7.585   2.233  26.232  0.00  0.00    -0.342 N 
ATOM     35  H   UNK A   0       7.410   3.133  26.653  0.00  0.00    +0.144 HD
ATOM     36  H   UNK A   0       7.780   1.458  26.869  0.00  0.00    +0.144 HD
ATOM     37  C   UNK A   0      10.120   1.566  23.675  0.00  0.00    +0.234 A 
ATOM     38  O   UNK A   0      10.740   0.440  23.230  0.00  0.00    -0.445 OA
ATOM     39  C   UNK A   0      10.285  -0.592  23.981  0.00  0.00    +0.203 A 
ENDBRANCH  24  25
ENDBRANCH  23  24
ENDBRANCH   1  23
TORSDOF 11
ENDMDL
MODEL 3
REMARK VINA RESULT:      -7.2      2.290      3.396
REMARK  Name = 
REMARK  12 active torsions:
REMARK  status: ('A' for Active; 'I' for Inactive)
REMARK    1  A    between atoms: C_1  and  N_2
REMARK    2  A    between atoms: N_2  and  C_3
REMARK    3  A    between atoms: N_2  and  C_15
REMARK    4  A    between atoms: C_3  and  C_4
REMARK    5  A    between atoms: C_18  and  C_21
REMARK    6  A    between atoms: N_23  and  CA_24
REMARK    7  A    between atoms: CA_24  and  CB_26
REMARK    8  A    between atoms: CA_24  and  C_31
REMARK    9  A    between atoms: CB_26  and  CG_27
REMARK   10  A    between atoms: CG_27  and  CD_28
REMARK   11  A    between atoms: CD_28  and  OE1_29
REMARK   12  A    between atoms: C_31  and  O_32
REMARK                            x       y       z     vdW  Elec       q    Type
REMARK                         _______ _______ _______ _____ _____    ______ ____
ROOT
ATOM      1  C   UNK A   0       8.478  -0.420  25.780  0.00  0.00    +0.030 A 
ATOM      2  C   UNK A   0       9.840  -0.362  25.467  0.00  0.00    +0.024 A 
ATOM      3  C   UNK A   0      10.317   0.525  24.495  0.00  0.00    +0.015 A 
ATOM      4  C   UNK A   0       9.430   1.363  23.810  0.00  0.00    +0.037 A 
ATOM      5  C   UNK A   0       8.112   1.448  24.243  0.00  0.00    +0.015 A 
ATOM      6  C   UNK A   0       7.642   0.553  25.202  0.00  0.00    +0.024 A 
ENDROOT
BRANCH   4   7
ATOM      7  C   UNK A   0       9.938   2.109  22.635  0.00  0.00    +0.245 C 
ATOM      8  N   GLU A   1      10.431   3.390  22.745  0.00  0.00    -0.298 N 
ATOM      9  H   GLU A   1      10.653   3.786  21.835  0.00  0.00    +0.150 HD
ATOM     10  O   UNK A   0       9.872   1.603  21.518  0.00  0.00    -0.270 OA
BRANCH   8  11
ATOM     11  CA  GLU A   1      10.556   4.303  23.904  0.00  0.00    +0.182 C 
BRANCH  11  12
ATOM     12  C   GLU A   1      11.638   5.365  23.595  0.00  0.00    +0.325 C 
ATOM     13  OXT GLU A   1      12.076   6.157  24.409  0.00  0.00    -0.249 OA
BRANCH  12  14
ATOM     14  O   GLU A   1      12.116   5.289  22.328  0.00  0.00    -0.479 OA
ATOM     15  H   GLU A   1      11.396   5.380  21.671  0.00  0.00    +0.295 HD
ENDBRANCH  12  14
ENDBRANCH  11  12
BRANCH  11  16
ATOM     16  CB  GLU A   1       9.235   4.987  24.265  0.00  0.00    +0.045 C 
BRANCH  16  17
ATOM     17  CG  GLU A   1       8.790   6.021  23.234  0.00  0.00    +0.123 C 
BRANCH  17  18
ATOM     18  CD  GLU A   1       7.756   5.436  22.291  0.00  0.00    +0.305 C 
ATOM     19  OE2 GLU A   1       7.239   4.341  22.411  0.00  0.00    -0.251 OA
BRANCH  18  20
ATOM     20  OE1 GLU A   1       7.451   6.274  21.275  0.00  0.00    -0.481 OA
ATOM     21  HE1 GLU A   1       7.045   7.115  21.555  0.00  0.00    +0.295 HD
ENDBRANCH  18  20
ENDBRANCH  17  18
ENDBRANCH  16  17
ENDBRANCH  11  16
ENDBRANCH   8  11
ENDBRANCH   4   7
BRANCH   1  23
ATOM     22  C   UNK A   0       6.441  -1.414  26.722  0.00  0.00    +0.129 C 
ATOM     23  N   UNK A   0       7.898  -1.423  26.570  0.00  0.00    -0.328 N 
BRANCH  23  24
ATOM     24  C   UNK A   0       8.513  -2.755  26.402  0.00  0.00    +0.143 C 
BRANCH  24  25
ATOM     25  C   UNK A   0       7.639  -3.848  25.868  0.00  0.00    +0.020 A 
ATOM     26  C   UNK A   0       7.298  -4.174  24.514  0.00  0.00    +0.084 A 
ATOM     27  C   UNK A   0       7.565  -3.702  23.226  0.00  0.00    +0.133 A 
ATOM     28  N   UNK A   0       7.050  -4.360  22.170  0.00  0.00    -0.199 NA
ATOM     29  C   UNK A   0       6.292  -5.447  22.371  0.00  0.00    +0.217 A 
ATOM     30  N   UNK A   0       5.930  -5.949  23.548  0.00  0.00    -0.179 NA
ATOM     31  N   UNK A   0       5.831  -6.082  21.237  0.00  0.00    -0.327 N 
ATOM     32  H   UNK A   0       4.981  -6.592  21.448  0.00  0.00    +0.145 HD
ATOM     33  H   UNK A   0       5.802  -5.431  20.466  0.00  0.00    +0.145 HD
ATOM     34  N   UNK A   0       8.354  -2.600  22.942  0.00  0.00    -0.342 N 
ATOM     35  H   UNK A   0       8.664  -2.612  21.982  0.00  0.00    +0.144 HD
ATOM     36  H   UNK A   0       9.070  -2.440  23.653  0.00  0.00    +0.144 HD
ATOM     37  C   UNK A   0       6.465  -5.280  24.573  0.00  0.00    +0.234 A 
ATOM     38  O   UNK A   0       6.244  -5.625  25.870  0.00  0.00    -0.445 OA
ATOM     39  C   UNK A   0       6.946  -4.760  26.641  0.00  0.00    +0.203 A 
ENDBRANCH  24  25
ENDBRANCH  23  24
ENDBRANCH   1  23
TORSDOF 11
ENDMDL
MODEL 4
REMARK VINA RESULT:      -7.2      2.821      8.391
REMARK  Name = 
REMARK  12 active torsions:
REMARK  status: ('A' for Active; 'I' for Inactive)
REMARK    1  A    between atoms: C_1  and  N_2
REMARK    2  A    between atoms: N_2  and  C_3
REMARK    3  A    between atoms: N_2  and  C_15
REMARK    4  A    between atoms: C_3  and  C_4
REMARK    5  A    between atoms: C_18  and  C_21
REMARK    6  A    between atoms: N_23  and  CA_24
REMARK    7  A    between atoms: CA_24  and  CB_26
REMARK    8  A    between atoms: CA_24  and  C_31
REMARK    9  A    between atoms: CB_26  and  CG_27
REMARK   10  A    between atoms: CG_27  and  CD_28
REMARK   11  A    between atoms: CD_28  and  OE1_29
REMARK   12  A    between atoms: C_31  and  O_32
REMARK                            x       y       z     vdW  Elec       q    Type
REMARK                         _______ _______ _______ _____ _____    ______ ____
ROOT
ATOM      1  C   UNK A   0       8.645  -2.754  24.640  0.00  0.00    +0.030 A 
ATOM      2  C   UNK A   0       8.219  -2.481  25.944  0.00  0.00    +0.024 A 
ATOM      3  C   UNK A   0       7.717  -3.500  26.764  0.00  0.00    +0.015 A 
ATOM      4  C   UNK A   0       7.623  -4.809  26.282  0.00  0.00    +0.037 A 
ATOM      5  C   UNK A   0       8.214  -5.125  25.064  0.00  0.00    +0.015 A 
ATOM      6  C   UNK A   0       8.701  -4.104  24.249  0.00  0.00    +0.024 A 
ENDROOT
BRANCH   4   7
ATOM      7  C   UNK A   0       6.873  -5.800  27.089  0.00  0.00    +0.245 C 
ATOM      8  N   GLU A   1       5.670  -6.322  26.666  0.00  0.00    -0.298 N 
ATOM      9  H   GLU A   1       5.249  -6.916  27.375  0.00  0.00    +0.150 HD
ATOM     10  O   UNK A   0       7.297  -6.133  28.192  0.00  0.00    -0.270 OA
BRANCH   8  11
ATOM     11  CA  GLU A   1       4.852  -6.063  25.459  0.00  0.00    +0.182 C 
BRANCH  11  12
ATOM     12  C   GLU A   1       3.789  -7.178  25.321  0.00  0.00    +0.325 C 
ATOM     13  OXT GLU A   1       2.949  -7.436  26.164  0.00  0.00    -0.249 OA
BRANCH  12  14
ATOM     14  O   GLU A   1       3.830  -7.813  24.123  0.00  0.00    -0.479 OA
ATOM     15  H   GLU A   1       3.591  -8.757  24.214  0.00  0.00    +0.295 HD
ENDBRANCH  12  14
ENDBRANCH  11  12
BRANCH  11  16
ATOM     16  CB  GLU A   1       4.177  -4.690  25.483  0.00  0.00    +0.045 C 
BRANCH  16  17
ATOM     17  CG  GLU A   1       4.703  -3.741  24.409  0.00  0.00    +0.123 C 
BRANCH  17  18
ATOM     18  CD  GLU A   1       4.781  -4.435  23.063  0.00  0.00    +0.305 C 
ATOM     19  OE2 GLU A   1       5.776  -4.501  22.366  0.00  0.00    -0.251 OA
BRANCH  18  20
ATOM     20  OE1 GLU A   1       3.606  -4.997  22.702  0.00  0.00    -0.481 OA
ATOM     21  HE1 GLU A   1       3.591  -5.971  22.755  0.00  0.00    +0.295 HD
ENDBRANCH  18  20
ENDBRANCH  17  18
ENDBRANCH  16  17
ENDBRANCH  11  16
ENDBRANCH   8  11
ENDBRANCH   4   7
BRANCH   1  23
ATOM     22  C   UNK A   0      10.248  -1.840  23.021  0.00  0.00    +0.129 C 
ATOM     23  N   UNK A   0       8.948  -1.765  23.693  0.00  0.00    -0.328 N 
BRANCH  23  24
ATOM     24  C   UNK A   0       7.808  -1.381  22.835  0.00  0.00    +0.143 C 
BRANCH  24  25
ATOM     25  C   UNK A   0       6.993  -0.204  23.271  0.00  0.00    +0.020 A 
ATOM     26  C   UNK A   0       7.036   1.160  22.831  0.00  0.00    +0.084 A 
ATOM     27  C   UNK A   0       7.755   1.942  21.922  0.00  0.00    +0.133 A 
ATOM     28  N   UNK A   0       7.432   3.242  21.782  0.00  0.00    -0.199 NA
ATOM     29  C   UNK A   0       6.437   3.761  22.514  0.00  0.00    +0.217 A 
ATOM     30  N   UNK A   0       5.727   3.127  23.443  0.00  0.00    -0.179 NA
ATOM     31  N   UNK A   0       6.148   5.090  22.288  0.00  0.00    -0.327 N 
ATOM     32  H   UNK A   0       5.718   5.495  23.111  0.00  0.00    +0.145 HD
ATOM     33  H   UNK A   0       6.958   5.559  21.909  0.00  0.00    +0.145 HD
ATOM     34  N   UNK A   0       8.781   1.471  21.120  0.00  0.00    -0.342 N 
ATOM     35  H   UNK A   0       8.952   2.093  20.344  0.00  0.00    +0.144 HD
ATOM     36  H   UNK A   0       8.677   0.479  20.899  0.00  0.00    +0.144 HD
ATOM     37  C   UNK A   0       6.065   1.838  23.549  0.00  0.00    +0.234 A 
ATOM     38  O   UNK A   0       5.460   0.991  24.424  0.00  0.00    -0.445 OA
ATOM     39  C   UNK A   0       6.024  -0.229  24.257  0.00  0.00    +0.203 A 
ENDBRANCH  24  25
ENDBRANCH  23  24
ENDBRANCH   1  23
TORSDOF 11
ENDMDL
MODEL 5
REMARK VINA RESULT:      -7.2      4.233      7.814
REMARK  Name = 
REMARK  12 active torsions:
REMARK  status: ('A' for Active; 'I' for Inactive)
REMARK    1  A    between atoms: C_1  and  N_2
REMARK    2  A    between atoms: N_2  and  C_3
REMARK    3  A    between atoms: N_2  and  C_15
REMARK    4  A    between atoms: C_3  and  C_4
REMARK    5  A    between atoms: C_18  and  C_21
REMARK    6  A    between atoms: N_23  and  CA_24
REMARK    7  A    between atoms: CA_24  and  CB_26
REMARK    8  A    between atoms: CA_24  and  C_31
REMARK    9  A    between atoms: CB_26  and  CG_27
REMARK   10  A    between atoms: CG_27  and  CD_28
REMARK   11  A    between atoms: CD_28  and  OE1_29
REMARK   12  A    between atoms: C_31  and  O_32
REMARK                            x       y       z     vdW  Elec       q    Type
REMARK                         _______ _______ _______ _____ _____    ______ ____
ROOT
ATOM      1  C   UNK A   0       7.769  -2.308  23.791  0.00  0.00    +0.030 A 
ATOM      2  C   UNK A   0       8.351  -3.567  23.606  0.00  0.00    +0.024 A 
ATOM      3  C   UNK A   0       7.687  -4.564  22.881  0.00  0.00    +0.015 A 
ATOM      4  C   UNK A   0       6.422  -4.318  22.340  0.00  0.00    +0.037 A 
ATOM      5  C   UNK A   0       5.922  -3.021  22.356  0.00  0.00    +0.015 A 
ATOM      6  C   UNK A   0       6.581  -2.037  23.090  0.00  0.00    +0.024 A 
ENDROOT
BRANCH   4   7
ATOM      7  C   UNK A   0       5.660  -5.464  21.789  0.00  0.00    +0.245 C 
ATOM      8  N   GLU A   1       4.747  -6.161  22.548  0.00  0.00    -0.298 N 
ATOM      9  H   GLU A   1       4.382  -6.968  22.049  0.00  0.00    +0.150 HD
ATOM     10  O   UNK A   0       5.880  -5.847  20.644  0.00  0.00    -0.270 OA
BRANCH   8  11
ATOM     11  CA  GLU A   1       4.327  -6.022  23.962  0.00  0.00    +0.182 C 
BRANCH  11  12
ATOM     12  C   GLU A   1       3.055  -5.145  24.027  0.00  0.00    +0.325 C 
ATOM     13  OXT GLU A   1       2.304  -4.952  23.089  0.00  0.00    -0.249 OA
BRANCH  12  14
ATOM     14  O   GLU A   1       2.805  -4.656  25.267  0.00  0.00    -0.479 OA
ATOM     15  H   GLU A   1       3.504  -4.921  25.900  0.00  0.00    +0.295 HD
ENDBRANCH  12  14
ENDBRANCH  11  12
BRANCH  11  16
ATOM     16  CB  GLU A   1       4.074  -7.371  24.641  0.00  0.00    +0.045 C 
BRANCH  16  17
ATOM     17  CG  GLU A   1       2.652  -7.889  24.436  0.00  0.00    +0.123 C 
BRANCH  17  18
ATOM     18  CD  GLU A   1       1.912  -7.979  25.757  0.00  0.00    +0.305 C 
ATOM     19  OE2 GLU A   1       0.821  -8.494  25.915  0.00  0.00    -0.251 OA
BRANCH  18  20
ATOM     20  OE1 GLU A   1       2.603  -7.419  26.776  0.00  0.00    -0.481 OA
ATOM     21  HE1 GLU A   1       2.046  -7.026  27.473  0.00  0.00    +0.295 HD
ENDBRANCH  18  20
ENDBRANCH  17  18
ENDBRANCH  16  17
ENDBRANCH  11  16
ENDBRANCH   8  11
ENDBRANCH   4   7
BRANCH   1  23
ATOM     22  C   UNK A   0       7.974   0.065  24.388  0.00  0.00    +0.129 C 
ATOM     23  N   UNK A   0       8.262  -1.342  24.681  0.00  0.00    -0.328 N 
BRANCH  23  24
ATOM     24  C   UNK A   0       8.171  -1.728  26.103  0.00  0.00    +0.143 C 
BRANCH  24  25
ATOM     25  C   UNK A   0       6.950  -2.483  26.529  0.00  0.00    +0.020 A 
ATOM     26  C   UNK A   0       6.802  -3.859  26.904  0.00  0.00    +0.084 A 
ATOM     27  C   UNK A   0       7.602  -4.999  27.030  0.00  0.00    +0.133 A 
ATOM     28  N   UNK A   0       7.043  -6.141  27.477  0.00  0.00    -0.199 NA
ATOM     29  C   UNK A   0       5.740  -6.165  27.785  0.00  0.00    +0.217 A 
ATOM     30  N   UNK A   0       4.878  -5.161  27.651  0.00  0.00    -0.179 NA
ATOM     31  N   UNK A   0       5.253  -7.363  28.265  0.00  0.00    -0.327 N 
ATOM     32  H   UNK A   0       4.259  -7.431  28.080  0.00  0.00    +0.145 HD
ATOM     33  H   UNK A   0       5.837  -8.123  27.948  0.00  0.00    +0.145 HD
ATOM     34  N   UNK A   0       8.957  -5.043  26.750  0.00  0.00    -0.342 N 
ATOM     35  H   UNK A   0       9.394  -5.841  27.186  0.00  0.00    +0.144 HD
ATOM     36  H   UNK A   0       9.412  -4.139  26.887  0.00  0.00    +0.144 HD
ATOM     37  C   UNK A   0       5.466  -4.042  27.217  0.00  0.00    +0.234 A 
ATOM     38  O   UNK A   0       4.781  -2.883  27.021  0.00  0.00    -0.445 OA
ATOM     39  C   UNK A   0       5.675  -1.954  26.603  0.00  0.00    +0.203 A 
ENDBRANCH  24  25
ENDBRANCH  23  24
ENDBRANCH   1  23
TORSDOF 11
ENDMDL
MODEL 6
REMARK VINA RESULT:      -7.2      2.744      8.921
REMARK  Name = 
REMARK  12 active torsions:
REMARK  status: ('A' for Active; 'I' for Inactive)
REMARK    1  A    between atoms: C_1  and  N_2
REMARK    2  A    between atoms: N_2  and  C_3
REMARK    3  A    between atoms: N_2  and  C_15
REMARK    4  A    between atoms: C_3  and  C_4
REMARK    5  A    between atoms: C_18  and  C_21
REMARK    6  A    between atoms: N_23  and  CA_24
REMARK    7  A    between atoms: CA_24  and  CB_26
REMARK    8  A    between atoms: CA_24  and  C_31
REMARK    9  A    between atoms: CB_26  and  CG_27
REMARK   10  A    between atoms: CG_27  and  CD_28
REMARK   11  A    between atoms: CD_28  and  OE1_29
REMARK   12  A    between atoms: C_31  and  O_32
REMARK                            x       y       z     vdW  Elec       q    Type
REMARK                         _______ _______ _______ _____ _____    ______ ____
ROOT
ATOM      1  C   UNK A   0       7.192   1.020  24.772  0.00  0.00    +0.030 A 
ATOM      2  C   UNK A   0       6.929   0.397  23.548  0.00  0.00    +0.024 A 
ATOM      3  C   UNK A   0       7.456  -0.867  23.257  0.00  0.00    +0.015 A 
ATOM      4  C   UNK A   0       8.268  -1.523  24.188  0.00  0.00    +0.037 A 
ATOM      5  C   UNK A   0       8.380  -1.000  25.472  0.00  0.00    +0.015 A 
ATOM      6  C   UNK A   0       7.863   0.264  25.749  0.00  0.00    +0.024 A 
ENDROOT
BRANCH   4   7
ATOM      7  C   UNK A   0       8.992  -2.739  23.752  0.00  0.00    +0.245 C 
ATOM      8  N   GLU A   1       8.333  -3.914  23.466  0.00  0.00    -0.298 N 
ATOM      9  H   GLU A   1       8.983  -4.671  23.269  0.00  0.00    +0.150 HD
ATOM     10  O   UNK A   0      10.219  -2.730  23.694  0.00  0.00    -0.270 OA
BRANCH   8  11
ATOM     11  CA  GLU A   1       6.900  -4.283  23.530  0.00  0.00    +0.182 C 
BRANCH  11  12
ATOM     12  C   GLU A   1       6.471  -4.880  22.169  0.00  0.00    +0.325 C 
ATOM     13  OXT GLU A   1       5.645  -4.380  21.428  0.00  0.00    -0.249 OA
BRANCH  12  14
ATOM     14  O   GLU A   1       7.162  -5.998  21.833  0.00  0.00    -0.479 OA
ATOM     15  H   GLU A   1       7.713  -5.848  21.038  0.00  0.00    +0.295 HD
ENDBRANCH  12  14
ENDBRANCH  11  12
BRANCH  11  16
ATOM     16  CB  GLU A   1       6.591  -5.269  24.659  0.00  0.00    +0.045 C 
BRANCH  16  17
ATOM     17  CG  GLU A   1       6.668  -4.637  26.047  0.00  0.00    +0.123 C 
BRANCH  17  18
ATOM     18  CD  GLU A   1       7.919  -5.083  26.778  0.00  0.00    +0.305 C 
ATOM     19  OE2 GLU A   1       9.045  -4.683  26.546  0.00  0.00    -0.251 OA
BRANCH  18  20
ATOM     20  OE1 GLU A   1       7.657  -5.991  27.745  0.00  0.00    -0.481 OA
ATOM     21  HE1 GLU A   1       7.952  -5.727  28.636  0.00  0.00    +0.295 HD
ENDBRANCH  18  20
ENDBRANCH  17  18
ENDBRANCH  16  17
ENDBRANCH  11  16
ENDBRANCH   8  11
ENDBRANCH   4   7
BRANCH   1  23
ATOM     22  C   UNK A   0       7.368   2.921  26.315  0.00  0.00    +0.129 C 
ATOM     23  N   UNK A   0       6.890   2.361  25.048  0.00  0.00    -0.328 N 
BRANCH  23  24
ATOM     24  C   UNK A   0       6.992   3.257  23.878  0.00  0.00    +0.143 C 
BRANCH  24  25
ATOM     25  C   UNK A   0       8.009   4.353  23.943  0.00  0.00    +0.020 A 
ATOM     26  C   UNK A   0       9.430   4.302  23.752  0.00  0.00    +0.084 A 
ATOM     27  C   UNK A   0      10.413   3.351  23.462  0.00  0.00    +0.133 A 
ATOM     28  N   UNK A   0      11.690   3.755  23.321  0.00  0.00    -0.199 NA
ATOM     29  C   UNK A   0      11.995   5.051  23.464  0.00  0.00    +0.217 A 
ATOM     30  N   UNK A   0      11.155   6.029  23.793  0.00  0.00    -0.179 NA
ATOM     31  N   UNK A   0      13.319   5.387  23.272  0.00  0.00    -0.327 N 
ATOM     32  H   UNK A   0      13.538   6.236  23.779  0.00  0.00    +0.145 HD
ATOM     33  H   UNK A   0      13.905   4.582  23.439  0.00  0.00    +0.145 HD
ATOM     34  N   UNK A   0      10.168   2.000  23.281  0.00  0.00    -0.342 N 
ATOM     35  H   UNK A   0      10.930   1.554  22.793  0.00  0.00    +0.144 HD
ATOM     36  H   UNK A   0       9.227   1.819  22.928  0.00  0.00    +0.144 HD
ATOM     37  C   UNK A   0       9.896   5.597  23.915  0.00  0.00    +0.234 A 
ATOM     38  O   UNK A   0       8.864   6.425  24.230  0.00  0.00    -0.445 OA
ATOM     39  C   UNK A   0       7.738   5.673  24.252  0.00  0.00    +0.203 A 
ENDBRANCH  24  25
ENDBRANCH  23  24
ENDBRANCH   1  23
TORSDOF 11
ENDMDL
MODEL 7
REMARK VINA RESULT:      -7.2      2.011      2.701
REMARK  Name = 
REMARK  12 active torsions:
REMARK  status: ('A' for Active; 'I' for Inactive)
REMARK    1  A    between atoms: C_1  and  N_2
REMARK    2  A    between atoms: N_2  and  C_3
REMARK    3  A    between atoms: N_2  and  C_15
REMARK    4  A    between atoms: C_3  and  C_4
REMARK    5  A    between atoms: C_18  and  C_21
REMARK    6  A    between atoms: N_23  and  CA_24
REMARK    7  A    between atoms: CA_24  and  CB_26
REMARK    8  A    between atoms: CA_24  and  C_31
REMARK    9  A    between atoms: CB_26  and  CG_27
REMARK   10  A    between atoms: CG_27  and  CD_28
REMARK   11  A    between atoms: CD_28  and  OE1_29
REMARK   12  A    between atoms: C_31  and  O_32
REMARK                            x       y       z     vdW  Elec       q    Type
REMARK                         _______ _______ _______ _____ _____    ______ ____
ROOT
ATOM      1  C   UNK A   0       9.995  -0.576  22.873  0.00  0.00    +0.030 A 
ATOM      2  C   UNK A   0       9.829   0.374  21.860  0.00  0.00    +0.024 A 
ATOM      3  C   UNK A   0      10.038   1.736  22.111  0.00  0.00    +0.015 A 
ATOM      4  C   UNK A   0      10.406   2.168  23.389  0.00  0.00    +0.037 A 
ATOM      5  C   UNK A   0      10.754   1.223  24.347  0.00  0.00    +0.015 A 
ATOM      6  C   UNK A   0      10.532  -0.130  24.094  0.00  0.00    +0.024 A 
ENDROOT
BRANCH   4   7
ATOM      7  C   UNK A   0      10.386   3.623  23.669  0.00  0.00    +0.245 C 
ATOM      8  N   GLU A   1       9.256   4.258  24.137  0.00  0.00    -0.298 N 
ATOM      9  H   GLU A   1       9.387   5.264  24.190  0.00  0.00    +0.150 HD
ATOM     10  O   UNK A   0      11.380   4.303  23.430  0.00  0.00    -0.270 OA
BRANCH   8  11
ATOM     11  CA  GLU A   1       7.893   3.758  24.429  0.00  0.00    +0.182 C 
BRANCH  11  12
ATOM     12  C   GLU A   1       7.796   3.407  25.933  0.00  0.00    +0.325 C 
ATOM     13  OXT GLU A   1       7.641   4.224  26.822  0.00  0.00    -0.249 OA
BRANCH  12  14
ATOM     14  O   GLU A   1       7.830   2.072  26.174  0.00  0.00    -0.479 OA
ATOM     15  H   GLU A   1       7.880   1.887  27.134  0.00  0.00    +0.295 HD
ENDBRANCH  12  14
ENDBRANCH  11  12
BRANCH  11  16
ATOM     16  CB  GLU A   1       6.800   4.760  24.050  0.00  0.00    +0.045 C 
BRANCH  16  17
ATOM     17  CG  GLU A   1       6.723   5.027  22.549  0.00  0.00    +0.123 C 
BRANCH  17  18
ATOM     18  CD  GLU A   1       7.404   6.336  22.196  0.00  0.00    +0.305 C 
ATOM     19  OE2 GLU A   1       8.242   6.895  22.878  0.00  0.00    -0.251 OA
BRANCH  18  20
ATOM     20  OE1 GLU A   1       6.983   6.835  21.012  0.00  0.00    -0.481 OA
ATOM     21  HE1 GLU A   1       6.672   6.162  20.379  0.00  0.00    +0.295 HD
ENDBRANCH  18  20
ENDBRANCH  17  18
ENDBRANCH  16  17
ENDBRANCH  11  16
ENDBRANCH   8  11
ENDBRANCH   4   7
BRANCH   1  23
ATOM     22  C   UNK A   0       9.746  -2.772  23.942  0.00  0.00    +0.129 C 
ATOM     23  N   UNK A   0       9.594  -1.915  22.763  0.00  0.00    -0.328 N 
BRANCH  23  24
ATOM     24  C   UNK A   0       8.352  -2.112  21.988  0.00  0.00    +0.143 C 
BRANCH  24  25
ATOM     25  C   UNK A   0       7.263  -2.910  22.636  0.00  0.00    +0.020 A 
ATOM     26  C   UNK A   0       6.331  -2.534  23.660  0.00  0.00    +0.084 A 
ATOM     27  C   UNK A   0       6.031  -1.413  24.440  0.00  0.00    +0.133 A 
ATOM     28  N   UNK A   0       4.994  -1.474  25.298  0.00  0.00    -0.199 NA
ATOM     29  C   UNK A   0       4.275  -2.601  25.390  0.00  0.00    +0.217 A 
ATOM     30  N   UNK A   0       4.503  -3.738  24.740  0.00  0.00    -0.179 NA
ATOM     31  N   UNK A   0       3.211  -2.570  26.267  0.00  0.00    -0.327 N 
ATOM     32  H   UNK A   0       2.997  -3.508  26.584  0.00  0.00    +0.145 HD
ATOM     33  H   UNK A   0       3.368  -1.867  26.973  0.00  0.00    +0.145 HD
ATOM     34  N   UNK A   0       6.717  -0.212  24.384  0.00  0.00    -0.342 N 
ATOM     35  H   UNK A   0       6.172   0.538  24.783  0.00  0.00    +0.144 HD
ATOM     36  H   UNK A   0       7.128  -0.041  23.464  0.00  0.00    +0.144 HD
ATOM     37  C   UNK A   0       5.531  -3.641  23.891  0.00  0.00    +0.234 A 
ATOM     38  O   UNK A   0       5.936  -4.677  23.109  0.00  0.00    -0.445 OA
ATOM     39  C   UNK A   0       6.977  -4.234  22.363  0.00  0.00    +0.203 A 
ENDBRANCH  24  25
ENDBRANCH  23  24
ENDBRANCH   1  23
TORSDOF 11
ENDMDL
MODEL 8
REMARK VINA RESULT:      -7.2      2.367      2.526
REMARK  Name = 
REMARK  12 active torsions:
REMARK  status: ('A' for Active; 'I' for Inactive)
REMARK    1  A    between atoms: C_1  and  N_2
REMARK    2  A    between atoms: N_2  and  C_3
REMARK    3  A    between atoms: N_2  and  C_15
REMARK    4  A    between atoms: C_3  and  C_4
REMARK    5  A    between atoms: C_18  and  C_21
REMARK    6  A    between atoms: N_23  and  CA_24
REMARK    7  A    between atoms: CA_24  and  CB_26
REMARK    8  A    between atoms: CA_24  and  C_31
REMARK    9  A    between atoms: CB_26  and  CG_27
REMARK   10  A    between atoms: CG_27  and  CD_28
REMARK   11  A    between atoms: CD_28  and  OE1_29
REMARK   12  A    between atoms: C_31  and  O_32
REMARK                            x       y       z     vdW  Elec       q    Type
REMARK                         _______ _______ _______ _____ _____    ______ ____
ROOT
ATOM      1  C   UNK A   0       9.555  -0.310  23.143  0.00  0.00    +0.030 A 
ATOM      2  C   UNK A   0       9.572   0.519  22.016  0.00  0.00    +0.024 A 
ATOM      3  C   UNK A   0      10.092   1.817  22.087  0.00  0.00    +0.015 A 
ATOM      4  C   UNK A   0      10.594   2.310  23.297  0.00  0.00    +0.037 A 
ATOM      5  C   UNK A   0      10.754   1.437  24.366  0.00  0.00    +0.015 A 
ATOM      6  C   UNK A   0      10.223   0.150  24.292  0.00  0.00    +0.024 A 
ENDROOT
BRANCH   4   7
ATOM      7  C   UNK A   0      10.913   3.754  23.386  0.00  0.00    +0.245 C 
ATOM      8  N   GLU A   1       9.959   4.689  23.721  0.00  0.00    -0.298 N 
ATOM      9  H   GLU A   1      10.321   5.637  23.650  0.00  0.00    +0.150 HD
ATOM     10  O   UNK A   0      12.041   4.147  23.103  0.00  0.00    -0.270 OA
BRANCH   8  11
ATOM     11  CA  GLU A   1       8.514   4.562  24.019  0.00  0.00    +0.182 C 
BRANCH  11  12
ATOM     12  C   GLU A   1       8.188   5.374  25.295  0.00  0.00    +0.325 C 
ATOM     13  OXT GLU A   1       9.021   5.768  26.091  0.00  0.00    -0.249 OA
BRANCH  12  14
ATOM     14  O   GLU A   1       6.871   5.676  25.416  0.00  0.00    -0.479 OA
ATOM     15  H   GLU A   1       6.746   6.557  25.824  0.00  0.00    +0.295 HD
ENDBRANCH  12  14
ENDBRANCH  11  12
BRANCH  11  16
ATOM     16  CB  GLU A   1       7.626   5.023  22.860  0.00  0.00    +0.045 C 
BRANCH  16  17
ATOM     17  CG  GLU A   1       6.944   3.869  22.130  0.00  0.00    +0.123 C 
BRANCH  17  18
ATOM     18  CD  GLU A   1       5.780   3.328  22.937  0.00  0.00    +0.305 C 
ATOM     19  OE2 GLU A   1       5.060   3.993  23.659  0.00  0.00    -0.251 OA
BRANCH  18  20
ATOM     20  OE1 GLU A   1       5.609   1.998  22.771  0.00  0.00    -0.481 OA
ATOM     21  HE1 GLU A   1       5.438   1.507  23.596  0.00  0.00    +0.295 HD
ENDBRANCH  18  20
ENDBRANCH  17  18
ENDBRANCH  16  17
ENDBRANCH  11  16
ENDBRANCH   8  11
ENDBRANCH   4   7
BRANCH   1  23
ATOM     22  C   UNK A   0       8.627  -2.249  21.956  0.00  0.00    +0.129 C 
ATOM     23  N   UNK A   0       8.859  -1.525  23.210  0.00  0.00    -0.328 N 
BRANCH  23  24
ATOM     24  C   UNK A   0       9.216  -2.364  24.372  0.00  0.00    +0.143 C 
BRANCH  24  25
ATOM     25  C   UNK A   0       8.130  -2.664  25.357  0.00  0.00    +0.020 A 
ATOM     26  C   UNK A   0       7.853  -3.869  26.084  0.00  0.00    +0.084 A 
ATOM     27  C   UNK A   0       8.378  -5.158  26.208  0.00  0.00    +0.133 A 
ATOM     28  N   UNK A   0       7.811  -6.012  27.082  0.00  0.00    -0.199 NA
ATOM     29  C   UNK A   0       6.759  -5.615  27.810  0.00  0.00    +0.217 A 
ATOM     30  N   UNK A   0       6.147  -4.436  27.734  0.00  0.00    -0.179 NA
ATOM     31  N   UNK A   0       6.258  -6.537  28.704  0.00  0.00    -0.327 N 
ATOM     32  H   UNK A   0       5.281  -6.343  28.890  0.00  0.00    +0.145 HD
ATOM     33  H   UNK A   0       6.496  -7.471  28.404  0.00  0.00    +0.145 HD
ATOM     34  N   UNK A   0       9.473  -5.631  25.504  0.00  0.00    -0.342 N 
ATOM     35  H   UNK A   0       9.866  -6.448  25.947  0.00  0.00    +0.144 HD
ATOM     36  H   UNK A   0      10.125  -4.886  25.254  0.00  0.00    +0.144 HD
ATOM     37  C   UNK A   0       6.740  -3.610  26.867  0.00  0.00    +0.234 A 
ATOM     38  O   UNK A   0       6.295  -2.346  26.637  0.00  0.00    -0.445 OA
ATOM     39  C   UNK A   0       7.128  -1.786  25.728  0.00  0.00    +0.203 A 
ENDBRANCH  24  25
ENDBRANCH  23  24
ENDBRANCH   1  23
TORSDOF 11
ENDMDL
MODEL 9
REMARK VINA RESULT:      -7.2      2.461      3.551
REMARK  Name = 
REMARK  12 active torsions:
REMARK  status: ('A' for Active; 'I' for Inactive)
REMARK    1  A    between atoms: C_1  and  N_2
REMARK    2  A    between atoms: N_2  and  C_3
REMARK    3  A    between atoms: N_2  and  C_15
REMARK    4  A    between atoms: C_3  and  C_4
REMARK    5  A    between atoms: C_18  and  C_21
REMARK    6  A    between atoms: N_23  and  CA_24
REMARK    7  A    between atoms: CA_24  and  CB_26
REMARK    8  A    between atoms: CA_24  and  C_31
REMARK    9  A    between atoms: CB_26  and  CG_27
REMARK   10  A    between atoms: CG_27  and  CD_28
REMARK   11  A    between atoms: CD_28  and  OE1_29
REMARK   12  A    between atoms: C_31  and  O_32
REMARK                            x       y       z     vdW  Elec       q    Type
REMARK                         _______ _______ _______ _____ _____    ______ ____
ROOT
ATOM      1  C   UNK A   0       7.473  -2.485  23.284  0.00  0.00    +0.030 A 
ATOM      2  C   UNK A   0       6.999  -1.548  24.208  0.00  0.00    +0.024 A 
ATOM      3  C   UNK A   0       7.786  -0.455  24.591  0.00  0.00    +0.015 A 
ATOM      4  C   UNK A   0       9.070  -0.292  24.061  0.00  0.00    +0.037 A 
ATOM      5  C   UNK A   0       9.474  -1.105  23.008  0.00  0.00    +0.015 A 
ATOM      6  C   UNK A   0       8.691  -2.198  22.641  0.00  0.00    +0.024 A 
ENDROOT
BRANCH   4   7
ATOM      7  C   UNK A   0       9.952   0.735  24.664  0.00  0.00    +0.245 C 
ATOM      8  N   GLU A   1       9.512   2.016  24.911  0.00  0.00    -0.298 N 
ATOM      9  H   GLU A   1      10.265   2.614  25.243  0.00  0.00    +0.150 HD
ATOM     10  O   UNK A   0      11.125   0.464  24.905  0.00  0.00    -0.270 OA
BRANCH   8  11
ATOM     11  CA  GLU A   1       8.214   2.681  24.653  0.00  0.00    +0.182 C 
BRANCH  11  12
ATOM     12  C   GLU A   1       7.629   3.184  25.995  0.00  0.00    +0.325 C 
ATOM     13  OXT GLU A   1       7.234   4.319  26.191  0.00  0.00    -0.249 OA
BRANCH  12  14
ATOM     14  O   GLU A   1       7.528   2.210  26.933  0.00  0.00    -0.479 OA
ATOM     15  H   GLU A   1       7.696   2.564  27.830  0.00  0.00    +0.295 HD
ENDBRANCH  12  14
ENDBRANCH  11  12
BRANCH  11  16
ATOM     16  CB  GLU A   1       8.329   3.841  23.661  0.00  0.00    +0.045 C 
BRANCH  16  17
ATOM     17  CG  GLU A   1       7.660   3.552  22.319  0.00  0.00    +0.123 C 
BRANCH  17  18
ATOM     18  CD  GLU A   1       8.185   2.263  21.718  0.00  0.00    +0.305 C 
ATOM     19  OE2 GLU A   1       7.502   1.301  21.416  0.00  0.00    -0.251 OA
BRANCH  18  20
ATOM     20  OE1 GLU A   1       9.524   2.284  21.537  0.00  0.00    -0.481 OA
ATOM     21  HE1 GLU A   1       9.923   3.173  21.584  0.00  0.00    +0.295 HD
ENDBRANCH  18  20
ENDBRANCH  17  18
ENDBRANCH  16  17
ENDBRANCH  11  16
ENDBRANCH   8  11
ENDBRANCH   4   7
BRANCH   1  23
ATOM     22  C   UNK A   0       6.195  -3.878  21.717  0.00  0.00    +0.129 C 
ATOM     23  N   UNK A   0       6.845  -3.711  23.020  0.00  0.00    -0.328 N 
BRANCH  23  24
ATOM     24  C   UNK A   0       7.584  -4.888  23.519  0.00  0.00    +0.143 C 
BRANCH  24  25
ATOM     25  C   UNK A   0       7.681  -5.055  25.004  0.00  0.00    +0.020 A 
ATOM     26  C   UNK A   0       6.762  -5.659  25.924  0.00  0.00    +0.084 A 
ATOM     27  C   UNK A   0       5.513  -6.288  25.894  0.00  0.00    +0.133 A 
ATOM     28  N   UNK A   0       4.999  -6.773  27.040  0.00  0.00    -0.199 NA
ATOM     29  C   UNK A   0       5.686  -6.642  28.183  0.00  0.00    +0.217 A 
ATOM     30  N   UNK A   0       6.850  -6.017  28.337  0.00  0.00    -0.179 NA
ATOM     31  N   UNK A   0       5.106  -7.194  29.305  0.00  0.00    -0.327 N 
ATOM     32  H   UNK A   0       5.439  -6.719  30.136  0.00  0.00    +0.145 HD
ATOM     33  H   UNK A   0       4.106  -7.260  29.178  0.00  0.00    +0.145 HD
ATOM     34  N   UNK A   0       4.757  -6.476  24.749  0.00  0.00    -0.342 N 
ATOM     35  H   UNK A   0       4.063  -7.196  24.885  0.00  0.00    +0.144 HD
ATOM     36  H   UNK A   0       5.334  -6.547  23.909  0.00  0.00    +0.144 HD
ATOM     37  C   UNK A   0       7.337  -5.557  27.180  0.00  0.00    +0.234 A 
ATOM     38  O   UNK A   0       8.523  -4.898  27.095  0.00  0.00    -0.445 OA
ATOM     39  C   UNK A   0       8.721  -4.595  25.789  0.00  0.00    +0.203 A 
ENDBRANCH  24  25
ENDBRANCH  23  24
ENDBRANCH   1  23
TORSDOF 11
ENDMDL
