MODEL 1
REMARK VINA RESULT:      -7.9      0.000      0.000
REMARK  Name = 
REMARK  5 active torsions:
REMARK  status: ('A' for Active; 'I' for Inactive)
REMARK    1  A    between atoms: C_2  and  C_25
REMARK    2  A    between atoms: C_6  and  C_7
REMARK    3  A    between atoms: C_8  and  S_15
REMARK    4  A    between atoms: S_15  and  N_18
REMARK    5  A    between atoms: N_21  and  C_22
REMARK                            x       y       z     vdW  Elec       q    Type
REMARK                         _______ _______ _______ _____ _____    ______ ____
ROOT
ATOM      1  C   UNL     1       7.429   3.792  23.186  0.00  0.00    +0.084 C 
ATOM      2  N   UNL     1       8.469   3.353  22.238  0.00  0.00    -0.186 NA
ATOM      3  H   UNL     1       8.202   3.172  21.270  0.00  0.00    +0.148 HD
ATOM      4  S   UNL     1       9.553   2.216  22.828  0.00  0.00    +0.059 S 
ATOM      5  O   UNL     1      10.287   2.809  23.921  0.00  0.00    -0.153 OA
ATOM      6  O   UNL     1      10.193   1.630  21.674  0.00  0.00    -0.153 OA
ATOM      7  C   UNL     1       8.471   1.001  23.537  0.00  0.00    +0.110 A 
ATOM      8  C   UNL     1       7.128   1.300  23.792  0.00  0.00    -0.019 A 
ATOM      9  C   UNL     1       6.331   0.289  24.355  0.00  0.00    +0.011 A 
ATOM     10  C   UNL     1       6.834  -0.999  24.642  0.00  0.00    -0.024 A 
ATOM     11  C   UNL     1       8.182  -1.282  24.341  0.00  0.00    +0.110 A 
ATOM     12  C   UNL     1       5.882  -1.985  25.259  0.00  0.00    +0.046 C 
ATOM     13  C   UNL     1       8.997  -0.275  23.795  0.00  0.00    +0.057 A 
ATOM     14  C   UNL     1       6.466   2.609  23.408  0.00  0.00    +0.057 C 
ENDROOT
BRANCH   1  15
ATOM     15  C   UNL     1       6.726   5.044  22.599  0.00  0.00    +0.008 C 
ATOM     16  C   UNL     1       5.798   5.759  23.594  0.00  0.00    +0.005 C 
ATOM     17  C   UNL     1       6.638   6.840  24.279  0.00  0.00    +0.000 C 
ATOM     18  C   UNL     1       7.980   6.860  23.559  0.00  0.00    +0.000 C 
ATOM     19  C   UNL     1       7.713   6.162  22.235  0.00  0.00    +0.005 C 
ENDBRANCH   1  15
BRANCH  11  20
ATOM     20  S   UNL     1       8.870  -2.945  24.379  0.00  0.00    +0.061 S 
ATOM     21  O   UNL     1       8.689  -3.437  25.729  0.00  0.00    -0.153 OA
ATOM     22  O   UNL     1      10.193  -2.909  23.796  0.00  0.00    -0.153 OA
BRANCH  20  23
ATOM     23  N   UNL     1       7.895  -3.848  23.373  0.00  0.00    -0.174 NA
ATOM     24  C   UNL     1       7.518  -3.364  22.034  0.00  0.00    +0.125 C 
ATOM     25  C   UNL     1       6.003  -3.601  21.857  0.00  0.00    +0.101 C 
ATOM     26  N   UNL     1       5.596  -5.017  21.993  0.00  0.00    -0.303 NA
ATOM     27  C   UNL     1       6.068  -5.823  20.870  0.00  0.00    +0.105 C 
ATOM     28  C   UNL     1       6.079  -5.541  23.292  0.00  0.00    +0.101 C 
ATOM     29  C   UNL     1       7.568  -5.264  23.631  0.00  0.00    +0.125 C 
ENDBRANCH  20  23
ENDBRANCH  11  20
TORSDOF 3
ENDMDL
MODEL 2
REMARK VINA RESULT:      -7.5      1.561      2.002
REMARK  Name = 
REMARK  5 active torsions:
REMARK  status: ('A' for Active; 'I' for Inactive)
REMARK    1  A    between atoms: C_2  and  C_25
REMARK    2  A    between atoms: C_6  and  C_7
REMARK    3  A    between atoms: C_8  and  S_15
REMARK    4  A    between atoms: S_15  and  N_18
REMARK    5  A    between atoms: N_21  and  C_22
REMARK                            x       y       z     vdW  Elec       q    Type
REMARK                         _______ _______ _______ _____ _____    ______ ____
ROOT
ATOM      1  C   UNL     1       8.941   3.954  24.471  0.00  0.00    +0.084 C 
ATOM      2  N   UNL     1       9.281   3.444  23.129  0.00  0.00    -0.186 NA
ATOM      3  H   UNL     1       8.572   3.488  22.396  0.00  0.00    +0.148 HD
ATOM      4  S   UNL     1      10.148   2.007  23.098  0.00  0.00    +0.059 S 
ATOM      5  O   UNL     1      11.425   2.231  23.735  0.00  0.00    -0.153 OA
ATOM      6  O   UNL     1      10.015   1.483  21.760  0.00  0.00    -0.153 OA
ATOM      7  C   UNL     1       9.204   0.978  24.193  0.00  0.00    +0.110 A 
ATOM      8  C   UNL     1       8.258   1.534  25.062  0.00  0.00    -0.019 A 
ATOM      9  C   UNL     1       7.548   0.658  25.899  0.00  0.00    +0.011 A 
ATOM     10  C   UNL     1       7.744  -0.741  25.872  0.00  0.00    -0.024 A 
ATOM     11  C   UNL     1       8.678  -1.275  24.960  0.00  0.00    +0.110 A 
ATOM     12  C   UNL     1       6.933  -1.566  26.832  0.00  0.00    +0.046 C 
ATOM     13  C   UNL     1       9.409  -0.409  24.129  0.00  0.00    +0.057 A 
ATOM     14  C   UNL     1       7.889   3.005  25.080  0.00  0.00    +0.057 C 
ENDROOT
BRANCH   1  15
ATOM     15  C   UNL     1       8.431   5.412  24.328  0.00  0.00    +0.008 C 
ATOM     16  C   UNL     1       8.200   6.123  25.670  0.00  0.00    +0.005 C 
ATOM     17  C   UNL     1       9.500   6.857  26.007  0.00  0.00    +0.000 C 
ATOM     18  C   UNL     1      10.403   6.714  24.788  0.00  0.00    +0.000 C 
ATOM     19  C   UNL     1       9.459   6.335  23.658  0.00  0.00    +0.005 C 
ENDBRANCH   1  15
BRANCH  11  20
ATOM     20  S   UNL     1       8.815  -3.036  24.613  0.00  0.00    +0.061 S 
ATOM     21  O   UNL     1       9.068  -3.689  25.880  0.00  0.00    -0.153 OA
ATOM     22  O   UNL     1       9.735  -3.218  23.512  0.00  0.00    -0.153 OA
BRANCH  20  23
ATOM     23  N   UNL     1       7.301  -3.502  24.093  0.00  0.00    -0.174 NA
ATOM     24  C   UNL     1       6.659  -4.727  24.602  0.00  0.00    +0.125 C 
ATOM     25  C   UNL     1       6.075  -5.489  23.394  0.00  0.00    +0.101 C 
ATOM     26  N   UNL     1       5.086  -4.712  22.614  0.00  0.00    -0.303 NA
ATOM     27  C   UNL     1       3.846  -4.516  23.360  0.00  0.00    +0.105 C 
ATOM     28  C   UNL     1       5.693  -3.425  22.201  0.00  0.00    +0.101 C 
ATOM     29  C   UNL     1       6.411  -2.618  23.316  0.00  0.00    +0.125 C 
ENDBRANCH  20  23
ENDBRANCH  11  20
TORSDOF 3
ENDMDL
MODEL 3
REMARK VINA RESULT:      -7.4      2.753      8.295
REMARK  Name = 
REMARK  5 active torsions:
REMARK  status: ('A' for Active; 'I' for Inactive)
REMARK    1  A    between atoms: C_2  and  C_25
REMARK    2  A    between atoms: C_6  and  C_7
REMARK    3  A    between atoms: C_8  and  S_15
REMARK    4  A    between atoms: S_15  and  N_18
REMARK    5  A    between atoms: N_21  and  C_22
REMARK                            x       y       z     vdW  Elec       q    Type
REMARK                         _______ _______ _______ _____ _____    ______ ____
ROOT
ATOM      1  C   UNL     1       5.348  -5.504  24.863  0.00  0.00    +0.084 C 
ATOM      2  N   UNL     1       5.961  -5.901  23.581  0.00  0.00    -0.186 NA
ATOM      3  H   UNL     1       6.734  -6.567  23.596  0.00  0.00    +0.148 HD
ATOM      4  S   UNL     1       6.206  -4.658  22.480  0.00  0.00    +0.059 S 
ATOM      5  O   UNL     1       4.919  -4.114  22.113  0.00  0.00    -0.153 OA
ATOM      6  O   UNL     1       7.156  -5.155  21.515  0.00  0.00    -0.153 OA
ATOM      7  C   UNL     1       7.015  -3.431  23.475  0.00  0.00    +0.110 A 
ATOM      8  C   UNL     1       6.994  -3.514  24.872  0.00  0.00    -0.019 A 
ATOM      9  C   UNL     1       7.656  -2.507  25.594  0.00  0.00    +0.011 A 
ATOM     10  C   UNL     1       8.347  -1.451  24.960  0.00  0.00    -0.024 A 
ATOM     11  C   UNL     1       8.382  -1.415  23.550  0.00  0.00    +0.110 A 
ATOM     12  C   UNL     1       9.000  -0.428  25.847  0.00  0.00    +0.046 C 
ATOM     13  C   UNL     1       7.708  -2.404  22.815  0.00  0.00    +0.057 A 
ATOM     14  C   UNL     1       6.386  -4.670  25.641  0.00  0.00    +0.057 C 
ENDROOT
BRANCH   1  15
ATOM     15  C   UNL     1       4.913  -6.787  25.617  0.00  0.00    +0.008 C 
ATOM     16  C   UNL     1       4.916  -6.639  27.147  0.00  0.00    +0.005 C 
ATOM     17  C   UNL     1       3.505  -6.205  27.550  0.00  0.00    +0.000 C 
ATOM     18  C   UNL     1       2.658  -6.275  26.286  0.00  0.00    +0.000 C 
ATOM     19  C   UNL     1       3.450  -7.168  25.344  0.00  0.00    +0.005 C 
ENDBRANCH   1  15
BRANCH  11  20
ATOM     20  S   UNL     1       9.457  -0.309  22.622  0.00  0.00    +0.061 S 
ATOM     21  O   UNL     1       9.350  -0.699  21.231  0.00  0.00    -0.153 OA
ATOM     22  O   UNL     1      10.752  -0.280  23.264  0.00  0.00    -0.153 OA
BRANCH  20  23
ATOM     23  N   UNL     1       8.776   1.204  22.781  0.00  0.00    -0.174 NA
ATOM     24  C   UNL     1       9.605   2.422  22.772  0.00  0.00    +0.125 C 
ATOM     25  C   UNL     1       9.133   3.322  23.933  0.00  0.00    +0.101 C 
ATOM     26  N   UNL     1       7.706   3.707  23.853  0.00  0.00    -0.303 NA
ATOM     27  C   UNL     1       7.459   4.635  22.752  0.00  0.00    +0.105 C 
ATOM     28  C   UNL     1       6.876   2.484  23.742  0.00  0.00    +0.101 C 
ATOM     29  C   UNL     1       7.324   1.447  22.677  0.00  0.00    +0.125 C 
ENDBRANCH  20  23
ENDBRANCH  11  20
TORSDOF 3
ENDMDL
MODEL 4
REMARK VINA RESULT:      -7.3      2.632      3.595
REMARK  Name = 
REMARK  5 active torsions:
REMARK  status: ('A' for Active; 'I' for Inactive)
REMARK    1  A    between atoms: C_2  and  C_25
REMARK    2  A    between atoms: C_6  and  C_7
REMARK    3  A    between atoms: C_8  and  S_15
REMARK    4  A    between atoms: S_15  and  N_18
REMARK    5  A    between atoms: N_21  and  C_22
REMARK                            x       y       z     vdW  Elec       q    Type
REMARK                         _______ _______ _______ _____ _____    ______ ____
ROOT
ATOM      1  C   UNL     1       8.378   3.449  24.206  0.00  0.00    +0.084 C 
ATOM      2  N   UNL     1       6.951   3.251  24.521  0.00  0.00    -0.186 NA
ATOM      3  H   UNL     1       6.669   3.208  25.501  0.00  0.00    +0.148 HD
ATOM      4  S   UNL     1       6.150   2.121  23.573  0.00  0.00    +0.059 S 
ATOM      5  O   UNL     1       6.158   2.586  22.205  0.00  0.00    -0.153 OA
ATOM      6  O   UNL     1       4.941   1.782  24.284  0.00  0.00    -0.153 OA
ATOM      7  C   UNL     1       7.246   0.728  23.647  0.00  0.00    +0.110 A 
ATOM      8  C   UNL     1       8.565   0.875  24.092  0.00  0.00    -0.019 A 
ATOM      9  C   UNL     1       9.374  -0.272  24.123  0.00  0.00    +0.011 A 
ATOM     10  C   UNL     1       8.895  -1.547  23.747  0.00  0.00    -0.024 A 
ATOM     11  C   UNL     1       7.552  -1.671  23.337  0.00  0.00    +0.110 A 
ATOM     12  C   UNL     1       9.869  -2.690  23.809  0.00  0.00    +0.046 C 
ATOM     13  C   UNL     1       6.735  -0.529  23.283  0.00  0.00    +0.057 A 
ATOM     14  C   UNL     1       9.134   2.174  24.630  0.00  0.00    +0.057 C 
ENDROOT
BRANCH   1  15
ATOM     15  C   UNL     1       8.873   4.720  24.944  0.00  0.00    +0.008 C 
ATOM     16  C   UNL     1      10.063   5.411  24.260  0.00  0.00    +0.005 C 
ATOM     17  C   UNL     1       9.477   6.468  23.321  0.00  0.00    +0.000 C 
ATOM     18  C   UNL     1       7.979   6.502  23.595  0.00  0.00    +0.000 C 
ATOM     19  C   UNL     1       7.825   5.843  24.956  0.00  0.00    +0.005 C 
ENDBRANCH   1  15
BRANCH  11  20
ATOM     20  S   UNL     1       6.735  -3.259  23.116  0.00  0.00    +0.061 S 
ATOM     21  O   UNL     1       7.572  -4.034  22.222  0.00  0.00    -0.153 OA
ATOM     22  O   UNL     1       5.349  -3.021  22.779  0.00  0.00    -0.153 OA
BRANCH  20  23
ATOM     23  N   UNL     1       6.777  -3.990  24.613  0.00  0.00    -0.174 NA
ATOM     24  C   UNL     1       5.922  -3.522  25.718  0.00  0.00    +0.125 C 
ATOM     25  C   UNL     1       6.798  -3.431  26.985  0.00  0.00    +0.101 C 
ATOM     26  N   UNL     1       7.431  -4.712  27.372  0.00  0.00    -0.303 NA
ATOM     27  C   UNL     1       6.447  -5.673  27.863  0.00  0.00    +0.105 C 
ATOM     28  C   UNL     1       8.196  -5.245  26.220  0.00  0.00    +0.101 C 
ATOM     29  C   UNL     1       7.450  -5.280  24.859  0.00  0.00    +0.125 C 
ENDBRANCH  20  23
ENDBRANCH  11  20
TORSDOF 3
ENDMDL
MODEL 5
REMARK VINA RESULT:      -7.3      3.004      8.279
REMARK  Name = 
REMARK  5 active torsions:
REMARK  status: ('A' for Active; 'I' for Inactive)
REMARK    1  A    between atoms: C_2  and  C_25
REMARK    2  A    between atoms: C_6  and  C_7
REMARK    3  A    between atoms: C_8  and  S_15
REMARK    4  A    between atoms: S_15  and  N_18
REMARK    5  A    between atoms: N_21  and  C_22
REMARK                            x       y       z     vdW  Elec       q    Type
REMARK                         _______ _______ _______ _____ _____    ______ ____
ROOT
ATOM      1  C   UNL     1       3.706  -5.707  23.038  0.00  0.00    +0.084 C 
ATOM      2  N   UNL     1       4.976  -6.392  22.729  0.00  0.00    -0.186 NA
ATOM      3  H   UNL     1       5.351  -7.054  23.409  0.00  0.00    +0.148 HD
ATOM      4  S   UNL     1       6.169  -5.431  22.043  0.00  0.00    +0.059 S 
ATOM      5  O   UNL     1       5.693  -4.957  20.764  0.00  0.00    -0.153 OA
ATOM      6  O   UNL     1       7.410  -6.150  22.206  0.00  0.00    -0.153 OA
ATOM      7  C   UNL     1       6.192  -4.030  23.132  0.00  0.00    +0.110 A 
ATOM      8  C   UNL     1       5.139  -3.799  24.025  0.00  0.00    -0.019 A 
ATOM      9  C   UNL     1       5.226  -2.670  24.856  0.00  0.00    +0.011 A 
ATOM     10  C   UNL     1       6.336  -1.796  24.832  0.00  0.00    -0.024 A 
ATOM     11  C   UNL     1       7.398  -2.075  23.948  0.00  0.00    +0.110 A 
ATOM     12  C   UNL     1       6.298  -0.614  25.761  0.00  0.00    +0.046 C 
ATOM     13  C   UNL     1       7.317  -3.191  23.096  0.00  0.00    +0.057 A 
ATOM     14  C   UNL     1       3.967  -4.742  24.211  0.00  0.00    +0.057 C 
ENDROOT
BRANCH   1  15
ATOM     15  C   UNL     1       2.635  -6.781  23.362  0.00  0.00    +0.008 C 
ATOM     16  C   UNL     1       1.800  -6.466  24.613  0.00  0.00    +0.005 C 
ATOM     17  C   UNL     1       0.559  -5.709  24.133  0.00  0.00    +0.000 C 
ATOM     18  C   UNL     1       0.596  -5.745  22.610  0.00  0.00    +0.000 C 
ATOM     19  C   UNL     1       1.550  -6.881  22.279  0.00  0.00    +0.005 C 
ENDBRANCH   1  15
BRANCH  11  20
ATOM     20  S   UNL     1       8.984  -1.227  24.018  0.00  0.00    +0.061 S 
ATOM     21  O   UNL     1       9.812  -1.809  22.982  0.00  0.00    -0.153 OA
ATOM     22  O   UNL     1       9.443  -1.222  25.389  0.00  0.00    -0.153 OA
BRANCH  20  23
ATOM     23  N   UNL     1       8.660   0.350  23.585  0.00  0.00    -0.174 NA
ATOM     24  C   UNL     1       7.707   0.669  22.508  0.00  0.00    +0.125 C 
ATOM     25  C   UNL     1       8.356   1.739  21.605  0.00  0.00    +0.101 C 
ATOM     26  N   UNL     1       8.718   2.985  22.316  0.00  0.00    -0.303 NA
ATOM     27  C   UNL     1       7.534   3.739  22.719  0.00  0.00    +0.105 C 
ATOM     28  C   UNL     1       9.583   2.654  23.473  0.00  0.00    +0.101 C 
ATOM     29  C   UNL     1       9.084   1.509  24.395  0.00  0.00    +0.125 C 
ENDBRANCH  20  23
ENDBRANCH  11  20
TORSDOF 3
ENDMDL
MODEL 6
REMARK VINA RESULT:      -7.2      3.516      5.716
REMARK  Name = 
REMARK  5 active torsions:
REMARK  status: ('A' for Active; 'I' for Inactive)
REMARK    1  A    between atoms: C_2  and  C_25
REMARK    2  A    between atoms: C_6  and  C_7
REMARK    3  A    between atoms: C_8  and  S_15
REMARK    4  A    between atoms: S_15  and  N_18
REMARK    5  A    between atoms: N_21  and  C_22
REMARK                            x       y       z     vdW  Elec       q    Type
REMARK                         _______ _______ _______ _____ _____    ______ ____
ROOT
ATOM      1  C   UNL     1       8.860  -0.797  23.392  0.00  0.00    +0.084 C 
ATOM      2  N   UNL     1       8.739  -1.061  24.838  0.00  0.00    -0.186 NA
ATOM      3  H   UNL     1       9.493  -1.565  25.306  0.00  0.00    +0.148 HD
ATOM      4  S   UNL     1       7.220  -1.547  25.361  0.00  0.00    +0.059 S 
ATOM      5  O   UNL     1       6.287  -0.474  25.109  0.00  0.00    -0.153 OA
ATOM      6  O   UNL     1       7.411  -2.137  26.664  0.00  0.00    -0.153 OA
ATOM      7  C   UNL     1       6.828  -2.845  24.216  0.00  0.00    +0.110 A 
ATOM      8  C   UNL     1       7.549  -2.992  23.025  0.00  0.00    -0.019 A 
ATOM      9  C   UNL     1       7.182  -4.042  22.167  0.00  0.00    +0.011 A 
ATOM     10  C   UNL     1       6.144  -4.948  22.480  0.00  0.00    -0.024 A 
ATOM     11  C   UNL     1       5.461  -4.797  23.704  0.00  0.00    +0.110 A 
ATOM     12  C   UNL     1       5.840  -6.017  21.469  0.00  0.00    +0.046 C 
ATOM     13  C   UNL     1       5.804  -3.739  24.564  0.00  0.00    +0.057 A 
ATOM     14  C   UNL     1       8.755  -2.149  22.658  0.00  0.00    +0.057 C 
ENDROOT
BRANCH   1  15
ATOM     15  C   UNL     1      10.207  -0.072  23.135  0.00  0.00    +0.008 C 
ATOM     16  C   UNL     1      10.157   0.940  21.980  0.00  0.00    +0.005 C 
ATOM     17  C   UNL     1       9.812   2.296  22.599  0.00  0.00    +0.000 C 
ATOM     18  C   UNL     1       9.839   2.098  24.109  0.00  0.00    +0.000 C 
ATOM     19  C   UNL     1      10.634   0.818  24.312  0.00  0.00    +0.005 C 
ENDBRANCH   1  15
BRANCH  11  20
ATOM     20  S   UNL     1       4.332  -6.037  24.359  0.00  0.00    +0.061 S 
ATOM     21  O   UNL     1       4.943  -7.326  24.109  0.00  0.00    -0.153 OA
ATOM     22  O   UNL     1       3.004  -5.760  23.857  0.00  0.00    -0.153 OA
BRANCH  20  23
ATOM     23  N   UNL     1       4.315  -5.792  26.007  0.00  0.00    -0.174 NA
ATOM     24  C   UNL     1       3.171  -5.145  26.674  0.00  0.00    +0.125 C 
ATOM     25  C   UNL     1       3.730  -4.095  27.657  0.00  0.00    +0.101 C 
ATOM     26  N   UNL     1       4.636  -4.657  28.684  0.00  0.00    -0.303 NA
ATOM     27  C   UNL     1       3.913  -5.483  29.647  0.00  0.00    +0.105 C 
ATOM     28  C   UNL     1       5.724  -5.409  28.017  0.00  0.00    +0.101 C 
ATOM     29  C   UNL     1       5.287  -6.420  26.923  0.00  0.00    +0.125 C 
ENDBRANCH  20  23
ENDBRANCH  11  20
TORSDOF 3
ENDMDL
MODEL 7
REMARK VINA RESULT:      -7.2      2.721      3.442
REMARK  Name = 
REMARK  5 active torsions:
REMARK  status: ('A' for Active; 'I' for Inactive)
REMARK    1  A    between atoms: C_2  and  C_25
REMARK    2  A    between atoms: C_6  and  C_7
REMARK    3  A    between atoms: C_8  and  S_15
REMARK    4  A    between atoms: S_15  and  N_18
REMARK    5  A    between atoms: N_21  and  C_22
REMARK                            x       y       z     vdW  Elec       q    Type
REMARK                         _______ _______ _______ _____ _____    ______ ____
ROOT
ATOM      1  C   UNL     1       8.625   1.876  23.606  0.00  0.00    +0.084 C 
ATOM      2  N   UNL     1       9.582   1.120  22.776  0.00  0.00    -0.186 NA
ATOM      3  H   UNL     1       9.456   1.120  21.763  0.00  0.00    +0.148 HD
ATOM      4  S   UNL     1      10.020  -0.388  23.368  0.00  0.00    +0.059 S 
ATOM      5  O   UNL     1      10.702  -0.203  24.628  0.00  0.00    -0.153 OA
ATOM      6  O   UNL     1      10.598  -1.106  22.257  0.00  0.00    -0.153 OA
ATOM      7  C   UNL     1       8.445  -1.116  23.739  0.00  0.00    +0.110 A 
ATOM      8  C   UNL     1       7.293  -0.327  23.825  0.00  0.00    -0.019 A 
ATOM      9  C   UNL     1       6.082  -0.972  24.123  0.00  0.00    +0.011 A 
ATOM     10  C   UNL     1       5.995  -2.369  24.310  0.00  0.00    -0.024 A 
ATOM     11  C   UNL     1       7.166  -3.143  24.181  0.00  0.00    +0.110 A 
ATOM     12  C   UNL     1       4.641  -2.933  24.641  0.00  0.00    +0.046 C 
ATOM     13  C   UNL     1       8.389  -2.509  23.902  0.00  0.00    +0.057 A 
ATOM     14  C   UNL     1       7.262   1.159  23.521  0.00  0.00    +0.057 C 
ENDROOT
BRANCH   1  15
ATOM     15  C   UNL     1       8.574   3.337  23.090  0.00  0.00    +0.008 C 
ATOM     16  C   UNL     1       7.194   3.998  23.232  0.00  0.00    +0.005 C 
ATOM     17  C   UNL     1       7.189   4.721  24.581  0.00  0.00    +0.000 C 
ATOM     18  C   UNL     1       8.609   4.623  25.124  0.00  0.00    +0.000 C 
ATOM     19  C   UNL     1       9.460   4.286  23.910  0.00  0.00    +0.005 C 
ENDBRANCH   1  15
BRANCH  11  20
ATOM     20  S   UNL     1       7.152  -4.941  24.103  0.00  0.00    +0.061 S 
ATOM     21  O   UNL     1       8.536  -5.365  24.060  0.00  0.00    -0.153 OA
ATOM     22  O   UNL     1       6.241  -5.349  23.056  0.00  0.00    -0.153 OA
BRANCH  20  23
ATOM     23  N   UNL     1       6.511  -5.441  25.558  0.00  0.00    -0.174 NA
ATOM     24  C   UNL     1       5.412  -6.422  25.616  0.00  0.00    +0.125 C 
ATOM     25  C   UNL     1       4.363  -5.896  26.618  0.00  0.00    +0.101 C 
ATOM     26  N   UNL     1       4.893  -5.680  27.984  0.00  0.00    -0.303 NA
ATOM     27  C   UNL     1       5.203  -6.944  28.647  0.00  0.00    +0.105 C 
ATOM     28  C   UNL     1       6.073  -4.787  27.914  0.00  0.00    +0.101 C 
ATOM     29  C   UNL     1       7.149  -5.155  26.858  0.00  0.00    +0.125 C 
ENDBRANCH  20  23
ENDBRANCH  11  20
TORSDOF 3
ENDMDL
MODEL 8
REMARK VINA RESULT:      -7.1      2.213      2.904
REMARK  Name = 
REMARK  5 active torsions:
REMARK  status: ('A' for Active; 'I' for Inactive)
REMARK    1  A    between atoms: C_2  and  C_25
REMARK    2  A    between atoms: C_6  and  C_7
REMARK    3  A    between atoms: C_8  and  S_15
REMARK    4  A    between atoms: S_15  and  N_18
REMARK    5  A    between atoms: N_21  and  C_22
REMARK                            x       y       z     vdW  Elec       q    Type
REMARK                         _______ _______ _______ _____ _____    ______ ____
ROOT
ATOM      1  C   UNL     1       8.199   3.744  24.814  0.00  0.00    +0.084 C 
ATOM      2  N   UNL     1       7.906   3.282  26.183  0.00  0.00    -0.186 NA
ATOM      3  H   UNL     1       8.619   3.405  26.903  0.00  0.00    +0.148 HD
ATOM      4  S   UNL     1       7.129   1.798  26.297  0.00  0.00    +0.059 S 
ATOM      5  O   UNL     1       5.834   1.913  25.668  0.00  0.00    -0.153 OA
ATOM      6  O   UNL     1       7.309   1.351  27.657  0.00  0.00    -0.153 OA
ATOM      7  C   UNL     1       8.123   0.775  25.240  0.00  0.00    +0.110 A 
ATOM      8  C   UNL     1       9.023   1.344  24.332  0.00  0.00    -0.019 A 
ATOM      9  C   UNL     1       9.776   0.472  23.529  0.00  0.00    +0.011 A 
ATOM     10  C   UNL     1       9.666  -0.933  23.628  0.00  0.00    -0.024 A 
ATOM     11  C   UNL     1       8.777  -1.477  24.578  0.00  0.00    +0.110 A 
ATOM     12  C   UNL     1      10.516  -1.754  22.698  0.00  0.00    +0.046 C 
ATOM     13  C   UNL     1       8.004  -0.617  25.376  0.00  0.00    +0.057 A 
ATOM     14  C   UNL     1       9.300   2.832  24.237  0.00  0.00    +0.057 C 
ENDROOT
BRANCH   1  15
ATOM     15  C   UNL     1       8.620   5.235  24.878  0.00  0.00    +0.008 C 
ATOM     16  C   UNL     1       9.238   5.762  23.573  0.00  0.00    +0.005 C 
ATOM     17  C   UNL     1       8.091   6.363  22.755  0.00  0.00    +0.000 C 
ATOM     18  C   UNL     1       6.863   6.338  23.657  0.00  0.00    +0.000 C 
ATOM     19  C   UNL     1       7.424   6.181  25.061  0.00  0.00    +0.005 C 
ENDBRANCH   1  15
BRANCH  11  20
ATOM     20  S   UNL     1       8.753  -3.223  25.013  0.00  0.00    +0.061 S 
ATOM     21  O   UNL     1       8.476  -3.293  26.433  0.00  0.00    -0.153 OA
ATOM     22  O   UNL     1       9.943  -3.847  24.480  0.00  0.00    -0.153 OA
BRANCH  20  23
ATOM     23  N   UNL     1       7.440  -3.861  24.207  0.00  0.00    -0.174 NA
ATOM     24  C   UNL     1       7.589  -4.987  23.269  0.00  0.00    +0.125 C 
ATOM     25  C   UNL     1       6.784  -4.649  21.996  0.00  0.00    +0.101 C 
ATOM     26  N   UNL     1       5.344  -4.411  22.243  0.00  0.00    -0.303 NA
ATOM     27  C   UNL     1       4.650  -5.642  22.612  0.00  0.00    +0.105 C 
ATOM     28  C   UNL     1       5.192  -3.360  23.275  0.00  0.00    +0.101 C 
ATOM     29  C   UNL     1       6.045  -3.534  24.561  0.00  0.00    +0.125 C 
ENDBRANCH  20  23
ENDBRANCH  11  20
TORSDOF 3
ENDMDL
MODEL 9
REMARK VINA RESULT:      -6.9      3.468      5.580
REMARK  Name = 
REMARK  5 active torsions:
REMARK  status: ('A' for Active; 'I' for Inactive)
REMARK    1  A    between atoms: C_2  and  C_25
REMARK    2  A    between atoms: C_6  and  C_7
REMARK    3  A    between atoms: C_8  and  S_15
REMARK    4  A    between atoms: S_15  and  N_18
REMARK    5  A    between atoms: N_21  and  C_22
REMARK                            x       y       z     vdW  Elec       q    Type
REMARK                         _______ _______ _______ _____ _____    ______ ____
ROOT
ATOM      1  C   UNL     1       8.870  -0.686  23.315  0.00  0.00    +0.084 C 
ATOM      2  N   UNL     1       8.854  -0.805  24.785  0.00  0.00    -0.186 NA
ATOM      3  H   UNL     1       9.681  -1.178  25.253  0.00  0.00    +0.148 HD
ATOM      4  S   UNL     1       7.426  -1.384  25.450  0.00  0.00    +0.059 S 
ATOM      5  O   UNL     1       6.371  -0.443  25.152  0.00  0.00    -0.153 OA
ATOM      6  O   UNL     1       7.747  -1.810  26.790  0.00  0.00    -0.153 OA
ATOM      7  C   UNL     1       7.115  -2.829  24.468  0.00  0.00    +0.110 A 
ATOM      8  C   UNL     1       7.783  -3.028  23.254  0.00  0.00    -0.019 A 
ATOM      9  C   UNL     1       7.486  -4.195  22.531  0.00  0.00    +0.011 A 
ATOM     10  C   UNL     1       6.568  -5.162  22.998  0.00  0.00    -0.024 A 
ATOM     11  C   UNL     1       5.938  -4.952  24.242  0.00  0.00    +0.110 A 
ATOM     12  C   UNL     1       6.327  -6.358  22.120  0.00  0.00    +0.046 C 
ATOM     13  C   UNL     1       6.211  -3.780  24.968  0.00  0.00    +0.057 A 
ATOM     14  C   UNL     1       8.870  -2.111  22.728  0.00  0.00    +0.057 C 
ENDROOT
BRANCH   1  15
ATOM     15  C   UNL     1      10.116   0.140  22.902  0.00  0.00    +0.008 C 
ATOM     16  C   UNL     1       9.815   1.252  21.885  0.00  0.00    +0.005 C 
ATOM     17  C   UNL     1       9.530   2.521  22.691  0.00  0.00    +0.000 C 
ATOM     18  C   UNL     1       9.838   2.183  24.145  0.00  0.00    +0.000 C 
ATOM     19  C   UNL     1      10.710   0.940  24.071  0.00  0.00    +0.005 C 
ENDBRANCH   1  15
BRANCH  11  20
ATOM     20  S   UNL     1       4.985  -6.222  25.088  0.00  0.00    +0.061 S 
ATOM     21  O   UNL     1       5.720  -6.561  26.289  0.00  0.00    -0.153 OA
ATOM     22  O   UNL     1       4.648  -7.256  24.134  0.00  0.00    -0.153 OA
BRANCH  20  23
ATOM     23  N   UNL     1       3.568  -5.476  25.551  0.00  0.00    -0.174 NA
ATOM     24  C   UNL     1       3.291  -5.167  26.964  0.00  0.00    +0.125 C 
ATOM     25  C   UNL     1       1.842  -5.603  27.267  0.00  0.00    +0.101 C 
ATOM     26  N   UNL     1       0.826  -4.941  26.418  0.00  0.00    -0.303 NA
ATOM     27  C   UNL     1       0.692  -3.524  26.743  0.00  0.00    +0.105 C 
ATOM     28  C   UNL     1       1.169  -5.152  24.992  0.00  0.00    +0.101 C 
ATOM     29  C   UNL     1       2.638  -4.851  24.590  0.00  0.00    +0.125 C 
ENDBRANCH  20  23
ENDBRANCH  11  20
TORSDOF 3
ENDMDL
