MODEL 1
REMARK VINA RESULT:      -6.8      0.000      0.000
REMARK  Name = 
REMARK  2 active torsions:
REMARK  status: ('A' for Active; 'I' for Inactive)
REMARK    1  A    between atoms: C_4  and  C_6
REMARK    2  A    between atoms: C_8  and  C_11
REMARK                            x       y       z     vdW  Elec       q    Type
REMARK                         _______ _______ _______ _____ _____    ______ ____
ROOT
ATOM      1  C   UNL     1       8.785  -3.518  25.333  0.00  0.00    +0.188 A 
ATOM      2  O   UNL     1       9.697  -3.960  24.425  0.00  0.00    -0.352 OA
ATOM      3  N   UNL     1      10.205  -2.889  23.713  0.00  0.00    -0.078 NA
ATOM      4  C   UNL     1       9.594  -1.789  24.189  0.00  0.00    +0.114 A 
ATOM      5  C   UNL     1       8.698  -2.151  25.228  0.00  0.00    +0.082 A 
ENDROOT
BRANCH   1   9
ATOM      6  N   UNL     1       7.426  -6.043  27.425  0.00  0.00    -0.284 N 
ATOM      7  H   UNL     1       7.489  -6.989  27.786  0.00  0.00    +0.188 HD
ATOM      8  N   UNL     1       8.359  -5.634  26.549  0.00  0.00    -0.171 NA
ATOM      9  C   UNL     1       8.008  -4.370  26.269  0.00  0.00    +0.130 A 
ATOM     10  C   UNL     1       6.845  -3.983  26.973  0.00  0.00    +0.052 A 
ATOM     11  C   UNL     1       6.496  -5.089  27.712  0.00  0.00    +0.105 A 
ENDBRANCH   1   9
BRANCH   4  12
ATOM     12  C   UNL     1       9.855  -0.450  23.649  0.00  0.00    +0.004 A 
ATOM     13  C   UNL     1       9.578  -0.145  22.308  0.00  0.00    +0.010 A 
ATOM     14  C   UNL     1       9.793   1.143  21.806  0.00  0.00    +0.001 A 
ATOM     15  C   UNL     1      10.292   2.143  22.637  0.00  0.00    +0.000 A 
ATOM     16  C   UNL     1      10.583   1.856  23.968  0.00  0.00    +0.001 A 
ATOM     17  C   UNL     1      10.368   0.570  24.470  0.00  0.00    +0.010 A 
ENDBRANCH   4  12
TORSDOF 2
ENDMDL
MODEL 2
REMARK VINA RESULT:      -6.5      2.690      2.886
REMARK  Name = 
REMARK  2 active torsions:
REMARK  status: ('A' for Active; 'I' for Inactive)
REMARK    1  A    between atoms: C_4  and  C_6
REMARK    2  A    between atoms: C_8  and  C_11
REMARK                            x       y       z     vdW  Elec       q    Type
REMARK                         _______ _______ _______ _____ _____    ______ ____
ROOT
ATOM      1  C   UNL     1       7.951  -3.768  23.085  0.00  0.00    +0.188 A 
ATOM      2  O   UNL     1       9.079  -4.021  23.803  0.00  0.00    -0.352 OA
ATOM      3  N   UNL     1       9.824  -2.863  23.929  0.00  0.00    -0.078 NA
ATOM      4  C   UNL     1       9.144  -1.900  23.280  0.00  0.00    +0.114 A 
ATOM      5  C   UNL     1       7.944  -2.437  22.746  0.00  0.00    +0.082 A 
ENDROOT
BRANCH   1   9
ATOM      6  N   UNL     1       5.935  -6.353  21.723  0.00  0.00    -0.284 N 
ATOM      7  H   UNL     1       5.830  -7.092  21.036  0.00  0.00    +0.188 HD
ATOM      8  N   UNL     1       7.074  -5.640  21.720  0.00  0.00    -0.171 NA
ATOM      9  C   UNL     1       6.910  -4.764  22.722  0.00  0.00    +0.130 A 
ATOM     10  C   UNL     1       5.660  -4.928  23.360  0.00  0.00    +0.052 A 
ATOM     11  C   UNL     1       5.055  -5.965  22.689  0.00  0.00    +0.105 A 
ENDBRANCH   1   9
BRANCH   4  12
ATOM     12  C   UNL     1       9.645  -0.525  23.168  0.00  0.00    +0.004 A 
ATOM     13  C   UNL     1       9.469   0.214  21.989  0.00  0.00    +0.010 A 
ATOM     14  C   UNL     1       9.916   1.536  21.898  0.00  0.00    +0.001 A 
ATOM     15  C   UNL     1      10.549   2.137  22.984  0.00  0.00    +0.000 A 
ATOM     16  C   UNL     1      10.742   1.415  24.159  0.00  0.00    +0.001 A 
ATOM     17  C   UNL     1      10.296   0.094  24.249  0.00  0.00    +0.010 A 
ENDBRANCH   4  12
TORSDOF 2
ENDMDL
MODEL 3
REMARK VINA RESULT:      -6.5      3.015      6.730
REMARK  Name = 
REMARK  2 active torsions:
REMARK  status: ('A' for Active; 'I' for Inactive)
REMARK    1  A    between atoms: C_4  and  C_6
REMARK    2  A    between atoms: C_8  and  C_11
REMARK                            x       y       z     vdW  Elec       q    Type
REMARK                         _______ _______ _______ _____ _____    ______ ____
ROOT
ATOM      1  C   UNL     1       9.391  -1.172  23.080  0.00  0.00    +0.188 A 
ATOM      2  O   UNL     1      10.175  -2.037  23.779  0.00  0.00    -0.352 OA
ATOM      3  N   UNL     1       9.532  -3.254  23.905  0.00  0.00    -0.078 NA
ATOM      4  C   UNL     1       8.347  -3.127  23.280  0.00  0.00    +0.114 A 
ATOM      5  C   UNL     1       8.232  -1.823  22.732  0.00  0.00    +0.082 A 
ENDROOT
BRANCH   1   9
ATOM      6  N   UNL     1       9.962   2.030  21.656  0.00  0.00    -0.284 N 
ATOM      7  H   UNL     1       9.922   2.629  20.839  0.00  0.00    +0.188 HD
ATOM      8  N   UNL     1       9.559   0.754  21.531  0.00  0.00    -0.171 NA
ATOM      9  C   UNL     1       9.727   0.239  22.757  0.00  0.00    +0.130 A 
ATOM     10  C   UNL     1      10.241   1.197  23.660  0.00  0.00    +0.052 A 
ATOM     11  C   UNL     1      10.380   2.344  22.915  0.00  0.00    +0.105 A 
ENDBRANCH   1   9
BRANCH   4  12
ATOM     12  C   UNL     1       7.364  -4.215  23.231  0.00  0.00    +0.004 A 
ATOM     13  C   UNL     1       6.557  -4.510  24.340  0.00  0.00    +0.010 A 
ATOM     14  C   UNL     1       5.596  -5.524  24.278  0.00  0.00    +0.001 A 
ATOM     15  C   UNL     1       5.430  -6.260  23.107  0.00  0.00    +0.000 A 
ATOM     16  C   UNL     1       6.228  -5.988  21.999  0.00  0.00    +0.001 A 
ATOM     17  C   UNL     1       7.189  -4.974  22.062  0.00  0.00    +0.010 A 
ENDBRANCH   4  12
TORSDOF 2
ENDMDL
MODEL 4
REMARK VINA RESULT:      -6.4      3.005      6.634
REMARK  Name = 
REMARK  2 active torsions:
REMARK  status: ('A' for Active; 'I' for Inactive)
REMARK    1  A    between atoms: C_4  and  C_6
REMARK    2  A    between atoms: C_8  and  C_11
REMARK                            x       y       z     vdW  Elec       q    Type
REMARK                         _______ _______ _______ _____ _____    ______ ____
ROOT
ATOM      1  C   UNL     1       9.403  -1.149  23.100  0.00  0.00    +0.188 A 
ATOM      2  O   UNL     1      10.185  -2.040  23.766  0.00  0.00    -0.352 OA
ATOM      3  N   UNL     1       9.526  -3.250  23.879  0.00  0.00    -0.078 NA
ATOM      4  C   UNL     1       8.332  -3.091  23.278  0.00  0.00    +0.114 A 
ATOM      5  C   UNL     1       8.227  -1.774  22.761  0.00  0.00    +0.082 A 
ENDROOT
BRANCH   1   9
ATOM      6  N   UNL     1      10.029   2.063  21.725  0.00  0.00    -0.284 N 
ATOM      7  H   UNL     1      10.015   2.671  20.913  0.00  0.00    +0.188 HD
ATOM      8  N   UNL     1       9.623   0.792  21.576  0.00  0.00    -0.171 NA
ATOM      9  C   UNL     1       9.755   0.263  22.801  0.00  0.00    +0.130 A 
ATOM     10  C   UNL     1      10.248   1.209  23.727  0.00  0.00    +0.052 A 
ATOM     11  C   UNL     1      10.414   2.364  22.998  0.00  0.00    +0.105 A 
ENDBRANCH   1   9
BRANCH   4  12
ATOM     12  C   UNL     1       7.331  -4.163  23.226  0.00  0.00    +0.004 A 
ATOM     13  C   UNL     1       7.204  -4.978  22.091  0.00  0.00    +0.010 A 
ATOM     14  C   UNL     1       6.273  -6.021  22.059  0.00  0.00    +0.001 A 
ATOM     15  C   UNL     1       5.452  -6.262  23.158  0.00  0.00    +0.000 A 
ATOM     16  C   UNL     1       5.557  -5.456  24.289  0.00  0.00    +0.001 A 
ATOM     17  C   UNL     1       6.487  -4.413  24.321  0.00  0.00    +0.010 A 
ENDBRANCH   4  12
TORSDOF 2
ENDMDL
MODEL 5
REMARK VINA RESULT:      -6.4      1.263      1.874
REMARK  Name = 
REMARK  2 active torsions:
REMARK  status: ('A' for Active; 'I' for Inactive)
REMARK    1  A    between atoms: C_4  and  C_6
REMARK    2  A    between atoms: C_8  and  C_11
REMARK                            x       y       z     vdW  Elec       q    Type
REMARK                         _______ _______ _______ _____ _____    ______ ____
ROOT
ATOM      1  C   UNL     1       8.085  -4.461  25.201  0.00  0.00    +0.188 A 
ATOM      2  O   UNL     1       9.356  -4.831  24.887  0.00  0.00    -0.352 OA
ATOM      3  N   UNL     1       9.995  -3.797  24.227  0.00  0.00    -0.078 NA
ATOM      4  C   UNL     1       9.104  -2.793  24.137  0.00  0.00    +0.114 A 
ATOM      5  C   UNL     1       7.887  -3.175  24.759  0.00  0.00    +0.082 A 
ENDROOT
BRANCH   1   9
ATOM      6  N   UNL     1       6.175  -6.520  27.372  0.00  0.00    -0.284 N 
ATOM      7  H   UNL     1       6.115  -7.022  28.252  0.00  0.00    +0.188 HD
ATOM      8  N   UNL     1       7.309  -5.853  27.098  0.00  0.00    -0.171 NA
ATOM      9  C   UNL     1       7.080  -5.307  25.895  0.00  0.00    +0.130 A 
ATOM     10  C   UNL     1       5.793  -5.632  25.410  0.00  0.00    +0.052 A 
ATOM     11  C   UNL     1       5.235  -6.418  26.391  0.00  0.00    +0.105 A 
ENDBRANCH   1   9
BRANCH   4  12
ATOM     12  C   UNL     1       9.413  -1.527  23.464  0.00  0.00    +0.004 A 
ATOM     13  C   UNL     1      10.074  -0.490  24.140  0.00  0.00    +0.010 A 
ATOM     14  C   UNL     1      10.400   0.701  23.484  0.00  0.00    +0.001 A 
ATOM     15  C   UNL     1      10.065   0.876  22.143  0.00  0.00    +0.000 A 
ATOM     16  C   UNL     1       9.400  -0.138  21.458  0.00  0.00    +0.001 A 
ATOM     17  C   UNL     1       9.075  -1.328  22.114  0.00  0.00    +0.010 A 
ENDBRANCH   4  12
TORSDOF 2
ENDMDL
MODEL 6
REMARK VINA RESULT:      -6.3      2.111      6.604
REMARK  Name = 
REMARK  2 active torsions:
REMARK  status: ('A' for Active; 'I' for Inactive)
REMARK    1  A    between atoms: C_4  and  C_6
REMARK    2  A    between atoms: C_8  and  C_11
REMARK                            x       y       z     vdW  Elec       q    Type
REMARK                         _______ _______ _______ _____ _____    ______ ____
ROOT
ATOM      1  C   UNL     1       9.779  -0.963  23.457  0.00  0.00    +0.188 A 
ATOM      2  O   UNL     1      10.630  -2.000  23.232  0.00  0.00    -0.352 OA
ATOM      3  N   UNL     1      10.110  -3.159  23.777  0.00  0.00    -0.078 NA
ATOM      4  C   UNL     1       8.935  -2.823  24.339  0.00  0.00    +0.114 A 
ATOM      5  C   UNL     1       8.687  -1.440  24.141  0.00  0.00    +0.082 A 
ENDROOT
BRANCH   1   9
ATOM      6  N   UNL     1      10.122   2.168  21.819  0.00  0.00    -0.284 N 
ATOM      7  H   UNL     1      10.070   2.699  20.956  0.00  0.00    +0.188 HD
ATOM      8  N   UNL     1       9.847   0.854  21.773  0.00  0.00    -0.171 NA
ATOM      9  C   UNL     1       9.998   0.447  23.042  0.00  0.00    +0.130 A 
ATOM     10  C   UNL     1      10.369   1.513  23.891  0.00  0.00    +0.052 A 
ATOM     11  C   UNL     1      10.440   2.612  23.068  0.00  0.00    +0.105 A 
ENDBRANCH   1   9
BRANCH   4  12
ATOM     12  C   UNL     1       8.099  -3.796  25.052  0.00  0.00    +0.004 A 
ATOM     13  C   UNL     1       8.437  -4.231  26.342  0.00  0.00    +0.010 A 
ATOM     14  C   UNL     1       7.618  -5.131  27.032  0.00  0.00    +0.001 A 
ATOM     15  C   UNL     1       6.451  -5.611  26.441  0.00  0.00    +0.000 A 
ATOM     16  C   UNL     1       6.105  -5.198  25.157  0.00  0.00    +0.001 A 
ATOM     17  C   UNL     1       6.924  -4.299  24.467  0.00  0.00    +0.010 A 
ENDBRANCH   4  12
TORSDOF 2
ENDMDL
MODEL 7
REMARK VINA RESULT:      -5.7      3.606      6.863
REMARK  Name = 
REMARK  2 active torsions:
REMARK  status: ('A' for Active; 'I' for Inactive)
REMARK    1  A    between atoms: C_4  and  C_6
REMARK    2  A    between atoms: C_8  and  C_11
REMARK                            x       y       z     vdW  Elec       q    Type
REMARK                         _______ _______ _______ _____ _____    ______ ____
ROOT
ATOM      1  C   UNL     1       8.576   0.940  22.308  0.00  0.00    +0.188 A 
ATOM      2  O   UNL     1       9.380   0.380  21.364  0.00  0.00    -0.352 OA
ATOM      3  N   UNL     1       9.487  -0.980  21.587  0.00  0.00    -0.078 NA
ATOM      4  C   UNL     1       8.745  -1.248  22.678  0.00  0.00    +0.114 A 
ATOM      5  C   UNL     1       8.142  -0.054  23.151  0.00  0.00    +0.082 A 
ENDROOT
BRANCH   1   9
ATOM      6  N   UNL     1       8.400   4.439  22.883  0.00  0.00    -0.284 N 
ATOM      7  H   UNL     1       8.837   5.273  23.260  0.00  0.00    +0.188 HD
ATOM      8  N   UNL     1       9.054   3.271  22.998  0.00  0.00    -0.171 NA
ATOM      9  C   UNL     1       8.237   2.383  22.416  0.00  0.00    +0.130 A 
ATOM     10  C   UNL     1       7.060   2.996  21.931  0.00  0.00    +0.052 A 
ATOM     11  C   UNL     1       7.198   4.326  22.249  0.00  0.00    +0.105 A 
ENDBRANCH   1   9
BRANCH   4  12
ATOM     12  C   UNL     1       8.641  -2.597  23.245  0.00  0.00    +0.004 A 
ATOM     13  C   UNL     1       9.473  -3.004  24.298  0.00  0.00    +0.010 A 
ATOM     14  C   UNL     1       9.346  -4.279  24.861  0.00  0.00    +0.001 A 
ATOM     15  C   UNL     1       8.388  -5.165  24.375  0.00  0.00    +0.000 A 
ATOM     16  C   UNL     1       7.560  -4.782  23.324  0.00  0.00    +0.001 A 
ATOM     17  C   UNL     1       7.687  -3.509  22.762  0.00  0.00    +0.010 A 
ENDBRANCH   4  12
TORSDOF 2
ENDMDL
MODEL 8
REMARK VINA RESULT:      -5.6      2.783      4.132
REMARK  Name = 
REMARK  2 active torsions:
REMARK  status: ('A' for Active; 'I' for Inactive)
REMARK    1  A    between atoms: C_4  and  C_6
REMARK    2  A    between atoms: C_8  and  C_11
REMARK                            x       y       z     vdW  Elec       q    Type
REMARK                         _______ _______ _______ _____ _____    ______ ____
ROOT
ATOM      1  C   UNL     1       9.210  -0.133  23.877  0.00  0.00    +0.188 A 
ATOM      2  O   UNL     1       8.525   0.321  22.793  0.00  0.00    -0.352 OA
ATOM      3  N   UNL     1       8.813   1.657  22.583  0.00  0.00    -0.078 NA
ATOM      4  C   UNL     1       9.677   2.018  23.549  0.00  0.00    +0.114 A 
ATOM      5  C   UNL     1       9.961   0.902  24.378  0.00  0.00    +0.082 A 
ENDROOT
BRANCH   1   9
ATOM      6  N   UNL     1       8.663  -3.124  25.709  0.00  0.00    -0.284 N 
ATOM      7  H   UNL     1       8.244  -3.577  26.515  0.00  0.00    +0.188 HD
ATOM      8  N   UNL     1       8.491  -1.799  25.564  0.00  0.00    -0.171 NA
ATOM      9  C   UNL     1       9.147  -1.510  24.430  0.00  0.00    +0.130 A 
ATOM     10  C   UNL     1       9.735  -2.661  23.859  0.00  0.00    +0.052 A 
ATOM     11  C   UNL     1       9.402  -3.688  24.712  0.00  0.00    +0.105 A 
ENDBRANCH   1   9
BRANCH   4  12
ATOM     12  C   UNL     1      10.189   3.387  23.674  0.00  0.00    +0.004 A 
ATOM     13  C   UNL     1      11.514   3.697  23.334  0.00  0.00    +0.010 A 
ATOM     14  C   UNL     1      11.988   5.010  23.420  0.00  0.00    +0.001 A 
ATOM     15  C   UNL     1      11.145   6.032  23.851  0.00  0.00    +0.000 A 
ATOM     16  C   UNL     1       9.829   5.742  24.202  0.00  0.00    +0.001 A 
ATOM     17  C   UNL     1       9.356   4.429  24.116  0.00  0.00    +0.010 A 
ENDBRANCH   4  12
TORSDOF 2
ENDMDL
MODEL 9
REMARK VINA RESULT:      -5.4      1.697      2.164
REMARK  Name = 
REMARK  2 active torsions:
REMARK  status: ('A' for Active; 'I' for Inactive)
REMARK    1  A    between atoms: C_4  and  C_6
REMARK    2  A    between atoms: C_8  and  C_11
REMARK                            x       y       z     vdW  Elec       q    Type
REMARK                         _______ _______ _______ _____ _____    ______ ____
ROOT
ATOM      1  C   UNL     1       8.946  -2.099  25.250  0.00  0.00    +0.188 A 
ATOM      2  O   UNL     1       9.790  -2.182  24.186  0.00  0.00    -0.352 OA
ATOM      3  N   UNL     1      10.125  -0.912  23.754  0.00  0.00    -0.078 NA
ATOM      4  C   UNL     1       9.478  -0.051  24.561  0.00  0.00    +0.114 A 
ATOM      5  C   UNL     1       8.733  -0.771  25.530  0.00  0.00    +0.082 A 
ENDROOT
BRANCH   1   9
ATOM      6  N   UNL     1       7.042  -4.366  27.208  0.00  0.00    -0.284 N 
ATOM      7  H   UNL     1       6.251  -4.519  27.825  0.00  0.00    +0.188 HD
ATOM      8  N   UNL     1       7.260  -3.123  26.749  0.00  0.00    -0.171 NA
ATOM      9  C   UNL     1       8.349  -3.249  25.977  0.00  0.00    +0.130 A 
ATOM     10  C   UNL     1       8.819  -4.581  25.950  0.00  0.00    +0.052 A 
ATOM     11  C   UNL     1       7.949  -5.278  26.757  0.00  0.00    +0.105 A 
ENDBRANCH   1   9
BRANCH   4  12
ATOM     12  C   UNL     1       9.564   1.403  24.388  0.00  0.00    +0.004 A 
ATOM     13  C   UNL     1      10.615   1.984  23.662  0.00  0.00    +0.010 A 
ATOM     14  C   UNL     1      10.674   3.368  23.469  0.00  0.00    +0.001 A 
ATOM     15  C   UNL     1       9.685   4.192  24.003  0.00  0.00    +0.000 A 
ATOM     16  C   UNL     1       8.641   3.634  24.735  0.00  0.00    +0.001 A 
ATOM     17  C   UNL     1       8.582   2.251  24.928  0.00  0.00    +0.010 A 
ENDBRANCH   4  12
TORSDOF 2
ENDMDL
