MODEL 1
REMARK VINA RESULT:      -5.1      0.000      0.000
REMARK  Name = 
REMARK  6 active torsions:
REMARK  status: ('A' for Active; 'I' for Inactive)
REMARK    1  A    between atoms: N_1  and  CA_2
REMARK    2  A    between atoms: CA_2  and  C_4
REMARK    3  A    between atoms: CA_2  and  C_7
REMARK    4  A    between atoms: C_4  and  O_5
REMARK    5  A    between atoms: C_9  and  O_10
REMARK    6  A    between atoms: C_12  and  O_13
REMARK                            x       y       z     vdW  Elec       q    Type
REMARK                         _______ _______ _______ _____ _____    ______ ____
ROOT
ATOM      1  C   UNL     1       9.028  -3.748  24.418  0.00  0.00    -0.013 A 
ATOM      2  C   UNL     1       7.883  -4.021  23.653  0.00  0.00    +0.051 A 
ATOM      3  C   UNL     1       7.582  -3.245  22.536  0.00  0.00    +0.121 A 
ATOM      4  C   UNL     1       8.388  -2.173  22.173  0.00  0.00    +0.090 A 
ATOM      5  C   UNL     1       9.514  -1.890  22.937  0.00  0.00    +0.121 A 
ATOM      6  C   UNL     1       9.848  -2.668  24.044  0.00  0.00    +0.051 A 
ENDROOT
BRANCH   3   7
ATOM      7  O   UNL     1       6.474  -3.578  21.816  0.00  0.00    -0.507 OA
ATOM      8  H   UNL     1       5.846  -4.027  22.407  0.00  0.00    +0.292 HD
ENDBRANCH   3   7
BRANCH   5   9
ATOM      9  O   UNL     1      10.276  -0.823  22.561  0.00  0.00    -0.507 OA
ATOM     10  H   UNL     1      11.044  -1.138  22.059  0.00  0.00    +0.292 HD
ENDBRANCH   5   9
BRANCH   1  11
ATOM     11  CA  UNL     1       9.390  -4.600  25.622  0.00  0.00    +0.192 C 
BRANCH  11  12
ATOM     12  N   UNL     1       9.841  -5.939  25.186  0.00  0.00    -0.315 NA
ATOM     13  H1  UNL     1      10.492  -6.284  25.898  0.00  0.00    +0.119 HD
ATOM     14  H2  UNL     1       9.051  -6.582  25.257  0.00  0.00    +0.119 HD
ENDBRANCH  11  12
BRANCH  11  15
ATOM     15  C   UNL     1       8.264  -4.730  26.676  0.00  0.00    +0.326 C 
ATOM     16  OXT UNL     1       7.630  -3.770  27.103  0.00  0.00    -0.249 OA
BRANCH  15  17
ATOM     17  O   UNL     1       7.961  -5.996  27.049  0.00  0.00    -0.479 OA
ATOM     18  H   UNL     1       7.039  -6.264  26.861  0.00  0.00    +0.295 HD
ENDBRANCH  15  17
ENDBRANCH  11  15
ENDBRANCH   1  11
TORSDOF 6
ENDMDL
MODEL 2
REMARK VINA RESULT:      -5.1      0.035      2.293
REMARK  Name = 
REMARK  6 active torsions:
REMARK  status: ('A' for Active; 'I' for Inactive)
REMARK    1  A    between atoms: N_1  and  CA_2
REMARK    2  A    between atoms: CA_2  and  C_4
REMARK    3  A    between atoms: CA_2  and  C_7
REMARK    4  A    between atoms: C_4  and  O_5
REMARK    5  A    between atoms: C_9  and  O_10
REMARK    6  A    between atoms: C_12  and  O_13
REMARK                            x       y       z     vdW  Elec       q    Type
REMARK                         _______ _______ _______ _____ _____    ______ ____
ROOT
ATOM      1  C   UNL     1       9.044  -3.758  24.414  0.00  0.00    -0.013 A 
ATOM      2  C   UNL     1       9.847  -2.670  24.035  0.00  0.00    +0.051 A 
ATOM      3  C   UNL     1       9.494  -1.883  22.943  0.00  0.00    +0.121 A 
ATOM      4  C   UNL     1       8.362  -2.171  22.190  0.00  0.00    +0.090 A 
ATOM      5  C   UNL     1       7.573  -3.256  22.553  0.00  0.00    +0.121 A 
ATOM      6  C   UNL     1       7.894  -4.044  23.657  0.00  0.00    +0.051 A 
ENDROOT
BRANCH   3   7
ATOM      7  O   UNL     1      10.296  -0.823  22.642  0.00  0.00    -0.507 OA
ATOM      8  H   UNL     1      10.554  -0.387  23.472  0.00  0.00    +0.292 HD
ENDBRANCH   3   7
BRANCH   5   9
ATOM      9  O   UNL     1       6.477  -3.521  21.784  0.00  0.00    -0.507 OA
ATOM     10  H   UNL     1       6.647  -4.308  21.243  0.00  0.00    +0.292 HD
ENDBRANCH   5   9
BRANCH   1  11
ATOM     11  CA  UNL     1       9.395  -4.611  25.621  0.00  0.00    +0.192 C 
BRANCH  11  12
ATOM     12  N   UNL     1       9.831  -5.957  25.190  0.00  0.00    -0.315 NA
ATOM     13  H1  UNL     1       9.354  -6.635  25.791  0.00  0.00    +0.119 HD
ATOM     14  H2  UNL     1       9.437  -6.141  24.267  0.00  0.00    +0.119 HD
ENDBRANCH  11  12
BRANCH  11  15
ATOM     15  C   UNL     1       8.266  -4.724  26.674  0.00  0.00    +0.326 C 
ATOM     16  OXT UNL     1       7.638  -3.757  27.092  0.00  0.00    -0.249 OA
BRANCH  15  17
ATOM     17  O   UNL     1       7.954  -5.986  27.057  0.00  0.00    -0.479 OA
ATOM     18  H   UNL     1       8.626  -6.415  27.623  0.00  0.00    +0.295 HD
ENDBRANCH  15  17
ENDBRANCH  11  15
ENDBRANCH   1  11
TORSDOF 6
ENDMDL
MODEL 3
REMARK VINA RESULT:      -5.1      2.264      4.665
REMARK  Name = 
REMARK  6 active torsions:
REMARK  status: ('A' for Active; 'I' for Inactive)
REMARK    1  A    between atoms: N_1  and  CA_2
REMARK    2  A    between atoms: CA_2  and  C_4
REMARK    3  A    between atoms: CA_2  and  C_7
REMARK    4  A    between atoms: C_4  and  O_5
REMARK    5  A    between atoms: C_9  and  O_10
REMARK    6  A    between atoms: C_12  and  O_13
REMARK                            x       y       z     vdW  Elec       q    Type
REMARK                         _______ _______ _______ _____ _____    ______ ____
ROOT
ATOM      1  C   UNL     1       6.788  -5.069  24.183  0.00  0.00    -0.013 A 
ATOM      2  C   UNL     1       6.748  -5.564  25.497  0.00  0.00    +0.051 A 
ATOM      3  C   UNL     1       7.818  -5.351  26.362  0.00  0.00    +0.121 A 
ATOM      4  C   UNL     1       8.954  -4.672  25.940  0.00  0.00    +0.090 A 
ATOM      5  C   UNL     1       9.005  -4.193  24.636  0.00  0.00    +0.121 A 
ATOM      6  C   UNL     1       7.935  -4.374  23.760  0.00  0.00    +0.051 A 
ENDROOT
BRANCH   3   7
ATOM      7  O   UNL     1       7.708  -5.830  27.633  0.00  0.00    -0.507 OA
ATOM      8  H   UNL     1       7.736  -5.078  28.249  0.00  0.00    +0.292 HD
ENDBRANCH   3   7
BRANCH   5   9
ATOM      9  O   UNL     1      10.140  -3.544  24.248  0.00  0.00    -0.507 OA
ATOM     10  H   UNL     1      10.852  -4.191  24.120  0.00  0.00    +0.292 HD
ENDBRANCH   5   9
BRANCH   1  11
ATOM     11  CA  UNL     1       5.620  -5.264  23.234  0.00  0.00    +0.192 C 
BRANCH  11  12
ATOM     12  N   UNL     1       5.059  -6.624  23.383  0.00  0.00    -0.315 NA
ATOM     13  H1  UNL     1       4.727  -6.709  24.348  0.00  0.00    +0.119 HD
ATOM     14  H2  UNL     1       4.201  -6.679  22.832  0.00  0.00    +0.119 HD
ENDBRANCH  11  12
BRANCH  11  15
ATOM     15  C   UNL     1       5.948  -4.979  21.748  0.00  0.00    +0.326 C 
ATOM     16  OXT UNL     1       6.449  -5.811  21.000  0.00  0.00    -0.249 OA
BRANCH  15  17
ATOM     17  O   UNL     1       5.571  -3.759  21.294  0.00  0.00    -0.479 OA
ATOM     18  H   UNL     1       4.673  -3.731  20.907  0.00  0.00    +0.295 HD
ENDBRANCH  15  17
ENDBRANCH  11  15
ENDBRANCH   1  11
TORSDOF 6
ENDMDL
MODEL 4
REMARK VINA RESULT:      -5.1      2.248      4.889
REMARK  Name = 
REMARK  6 active torsions:
REMARK  status: ('A' for Active; 'I' for Inactive)
REMARK    1  A    between atoms: N_1  and  CA_2
REMARK    2  A    between atoms: CA_2  and  C_4
REMARK    3  A    between atoms: CA_2  and  C_7
REMARK    4  A    between atoms: C_4  and  O_5
REMARK    5  A    between atoms: C_9  and  O_10
REMARK    6  A    between atoms: C_12  and  O_13
REMARK                            x       y       z     vdW  Elec       q    Type
REMARK                         _______ _______ _______ _____ _____    ______ ____
ROOT
ATOM      1  C   UNL     1       6.805  -5.015  24.155  0.00  0.00    -0.013 A 
ATOM      2  C   UNL     1       7.963  -4.316  23.774  0.00  0.00    +0.051 A 
ATOM      3  C   UNL     1       9.020  -4.166  24.668  0.00  0.00    +0.121 A 
ATOM      4  C   UNL     1       8.943  -4.677  25.957  0.00  0.00    +0.090 A 
ATOM      5  C   UNL     1       7.794  -5.356  26.343  0.00  0.00    +0.121 A 
ATOM      6  C   UNL     1       6.733  -5.540  25.458  0.00  0.00    +0.051 A 
ENDROOT
BRANCH   3   7
ATOM      7  O   UNL     1      10.128  -3.504  24.230  0.00  0.00    -0.507 OA
ATOM      8  H   UNL     1      10.898  -3.829  24.726  0.00  0.00    +0.292 HD
ENDBRANCH   3   7
BRANCH   5   9
ATOM      9  O   UNL     1       7.746  -5.833  27.621  0.00  0.00    -0.507 OA
ATOM     10  H   UNL     1       8.044  -5.142  28.233  0.00  0.00    +0.292 HD
ENDBRANCH   5   9
BRANCH   1  11
ATOM     11  CA  UNL     1       5.654  -5.216  23.186  0.00  0.00    +0.192 C 
BRANCH  11  12
ATOM     12  N   UNL     1       5.100  -6.580  23.322  0.00  0.00    -0.315 NA
ATOM     13  H1  UNL     1       4.116  -6.480  23.587  0.00  0.00    +0.119 HD
ATOM     14  H2  UNL     1       5.053  -7.001  22.393  0.00  0.00    +0.119 HD
ENDBRANCH  11  12
BRANCH  11  15
ATOM     15  C   UNL     1       6.004  -4.924  21.707  0.00  0.00    +0.326 C 
ATOM     16  OXT UNL     1       5.717  -3.872  21.144  0.00  0.00    -0.249 OA
BRANCH  15  17
ATOM     17  O   UNL     1       6.728  -5.883  21.081  0.00  0.00    -0.479 OA
ATOM     18  H   UNL     1       6.341  -6.780  21.131  0.00  0.00    +0.295 HD
ENDBRANCH  15  17
ENDBRANCH  11  15
ENDBRANCH   1  11
TORSDOF 6
ENDMDL
MODEL 5
REMARK VINA RESULT:      -5.0      1.792      2.624
REMARK  Name = 
REMARK  6 active torsions:
REMARK  status: ('A' for Active; 'I' for Inactive)
REMARK    1  A    between atoms: N_1  and  CA_2
REMARK    2  A    between atoms: CA_2  and  C_4
REMARK    3  A    between atoms: CA_2  and  C_7
REMARK    4  A    between atoms: C_4  and  O_5
REMARK    5  A    between atoms: C_9  and  O_10
REMARK    6  A    between atoms: C_12  and  O_13
REMARK                            x       y       z     vdW  Elec       q    Type
REMARK                         _______ _______ _______ _____ _____    ______ ____
ROOT
ATOM      1  C   UNL     1       7.992  -4.221  24.046  0.00  0.00    -0.013 A 
ATOM      2  C   UNL     1       7.496  -2.918  23.870  0.00  0.00    +0.051 A 
ATOM      3  C   UNL     1       6.628  -2.633  22.819  0.00  0.00    +0.121 A 
ATOM      4  C   UNL     1       6.257  -3.616  21.911  0.00  0.00    +0.090 A 
ATOM      5  C   UNL     1       6.757  -4.903  22.073  0.00  0.00    +0.121 A 
ATOM      6  C   UNL     1       7.608  -5.217  23.131  0.00  0.00    +0.051 A 
ENDROOT
BRANCH   3   7
ATOM      7  O   UNL     1       6.157  -1.358  22.718  0.00  0.00    -0.507 OA
ATOM      8  H   UNL     1       6.807  -0.756  23.119  0.00  0.00    +0.292 HD
ENDBRANCH   3   7
BRANCH   5   9
ATOM      9  O   UNL     1       6.385  -5.842  21.156  0.00  0.00    -0.507 OA
ATOM     10  H   UNL     1       7.178  -6.270  20.795  0.00  0.00    +0.292 HD
ENDBRANCH   5   9
BRANCH   1  11
ATOM     11  CA  UNL     1       8.915  -4.560  25.203  0.00  0.00    +0.192 C 
BRANCH  11  12
ATOM     12  N   UNL     1       9.773  -5.712  24.854  0.00  0.00    -0.315 NA
ATOM     13  H1  UNL     1       9.775  -6.342  25.662  0.00  0.00    +0.119 HD
ATOM     14  H2  UNL     1       9.302  -6.257  24.131  0.00  0.00    +0.119 HD
ENDBRANCH  11  12
BRANCH  11  15
ATOM     15  C   UNL     1       8.190  -4.818  26.546  0.00  0.00    +0.326 C 
ATOM     16  OXT UNL     1       7.610  -3.939  27.175  0.00  0.00    -0.249 OA
BRANCH  15  17
ATOM     17  O   UNL     1       8.167  -6.109  26.954  0.00  0.00    -0.479 OA
ATOM     18  H   UNL     1       8.535  -6.745  26.309  0.00  0.00    +0.295 HD
ENDBRANCH  15  17
ENDBRANCH  11  15
ENDBRANCH   1  11
TORSDOF 6
ENDMDL
MODEL 6
REMARK VINA RESULT:      -5.0      1.795      1.989
REMARK  Name = 
REMARK  6 active torsions:
REMARK  status: ('A' for Active; 'I' for Inactive)
REMARK    1  A    between atoms: N_1  and  CA_2
REMARK    2  A    between atoms: CA_2  and  C_4
REMARK    3  A    between atoms: CA_2  and  C_7
REMARK    4  A    between atoms: C_4  and  O_5
REMARK    5  A    between atoms: C_9  and  O_10
REMARK    6  A    between atoms: C_12  and  O_13
REMARK                            x       y       z     vdW  Elec       q    Type
REMARK                         _______ _______ _______ _____ _____    ______ ____
ROOT
ATOM      1  C   UNL     1       7.979  -4.236  24.047  0.00  0.00    -0.013 A 
ATOM      2  C   UNL     1       7.590  -5.214  23.116  0.00  0.00    +0.051 A 
ATOM      3  C   UNL     1       6.761  -4.879  22.049  0.00  0.00    +0.121 A 
ATOM      4  C   UNL     1       6.279  -3.584  21.897  0.00  0.00    +0.090 A 
ATOM      5  C   UNL     1       6.649  -2.617  22.825  0.00  0.00    +0.121 A 
ATOM      6  C   UNL     1       7.498  -2.924  23.887  0.00  0.00    +0.051 A 
ENDROOT
BRANCH   3   7
ATOM      7  O   UNL     1       6.443  -5.864  21.163  0.00  0.00    -0.507 OA
ATOM      8  H   UNL     1       5.643  -6.317  21.479  0.00  0.00    +0.292 HD
ENDBRANCH   3   7
BRANCH   5   9
ATOM      9  O   UNL     1       6.147  -1.360  22.654  0.00  0.00    -0.507 OA
ATOM     10  H   UNL     1       5.903  -1.235  21.723  0.00  0.00    +0.292 HD
ENDBRANCH   5   9
BRANCH   1  11
ATOM     11  CA  UNL     1       8.907  -4.574  25.200  0.00  0.00    +0.192 C 
BRANCH  11  12
ATOM     12  N   UNL     1       9.768  -5.722  24.847  0.00  0.00    -0.315 NA
ATOM     13  H1  UNL     1       9.154  -6.463  24.496  0.00  0.00    +0.119 HD
ATOM     14  H2  UNL     1      10.323  -5.467  24.029  0.00  0.00    +0.119 HD
ENDBRANCH  11  12
BRANCH  11  15
ATOM     15  C   UNL     1       8.186  -4.837  26.545  0.00  0.00    +0.326 C 
ATOM     16  OXT UNL     1       7.615  -3.959  27.184  0.00  0.00    -0.249 OA
BRANCH  15  17
ATOM     17  O   UNL     1       8.156  -6.131  26.944  0.00  0.00    -0.479 OA
ATOM     18  H   UNL     1       8.754  -6.723  26.445  0.00  0.00    +0.295 HD
ENDBRANCH  15  17
ENDBRANCH  11  15
ENDBRANCH   1  11
TORSDOF 6
ENDMDL
MODEL 7
REMARK VINA RESULT:      -4.9      2.016      2.643
REMARK  Name = 
REMARK  6 active torsions:
REMARK  status: ('A' for Active; 'I' for Inactive)
REMARK    1  A    between atoms: N_1  and  CA_2
REMARK    2  A    between atoms: CA_2  and  C_4
REMARK    3  A    between atoms: CA_2  and  C_7
REMARK    4  A    between atoms: C_4  and  O_5
REMARK    5  A    between atoms: C_9  and  O_10
REMARK    6  A    between atoms: C_12  and  O_13
REMARK                            x       y       z     vdW  Elec       q    Type
REMARK                         _______ _______ _______ _____ _____    ______ ____
ROOT
ATOM      1  C   UNL     1       8.977  -2.546  23.996  0.00  0.00    -0.013 A 
ATOM      2  C   UNL     1       9.001  -2.214  22.631  0.00  0.00    +0.051 A 
ATOM      3  C   UNL     1       9.545  -1.003  22.211  0.00  0.00    +0.121 A 
ATOM      4  C   UNL     1      10.048  -0.089  23.129  0.00  0.00    +0.090 A 
ATOM      5  C   UNL     1      10.013  -0.407  24.481  0.00  0.00    +0.121 A 
ATOM      6  C   UNL     1       9.495  -1.624  24.923  0.00  0.00    +0.051 A 
ENDROOT
BRANCH   3   7
ATOM      7  O   UNL     1       9.566  -0.751  20.872  0.00  0.00    -0.507 OA
ATOM      8  H   UNL     1      10.071  -1.456  20.434  0.00  0.00    +0.292 HD
ENDBRANCH   3   7
BRANCH   5   9
ATOM      9  O   UNL     1      10.502   0.518  25.357  0.00  0.00    -0.507 OA
ATOM     10  H   UNL     1      10.609   1.367  24.899  0.00  0.00    +0.292 HD
ENDBRANCH   5   9
BRANCH   1  11
ATOM     11  CA  UNL     1       8.416  -3.874  24.472  0.00  0.00    +0.192 C 
BRANCH  11  12
ATOM     12  N   UNL     1       7.050  -3.692  25.008  0.00  0.00    -0.315 NA
ATOM     13  H1  UNL     1       7.117  -3.746  26.029  0.00  0.00    +0.119 HD
ATOM     14  H2  UNL     1       6.765  -2.726  24.840  0.00  0.00    +0.119 HD
ENDBRANCH  11  12
BRANCH  11  15
ATOM     15  C   UNL     1       9.304  -4.610  25.504  0.00  0.00    +0.326 C 
ATOM     16  OXT UNL     1       9.031  -4.677  26.699  0.00  0.00    -0.249 OA
BRANCH  15  17
ATOM     17  O   UNL     1      10.379  -5.255  24.991  0.00  0.00    -0.479 OA
ATOM     18  H   UNL     1      10.310  -6.231  25.002  0.00  0.00    +0.295 HD
ENDBRANCH  15  17
ENDBRANCH  11  15
ENDBRANCH   1  11
TORSDOF 6
ENDMDL
MODEL 8
REMARK VINA RESULT:      -4.9      2.015      3.061
REMARK  Name = 
REMARK  6 active torsions:
REMARK  status: ('A' for Active; 'I' for Inactive)
REMARK    1  A    between atoms: N_1  and  CA_2
REMARK    2  A    between atoms: CA_2  and  C_4
REMARK    3  A    between atoms: CA_2  and  C_7
REMARK    4  A    between atoms: C_4  and  O_5
REMARK    5  A    between atoms: C_9  and  O_10
REMARK    6  A    between atoms: C_12  and  O_13
REMARK                            x       y       z     vdW  Elec       q    Type
REMARK                         _______ _______ _______ _____ _____    ______ ____
ROOT
ATOM      1  C   UNL     1       8.991  -2.547  23.989  0.00  0.00    -0.013 A 
ATOM      2  C   UNL     1       9.516  -1.612  24.895  0.00  0.00    +0.051 A 
ATOM      3  C   UNL     1      10.009  -0.392  24.441  0.00  0.00    +0.121 A 
ATOM      4  C   UNL     1      10.017  -0.085  23.086  0.00  0.00    +0.090 A 
ATOM      5  C   UNL     1       9.512  -1.014  22.184  0.00  0.00    +0.121 A 
ATOM      6  C   UNL     1       8.992  -2.232  22.618  0.00  0.00    +0.051 A 
ENDROOT
BRANCH   3   7
ATOM      7  O   UNL     1      10.478   0.486  25.371  0.00  0.00    -0.507 OA
ATOM      8  H   UNL     1      11.427   0.318  25.503  0.00  0.00    +0.292 HD
ENDBRANCH   3   7
BRANCH   5   9
ATOM      9  O   UNL     1       9.548  -0.687  20.859  0.00  0.00    -0.507 OA
ATOM     10  H   UNL     1       9.613   0.277  20.769  0.00  0.00    +0.292 HD
ENDBRANCH   5   9
BRANCH   1  11
ATOM     11  CA  UNL     1       8.421  -3.871  24.467  0.00  0.00    +0.192 C 
BRANCH  11  12
ATOM     12  N   UNL     1       7.055  -3.681  24.999  0.00  0.00    -0.315 NA
ATOM     13  H1  UNL     1       6.598  -2.978  24.410  0.00  0.00    +0.119 HD
ATOM     14  H2  UNL     1       6.518  -4.529  24.815  0.00  0.00    +0.119 HD
ENDBRANCH  11  12
BRANCH  11  15
ATOM     15  C   UNL     1       9.303  -4.610  25.504  0.00  0.00    +0.326 C 
ATOM     16  OXT UNL     1       9.022  -4.677  26.696  0.00  0.00    -0.249 OA
BRANCH  15  17
ATOM     17  O   UNL     1      10.380  -5.254  24.996  0.00  0.00    -0.479 OA
ATOM     18  H   UNL     1      10.486  -5.167  24.028  0.00  0.00    +0.295 HD
ENDBRANCH  15  17
ENDBRANCH  11  15
ENDBRANCH   1  11
TORSDOF 6
ENDMDL
MODEL 9
REMARK VINA RESULT:      -4.9      1.759      2.349
REMARK  Name = 
REMARK  6 active torsions:
REMARK  status: ('A' for Active; 'I' for Inactive)
REMARK    1  A    between atoms: N_1  and  CA_2
REMARK    2  A    between atoms: CA_2  and  C_4
REMARK    3  A    between atoms: CA_2  and  C_7
REMARK    4  A    between atoms: C_4  and  O_5
REMARK    5  A    between atoms: C_9  and  O_10
REMARK    6  A    between atoms: C_12  and  O_13
REMARK                            x       y       z     vdW  Elec       q    Type
REMARK                         _______ _______ _______ _____ _____    ______ ____
ROOT
ATOM      1  C   UNL     1       9.181  -3.295  25.306  0.00  0.00    -0.013 A 
ATOM      2  C   UNL     1       9.771  -3.145  24.040  0.00  0.00    +0.051 A 
ATOM      3  C   UNL     1       9.701  -1.926  23.371  0.00  0.00    +0.121 A 
ATOM      4  C   UNL     1       9.026  -0.845  23.925  0.00  0.00    +0.090 A 
ATOM      5  C   UNL     1       8.428  -0.993  25.171  0.00  0.00    +0.121 A 
ATOM      6  C   UNL     1       8.506  -2.197  25.869  0.00  0.00    +0.051 A 
ENDROOT
BRANCH   3   7
ATOM      7  O   UNL     1      10.318  -1.834  22.160  0.00  0.00    -0.507 OA
ATOM      8  H   UNL     1      11.247  -2.100  22.266  0.00  0.00    +0.292 HD
ENDBRANCH   3   7
BRANCH   5   9
ATOM      9  O   UNL     1       7.762   0.084  25.680  0.00  0.00    -0.507 OA
ATOM     10  H   UNL     1       7.751   0.795  25.020  0.00  0.00    +0.292 HD
ENDBRANCH   5   9
BRANCH   1  11
ATOM     11  CA  UNL     1       9.272  -4.606  26.065  0.00  0.00    +0.192 C 
BRANCH  11  12
ATOM     12  N   UNL     1      10.186  -5.539  25.371  0.00  0.00    -0.315 NA
ATOM     13  H1  UNL     1       9.847  -6.487  25.558  0.00  0.00    +0.119 HD
ATOM     14  H2  UNL     1      10.049  -5.433  24.365  0.00  0.00    +0.119 HD
ENDBRANCH  11  12
BRANCH  11  15
ATOM     15  C   UNL     1       7.908  -5.289  26.329  0.00  0.00    +0.326 C 
ATOM     16  OXT UNL     1       7.026  -5.376  25.481  0.00  0.00    -0.249 OA
BRANCH  15  17
ATOM     17  O   UNL     1       7.772  -5.862  27.549  0.00  0.00    -0.479 OA
ATOM     18  H   UNL     1       8.444  -6.542  27.754  0.00  0.00    +0.295 HD
ENDBRANCH  15  17
ENDBRANCH  11  15
ENDBRANCH   1  11
TORSDOF 6
ENDMDL
