MODEL 1
REMARK VINA RESULT:      -6.1      0.000      0.000
REMARK  Name = 
REMARK  12 active torsions:
REMARK  status: ('A' for Active; 'I' for Inactive)
REMARK    1  A    between atoms: C_2  and  C_3
REMARK    2  A    between atoms: C_2  and  N_12
REMARK    3  A    between atoms: C_2  and  C_30
REMARK    4  A    between atoms: C_3  and  O_4
REMARK    5  A    between atoms: O_4  and  C_5
REMARK    6  A    between atoms: C_5  and  C_6
REMARK    7  A    between atoms: C_13  and  C_15
REMARK    8  A    between atoms: C_15  and  C_17
REMARK    9  A    between atoms: C_15  and  N_21
REMARK   10  A    between atoms: C_17  and  C_18
REMARK   11  A    between atoms: C_18  and  C_19
REMARK   12  A    between atoms: C_18  and  C_20
REMARK                            x       y       z     vdW  Elec       q    Type
REMARK                         _______ _______ _______ _____ _____    ______ ____
ROOT
ATOM      1  N   UNL     1       7.351  -4.218  25.043  0.00  0.00    -0.296 N 
ATOM      2  H   UNL     1       6.641  -3.510  25.132  0.00  0.00    +0.150 HD
ATOM      3  C   UNL     1       7.592  -4.753  23.801  0.00  0.00    +0.234 C 
ATOM      4  O   UNL     1       8.557  -5.482  23.579  0.00  0.00    -0.274 OA
ENDROOT
BRANCH   1   5
ATOM      5  C   UNL     1       8.244  -4.346  26.192  0.00  0.00    +0.202 C 
BRANCH   5   6
ATOM      6  C   UNL     1       7.665  -5.312  27.156  0.00  0.00    +0.087 C 
ATOM      7  N   UNL     1       7.174  -6.008  27.943  0.00  0.00    -0.195 NA
ENDBRANCH   5   6
BRANCH   5   8
ATOM      8  C   UNL     1       8.366  -2.959  26.839  0.00  0.00    +0.197 C 
BRANCH   8   9
ATOM      9  O   UNL     1       8.505  -1.931  25.861  0.00  0.00    -0.372 OA
BRANCH   9  10
ATOM     10  C   UNL     1       8.460  -0.642  26.470  0.00  0.00    +0.195 C 
BRANCH  10  11
ATOM     11  C   UNL     1       9.107   0.341  25.540  0.00  0.00    -0.022 A 
ATOM     12  C   UNL     1      10.362   0.065  24.979  0.00  0.00    +0.006 A 
ATOM     13  C   UNL     1      10.954   0.968  24.097  0.00  0.00    +0.000 A 
ATOM     14  C   UNL     1      10.298   2.152  23.769  0.00  0.00    +0.000 A 
ATOM     15  C   UNL     1       9.054   2.439  24.328  0.00  0.00    +0.000 A 
ATOM     16  C   UNL     1       8.460   1.539  25.211  0.00  0.00    +0.006 A 
ENDBRANCH  10  11
ENDBRANCH   9  10
ENDBRANCH   8   9
ENDBRANCH   5   8
ENDBRANCH   1   5
BRANCH   3  17
ATOM     17  C   UNL     1       6.559  -4.331  22.721  0.00  0.00    +0.161 C 
BRANCH  17  18
ATOM     18  N   UNL     1       5.282  -4.096  23.394  0.00  0.00    -0.288 N 
ATOM     19  H   UNL     1       5.120  -3.152  23.714  0.00  0.00    +0.151 HD
ATOM     20  C   UNL     1       4.185  -4.881  23.189  0.00  0.00    +0.303 C 
ATOM     21  N   UNL     1       3.051  -4.482  23.868  0.00  0.00    -0.281 N 
ATOM     22  C   UNL     1       3.056  -3.756  25.145  0.00  0.00    +0.137 C 
ATOM     23  C   UNL     1       2.629  -4.696  26.283  0.00  0.00    +0.179 C 
ATOM     24  O   UNL     1       1.349  -5.289  26.011  0.00  0.00    -0.377 OA
ATOM     25  C   UNL     1       1.393  -6.056  24.794  0.00  0.00    +0.179 C 
ATOM     26  C   UNL     1       1.784  -5.170  23.606  0.00  0.00    +0.137 C 
ATOM     27  O   UNL     1       4.215  -5.855  22.441  0.00  0.00    -0.253 OA
ENDBRANCH  17  18
BRANCH  17  28
ATOM     28  C   UNL     1       6.966  -3.077  21.916  0.00  0.00    +0.034 C 
BRANCH  28  29
ATOM     29  C   UNL     1       7.766  -1.983  22.656  0.00  0.00    -0.015 C 
ATOM     30  C   UNL     1       6.883  -0.762  22.927  0.00  0.00    +0.007 C 
ATOM     31  C   UNL     1       9.020  -1.539  21.898  0.00  0.00    +0.007 C 
ENDBRANCH  28  29
ENDBRANCH  17  28
ENDBRANCH   3  17
TORSDOF 10
ENDMDL
MODEL 2
REMARK VINA RESULT:      -6.1      2.560      3.826
REMARK  Name = 
REMARK  12 active torsions:
REMARK  status: ('A' for Active; 'I' for Inactive)
REMARK    1  A    between atoms: C_2  and  C_3
REMARK    2  A    between atoms: C_2  and  N_12
REMARK    3  A    between atoms: C_2  and  C_30
REMARK    4  A    between atoms: C_3  and  O_4
REMARK    5  A    between atoms: O_4  and  C_5
REMARK    6  A    between atoms: C_5  and  C_6
REMARK    7  A    between atoms: C_13  and  C_15
REMARK    8  A    between atoms: C_15  and  C_17
REMARK    9  A    between atoms: C_15  and  N_21
REMARK   10  A    between atoms: C_17  and  C_18
REMARK   11  A    between atoms: C_18  and  C_19
REMARK   12  A    between atoms: C_18  and  C_20
REMARK                            x       y       z     vdW  Elec       q    Type
REMARK                         _______ _______ _______ _____ _____    ______ ____
ROOT
ATOM      1  N   UNL     1       8.868  -3.075  24.028  0.00  0.00    -0.296 N 
ATOM      2  H   UNL     1       8.074  -2.884  23.439  0.00  0.00    +0.150 HD
ATOM      3  C   UNL     1       9.066  -4.361  24.467  0.00  0.00    +0.234 C 
ATOM      4  O   UNL     1      10.101  -4.708  25.032  0.00  0.00    -0.274 OA
ENDROOT
BRANCH   1   5
ATOM      5  C   UNL     1       9.876  -2.018  24.067  0.00  0.00    +0.202 C 
BRANCH   5   6
ATOM      6  C   UNL     1       9.372  -0.894  24.892  0.00  0.00    +0.087 C 
ATOM      7  N   UNL     1       9.023  -0.040  25.595  0.00  0.00    -0.195 NA
ENDBRANCH   5   6
BRANCH   5   8
ATOM      8  C   UNL     1      10.114  -1.552  22.624  0.00  0.00    +0.197 C 
BRANCH   8   9
ATOM      9  O   UNL     1       8.987  -0.849  22.104  0.00  0.00    -0.372 OA
BRANCH   9  10
ATOM     10  C   UNL     1       9.403   0.238  21.279  0.00  0.00    +0.195 C 
BRANCH  10  11
ATOM     11  C   UNL     1       9.125   1.517  22.011  0.00  0.00    -0.022 A 
ATOM     12  C   UNL     1      10.107   2.093  22.829  0.00  0.00    +0.006 A 
ATOM     13  C   UNL     1       9.857   3.294  23.491  0.00  0.00    +0.000 A 
ATOM     14  C   UNL     1       8.624   3.927  23.344  0.00  0.00    +0.000 A 
ATOM     15  C   UNL     1       7.638   3.357  22.541  0.00  0.00    +0.000 A 
ATOM     16  C   UNL     1       7.886   2.156  21.878  0.00  0.00    +0.006 A 
ENDBRANCH  10  11
ENDBRANCH   9  10
ENDBRANCH   8   9
ENDBRANCH   5   8
ENDBRANCH   1   5
BRANCH   3  17
ATOM     17  C   UNL     1       7.884  -5.321  24.161  0.00  0.00    +0.161 C 
BRANCH  17  18
ATOM     18  N   UNL     1       6.684  -4.765  24.786  0.00  0.00    -0.288 N 
ATOM     19  H   UNL     1       6.016  -4.342  24.160  0.00  0.00    +0.151 HD
ATOM     20  C   UNL     1       6.221  -5.189  25.998  0.00  0.00    +0.303 C 
ATOM     21  N   UNL     1       5.048  -4.590  26.412  0.00  0.00    -0.281 N 
ATOM     22  C   UNL     1       4.625  -3.235  26.034  0.00  0.00    +0.137 C 
ATOM     23  C   UNL     1       4.782  -2.284  27.230  0.00  0.00    +0.179 C 
ATOM     24  O   UNL     1       4.060  -2.769  28.374  0.00  0.00    -0.377 OA
ATOM     25  C   UNL     1       4.545  -4.065  28.769  0.00  0.00    +0.179 C 
ATOM     26  C   UNL     1       4.390  -5.076  27.627  0.00  0.00    +0.137 C 
ATOM     27  O   UNL     1       6.803  -6.052  26.650  0.00  0.00    -0.253 OA
ENDBRANCH  17  18
BRANCH  17  28
ATOM     28  C   UNL     1       7.630  -5.548  22.654  0.00  0.00    +0.034 C 
BRANCH  28  29
ATOM     29  C   UNL     1       6.260  -5.116  22.088  0.00  0.00    -0.015 C 
ATOM     30  C   UNL     1       5.923  -5.917  20.828  0.00  0.00    +0.007 C 
ATOM     31  C   UNL     1       6.185  -3.620  21.768  0.00  0.00    +0.007 C 
ENDBRANCH  28  29
ENDBRANCH  17  28
ENDBRANCH   3  17
TORSDOF 10
ENDMDL
MODEL 3
REMARK VINA RESULT:      -6.0      2.768      4.634
REMARK  Name = 
REMARK  12 active torsions:
REMARK  status: ('A' for Active; 'I' for Inactive)
REMARK    1  A    between atoms: C_2  and  C_3
REMARK    2  A    between atoms: C_2  and  N_12
REMARK    3  A    between atoms: C_2  and  C_30
REMARK    4  A    between atoms: C_3  and  O_4
REMARK    5  A    between atoms: O_4  and  C_5
REMARK    6  A    between atoms: C_5  and  C_6
REMARK    7  A    between atoms: C_13  and  C_15
REMARK    8  A    between atoms: C_15  and  C_17
REMARK    9  A    between atoms: C_15  and  N_21
REMARK   10  A    between atoms: C_17  and  C_18
REMARK   11  A    between atoms: C_18  and  C_19
REMARK   12  A    between atoms: C_18  and  C_20
REMARK                            x       y       z     vdW  Elec       q    Type
REMARK                         _______ _______ _______ _____ _____    ______ ____
ROOT
ATOM      1  N   UNL     1       7.133  -0.668  24.996  0.00  0.00    -0.296 N 
ATOM      2  H   UNL     1       6.834  -0.891  24.060  0.00  0.00    +0.150 HD
ATOM      3  C   UNL     1       8.439  -0.913  25.343  0.00  0.00    +0.234 C 
ATOM      4  O   UNL     1       8.924  -0.505  26.396  0.00  0.00    -0.274 OA
ENDROOT
BRANCH   1   5
ATOM      5  C   UNL     1       6.217   0.182  25.751  0.00  0.00    +0.202 C 
BRANCH   5   6
ATOM      6  C   UNL     1       4.999  -0.592  26.089  0.00  0.00    +0.087 C 
ATOM      7  N   UNL     1       4.081  -1.218  26.420  0.00  0.00    -0.195 NA
ENDBRANCH   5   6
BRANCH   5   8
ATOM      8  C   UNL     1       5.855   1.379  24.860  0.00  0.00    +0.197 C 
BRANCH   8   9
ATOM      9  O   UNL     1       6.990   2.198  24.590  0.00  0.00    -0.372 OA
BRANCH   9  10
ATOM     10  C   UNL     1       6.866   2.836  23.320  0.00  0.00    +0.195 C 
BRANCH  10  11
ATOM     11  C   UNL     1       7.641   4.118  23.359  0.00  0.00    -0.022 A 
ATOM     12  C   UNL     1       8.720   4.267  24.242  0.00  0.00    +0.006 A 
ATOM     13  C   UNL     1       9.456   5.451  24.264  0.00  0.00    +0.000 A 
ATOM     14  C   UNL     1       9.119   6.495  23.404  0.00  0.00    +0.000 A 
ATOM     15  C   UNL     1       8.043   6.360  22.530  0.00  0.00    +0.000 A 
ATOM     16  C   UNL     1       7.305   5.178  22.507  0.00  0.00    +0.006 A 
ENDBRANCH  10  11
ENDBRANCH   9  10
ENDBRANCH   8   9
ENDBRANCH   5   8
ENDBRANCH   1   5
BRANCH   3  17
ATOM     17  C   UNL     1       9.233  -1.721  24.281  0.00  0.00    +0.161 C 
BRANCH  17  18
ATOM     18  N   UNL     1       8.265  -2.386  23.410  0.00  0.00    -0.288 N 
ATOM     19  H   UNL     1       7.942  -1.850  22.619  0.00  0.00    +0.151 HD
ATOM     20  C   UNL     1       8.160  -3.744  23.327  0.00  0.00    +0.303 C 
ATOM     21  N   UNL     1       7.226  -4.199  22.416  0.00  0.00    -0.281 N 
ATOM     22  C   UNL     1       6.015  -3.464  22.027  0.00  0.00    +0.137 C 
ATOM     23  C   UNL     1       4.778  -4.124  22.657  0.00  0.00    +0.179 C 
ATOM     24  O   UNL     1       4.697  -5.514  22.302  0.00  0.00    -0.377 OA
ATOM     25  C   UNL     1       5.862  -6.225  22.760  0.00  0.00    +0.179 C 
ATOM     26  C   UNL     1       7.136  -5.635  22.145  0.00  0.00    +0.137 C 
ATOM     27  O   UNL     1       8.861  -4.492  24.002  0.00  0.00    -0.253 OA
ENDBRANCH  17  18
BRANCH  17  28
ATOM     28  C   UNL     1      10.199  -0.866  23.431  0.00  0.00    +0.034 C 
BRANCH  28  29
ATOM     29  C   UNL     1       9.920   0.650  23.343  0.00  0.00    -0.015 C 
ATOM     30  C   UNL     1       9.851   1.100  21.881  0.00  0.00    +0.007 C 
ATOM     31  C   UNL     1      10.959   1.498  24.082  0.00  0.00    +0.007 C 
ENDBRANCH  28  29
ENDBRANCH  17  28
ENDBRANCH   3  17
TORSDOF 10
ENDMDL
MODEL 4
REMARK VINA RESULT:      -5.9      2.176      7.168
REMARK  Name = 
REMARK  12 active torsions:
REMARK  status: ('A' for Active; 'I' for Inactive)
REMARK    1  A    between atoms: C_2  and  C_3
REMARK    2  A    between atoms: C_2  and  N_12
REMARK    3  A    between atoms: C_2  and  C_30
REMARK    4  A    between atoms: C_3  and  O_4
REMARK    5  A    between atoms: O_4  and  C_5
REMARK    6  A    between atoms: C_5  and  C_6
REMARK    7  A    between atoms: C_13  and  C_15
REMARK    8  A    between atoms: C_15  and  C_17
REMARK    9  A    between atoms: C_15  and  N_21
REMARK   10  A    between atoms: C_17  and  C_18
REMARK   11  A    between atoms: C_18  and  C_19
REMARK   12  A    between atoms: C_18  and  C_20
REMARK                            x       y       z     vdW  Elec       q    Type
REMARK                         _______ _______ _______ _____ _____    ______ ____
ROOT
ATOM      1  N   UNL     1       6.195  -4.675  26.639  0.00  0.00    -0.296 N 
ATOM      2  H   UNL     1       5.708  -5.299  26.015  0.00  0.00    +0.150 HD
ATOM      3  C   UNL     1       6.913  -3.636  26.101  0.00  0.00    +0.234 C 
ATOM      4  O   UNL     1       7.380  -2.735  26.793  0.00  0.00    -0.274 OA
ENDROOT
BRANCH   1   5
ATOM      5  C   UNL     1       5.804  -4.777  28.043  0.00  0.00    +0.202 C 
BRANCH   5   6
ATOM      6  C   UNL     1       5.796  -6.204  28.446  0.00  0.00    +0.087 C 
ATOM      7  N   UNL     1       5.767  -7.337  28.688  0.00  0.00    -0.195 NA
ENDBRANCH   5   6
BRANCH   5   8
ATOM      8  C   UNL     1       4.396  -4.180  28.175  0.00  0.00    +0.197 C 
BRANCH   8   9
ATOM      9  O   UNL     1       3.410  -5.017  27.575  0.00  0.00    -0.372 OA
BRANCH   9  10
ATOM     10  C   UNL     1       2.686  -4.308  26.570  0.00  0.00    +0.195 C 
BRANCH  10  11
ATOM     11  C   UNL     1       2.524  -5.210  25.383  0.00  0.00    -0.022 A 
ATOM     12  C   UNL     1       3.174  -6.451  25.342  0.00  0.00    +0.006 A 
ATOM     13  C   UNL     1       3.006  -7.300  24.249  0.00  0.00    +0.000 A 
ATOM     14  C   UNL     1       2.190  -6.914  23.187  0.00  0.00    +0.000 A 
ATOM     15  C   UNL     1       1.548  -5.677  23.214  0.00  0.00    +0.000 A 
ATOM     16  C   UNL     1       1.714  -4.827  24.306  0.00  0.00    +0.006 A 
ENDBRANCH  10  11
ENDBRANCH   9  10
ENDBRANCH   8   9
ENDBRANCH   5   8
ENDBRANCH   1   5
BRANCH   3  17
ATOM     17  C   UNL     1       7.052  -3.701  24.555  0.00  0.00    +0.161 C 
BRANCH  17  18
ATOM     18  N   UNL     1       8.170  -2.839  24.171  0.00  0.00    -0.288 N 
ATOM     19  H   UNL     1       9.065  -3.073  24.574  0.00  0.00    +0.151 HD
ATOM     20  C   UNL     1       8.177  -2.111  23.017  0.00  0.00    +0.303 C 
ATOM     21  N   UNL     1       9.334  -1.393  22.791  0.00  0.00    -0.281 N 
ATOM     22  C   UNL     1      10.215  -0.877  23.847  0.00  0.00    +0.137 C 
ATOM     23  C   UNL     1      10.054   0.647  23.963  0.00  0.00    +0.179 C 
ATOM     24  O   UNL     1      10.298   1.290  22.702  0.00  0.00    -0.377 OA
ATOM     25  C   UNL     1       9.374   0.820  21.704  0.00  0.00    +0.179 C 
ATOM     26  C   UNL     1       9.502  -0.695  21.514  0.00  0.00    +0.137 C 
ATOM     27  O   UNL     1       7.226  -2.118  22.239  0.00  0.00    -0.253 OA
ENDBRANCH  17  18
BRANCH  17  28
ATOM     28  C   UNL     1       7.276  -5.125  24.002  0.00  0.00    +0.034 C 
BRANCH  28  29
ATOM     29  C   UNL     1       6.328  -5.614  22.885  0.00  0.00    -0.015 C 
ATOM     30  C   UNL     1       7.083  -5.744  21.559  0.00  0.00    +0.007 C 
ATOM     31  C   UNL     1       5.114  -4.703  22.685  0.00  0.00    +0.007 C 
ENDBRANCH  28  29
ENDBRANCH  17  28
ENDBRANCH   3  17
TORSDOF 10
ENDMDL
MODEL 5
REMARK VINA RESULT:      -5.9      2.257      3.503
REMARK  Name = 
REMARK  12 active torsions:
REMARK  status: ('A' for Active; 'I' for Inactive)
REMARK    1  A    between atoms: C_2  and  C_3
REMARK    2  A    between atoms: C_2  and  N_12
REMARK    3  A    between atoms: C_2  and  C_30
REMARK    4  A    between atoms: C_3  and  O_4
REMARK    5  A    between atoms: O_4  and  C_5
REMARK    6  A    between atoms: C_5  and  C_6
REMARK    7  A    between atoms: C_13  and  C_15
REMARK    8  A    between atoms: C_15  and  C_17
REMARK    9  A    between atoms: C_15  and  N_21
REMARK   10  A    between atoms: C_17  and  C_18
REMARK   11  A    between atoms: C_18  and  C_19
REMARK   12  A    between atoms: C_18  and  C_20
REMARK                            x       y       z     vdW  Elec       q    Type
REMARK                         _______ _______ _______ _____ _____    ______ ____
ROOT
ATOM      1  N   UNL     1       6.895  -2.974  24.150  0.00  0.00    -0.296 N 
ATOM      2  H   UNL     1       6.776  -3.447  25.031  0.00  0.00    +0.150 HD
ATOM      3  C   UNL     1       6.312  -1.742  23.982  0.00  0.00    +0.234 C 
ATOM      4  O   UNL     1       6.559  -1.028  23.013  0.00  0.00    -0.274 OA
ENDROOT
BRANCH   1   5
ATOM      5  C   UNL     1       7.938  -3.526  23.288  0.00  0.00    +0.202 C 
BRANCH   5   6
ATOM      6  C   UNL     1       7.529  -4.875  22.830  0.00  0.00    +0.087 C 
ATOM      7  N   UNL     1       7.249  -5.917  22.406  0.00  0.00    -0.195 NA
ENDBRANCH   5   6
BRANCH   5   8
ATOM      8  C   UNL     1       9.225  -3.615  24.120  0.00  0.00    +0.197 C 
BRANCH   8   9
ATOM      9  O   UNL     1       9.898  -2.360  24.187  0.00  0.00    -0.372 OA
BRANCH   9  10
ATOM     10  C   UNL     1      10.201  -1.876  22.880  0.00  0.00    +0.195 C 
BRANCH  10  11
ATOM     11  C   UNL     1      10.188  -0.377  22.919  0.00  0.00    -0.022 A 
ATOM     12  C   UNL     1      10.681   0.307  24.038  0.00  0.00    +0.006 A 
ATOM     13  C   UNL     1      10.690   1.701  24.066  0.00  0.00    +0.000 A 
ATOM     14  C   UNL     1      10.204   2.422  22.976  0.00  0.00    +0.000 A 
ATOM     15  C   UNL     1       9.703   1.750  21.863  0.00  0.00    +0.000 A 
ATOM     16  C   UNL     1       9.693   0.357  21.833  0.00  0.00    +0.006 A 
ENDBRANCH  10  11
ENDBRANCH   9  10
ENDBRANCH   8   9
ENDBRANCH   5   8
ENDBRANCH   1   5
BRANCH   3  17
ATOM     17  C   UNL     1       5.348  -1.339  25.131  0.00  0.00    +0.161 C 
BRANCH  17  18
ATOM     18  N   UNL     1       5.078  -2.535  25.927  0.00  0.00    -0.288 N 
ATOM     19  H   UNL     1       5.738  -2.731  26.666  0.00  0.00    +0.151 HD
ATOM     20  C   UNL     1       3.830  -3.074  26.048  0.00  0.00    +0.303 C 
ATOM     21  N   UNL     1       3.752  -4.173  26.880  0.00  0.00    -0.281 N 
ATOM     22  C   UNL     1       4.853  -5.114  27.126  0.00  0.00    +0.137 C 
ATOM     23  C   UNL     1       4.577  -6.442  26.404  0.00  0.00    +0.179 C 
ATOM     24  O   UNL     1       3.309  -6.990  26.797  0.00  0.00    -0.377 OA
ATOM     25  C   UNL     1       2.240  -6.081  26.478  0.00  0.00    +0.179 C 
ATOM     26  C   UNL     1       2.436  -4.738  27.191  0.00  0.00    +0.137 C 
ATOM     27  O   UNL     1       2.858  -2.597  25.468  0.00  0.00    -0.253 OA
ENDBRANCH  17  18
BRANCH  17  28
ATOM     28  C   UNL     1       5.890  -0.215  26.042  0.00  0.00    +0.034 C 
BRANCH  28  29
ATOM     29  C   UNL     1       7.355   0.226  25.837  0.00  0.00    -0.015 C 
ATOM     30  C   UNL     1       8.272  -0.473  26.844  0.00  0.00    +0.007 C 
ATOM     31  C   UNL     1       7.549   1.741  25.946  0.00  0.00    +0.007 C 
ENDBRANCH  28  29
ENDBRANCH  17  28
ENDBRANCH   3  17
TORSDOF 10
ENDMDL
MODEL 6
REMARK VINA RESULT:      -5.7      3.712      7.230
REMARK  Name = 
REMARK  12 active torsions:
REMARK  status: ('A' for Active; 'I' for Inactive)
REMARK    1  A    between atoms: C_2  and  C_3
REMARK    2  A    between atoms: C_2  and  N_12
REMARK    3  A    between atoms: C_2  and  C_30
REMARK    4  A    between atoms: C_3  and  O_4
REMARK    5  A    between atoms: O_4  and  C_5
REMARK    6  A    between atoms: C_5  and  C_6
REMARK    7  A    between atoms: C_13  and  C_15
REMARK    8  A    between atoms: C_15  and  C_17
REMARK    9  A    between atoms: C_15  and  N_21
REMARK   10  A    between atoms: C_17  and  C_18
REMARK   11  A    between atoms: C_18  and  C_19
REMARK   12  A    between atoms: C_18  and  C_20
REMARK                            x       y       z     vdW  Elec       q    Type
REMARK                         _______ _______ _______ _____ _____    ______ ____
ROOT
ATOM      1  N   UNL     1       6.699  -1.215  23.769  0.00  0.00    -0.296 N 
ATOM      2  H   UNL     1       6.943  -1.514  24.699  0.00  0.00    +0.150 HD
ATOM      3  C   UNL     1       6.695   0.131  23.493  0.00  0.00    +0.234 C 
ATOM      4  O   UNL     1       6.588   0.564  22.348  0.00  0.00    -0.274 OA
ENDROOT
BRANCH   1   5
ATOM      5  C   UNL     1       6.697  -2.271  22.760  0.00  0.00    +0.202 C 
BRANCH   5   6
ATOM      6  C   UNL     1       5.523  -3.151  22.976  0.00  0.00    +0.087 C 
ATOM      7  N   UNL     1       4.652  -3.886  23.186  0.00  0.00    -0.195 NA
ENDBRANCH   5   6
BRANCH   5   8
ATOM      8  C   UNL     1       7.997  -3.071  22.926  0.00  0.00    +0.197 C 
BRANCH   8   9
ATOM      9  O   UNL     1       8.906  -2.423  23.814  0.00  0.00    -0.372 OA
BRANCH   9  10
ATOM     10  C   UNL     1      10.107  -2.061  23.136  0.00  0.00    +0.195 C 
BRANCH  10  11
ATOM     11  C   UNL     1      10.197  -0.564  23.104  0.00  0.00    -0.022 A 
ATOM     12  C   UNL     1       9.917   0.137  21.923  0.00  0.00    +0.006 A 
ATOM     13  C   UNL     1       9.978   1.530  21.899  0.00  0.00    +0.000 A 
ATOM     14  C   UNL     1      10.321   2.232  23.053  0.00  0.00    +0.000 A 
ATOM     15  C   UNL     1      10.610   1.543  24.229  0.00  0.00    +0.000 A 
ATOM     16  C   UNL     1      10.550   0.150  24.256  0.00  0.00    +0.006 A 
ENDBRANCH  10  11
ENDBRANCH   9  10
ENDBRANCH   8   9
ENDBRANCH   5   8
ENDBRANCH   1   5
BRANCH   3  17
ATOM     17  C   UNL     1       6.861   1.032  24.747  0.00  0.00    +0.161 C 
BRANCH  17  18
ATOM     18  N   UNL     1       6.583   2.411  24.345  0.00  0.00    -0.288 N 
ATOM     19  H   UNL     1       5.665   2.582  23.962  0.00  0.00    +0.151 HD
ATOM     20  C   UNL     1       7.247   3.480  24.873  0.00  0.00    +0.303 C 
ATOM     21  N   UNL     1       6.820   4.711  24.415  0.00  0.00    -0.281 N 
ATOM     22  C   UNL     1       6.226   4.949  23.093  0.00  0.00    +0.137 C 
ATOM     23  C   UNL     1       7.233   5.678  22.191  0.00  0.00    +0.179 C 
ATOM     24  O   UNL     1       7.684   6.898  22.801  0.00  0.00    -0.377 OA
ATOM     25  C   UNL     1       8.328   6.630  24.060  0.00  0.00    +0.179 C 
ATOM     26  C   UNL     1       7.367   5.926  25.024  0.00  0.00    +0.137 C 
ATOM     27  O   UNL     1       8.141   3.343  25.703  0.00  0.00    -0.253 OA
ENDBRANCH  17  18
BRANCH  17  28
ATOM     28  C   UNL     1       5.950   0.638  25.931  0.00  0.00    +0.034 C 
BRANCH  28  29
ATOM     29  C   UNL     1       6.635   0.166  27.231  0.00  0.00    -0.015 C 
ATOM     30  C   UNL     1       6.678   1.301  28.258  0.00  0.00    +0.007 C 
ATOM     31  C   UNL     1       8.054  -0.363  27.006  0.00  0.00    +0.007 C 
ENDBRANCH  28  29
ENDBRANCH  17  28
ENDBRANCH   3  17
TORSDOF 10
ENDMDL
MODEL 7
REMARK VINA RESULT:      -5.6      2.525      7.300
REMARK  Name = 
REMARK  12 active torsions:
REMARK  status: ('A' for Active; 'I' for Inactive)
REMARK    1  A    between atoms: C_2  and  C_3
REMARK    2  A    between atoms: C_2  and  N_12
REMARK    3  A    between atoms: C_2  and  C_30
REMARK    4  A    between atoms: C_3  and  O_4
REMARK    5  A    between atoms: O_4  and  C_5
REMARK    6  A    between atoms: C_5  and  C_6
REMARK    7  A    between atoms: C_13  and  C_15
REMARK    8  A    between atoms: C_15  and  C_17
REMARK    9  A    between atoms: C_15  and  N_21
REMARK   10  A    between atoms: C_17  and  C_18
REMARK   11  A    between atoms: C_18  and  C_19
REMARK   12  A    between atoms: C_18  and  C_20
REMARK                            x       y       z     vdW  Elec       q    Type
REMARK                         _______ _______ _______ _____ _____    ______ ____
ROOT
ATOM      1  N   UNL     1       6.469  -4.829  23.628  0.00  0.00    -0.296 N 
ATOM      2  H   UNL     1       5.706  -4.260  23.956  0.00  0.00    +0.150 HD
ATOM      3  C   UNL     1       7.715  -4.632  24.171  0.00  0.00    +0.234 C 
ATOM      4  O   UNL     1       8.650  -5.401  23.960  0.00  0.00    -0.274 OA
ENDROOT
BRANCH   1   5
ATOM      5  C   UNL     1       6.076  -6.003  22.851  0.00  0.00    +0.202 C 
BRANCH   5   6
ATOM      6  C   UNL     1       6.063  -5.652  21.411  0.00  0.00    +0.087 C 
ATOM      7  N   UNL     1       6.045  -5.304  20.305  0.00  0.00    -0.195 NA
ENDBRANCH   5   6
BRANCH   5   8
ATOM      8  C   UNL     1       4.669  -6.411  23.311  0.00  0.00    +0.197 C 
BRANCH   8   9
ATOM      9  O   UNL     1       4.361  -5.882  24.599  0.00  0.00    -0.372 OA
BRANCH   9  10
ATOM     10  C   UNL     1       4.092  -6.932  25.527  0.00  0.00    +0.195 C 
BRANCH  10  11
ATOM     11  C   UNL     1       4.636  -6.527  26.865  0.00  0.00    -0.022 A 
ATOM     12  C   UNL     1       3.824  -6.584  28.006  0.00  0.00    +0.006 A 
ATOM     13  C   UNL     1       4.335  -6.230  29.254  0.00  0.00    +0.000 A 
ATOM     14  C   UNL     1       5.661  -5.815  29.371  0.00  0.00    +0.000 A 
ATOM     15  C   UNL     1       6.473  -5.746  28.240  0.00  0.00    +0.000 A 
ATOM     16  C   UNL     1       5.963  -6.100  26.992  0.00  0.00    +0.006 A 
ENDBRANCH  10  11
ENDBRANCH   9  10
ENDBRANCH   8   9
ENDBRANCH   5   8
ENDBRANCH   1   5
BRANCH   3  17
ATOM     17  C   UNL     1       7.814  -3.379  25.083  0.00  0.00    +0.161 C 
BRANCH  17  18
ATOM     18  N   UNL     1       8.748  -2.444  24.456  0.00  0.00    -0.288 N 
ATOM     19  H   UNL     1       9.710  -2.515  24.755  0.00  0.00    +0.151 HD
ATOM     20  C   UNL     1       8.514  -1.875  23.238  0.00  0.00    +0.303 C 
ATOM     21  N   UNL     1       9.527  -1.056  22.777  0.00  0.00    -0.281 N 
ATOM     22  C   UNL     1      10.450  -0.306  23.638  0.00  0.00    +0.137 C 
ATOM     23  C   UNL     1      10.098   1.189  23.606  0.00  0.00    +0.179 C 
ATOM     24  O   UNL     1      10.096   1.691  22.260  0.00  0.00    -0.377 OA
ATOM     25  C   UNL     1       9.130   0.989  21.457  0.00  0.00    +0.179 C 
ATOM     26  C   UNL     1       9.440  -0.512  21.420  0.00  0.00    +0.137 C 
ATOM     27  O   UNL     1       7.486  -2.096  22.605  0.00  0.00    -0.253 OA
ENDBRANCH  17  18
BRANCH  17  28
ATOM     28  C   UNL     1       6.462  -2.676  25.337  0.00  0.00    +0.034 C 
BRANCH  28  29
ATOM     29  C   UNL     1       6.135  -2.264  26.789  0.00  0.00    -0.015 C 
ATOM     30  C   UNL     1       4.694  -2.643  27.142  0.00  0.00    +0.007 C 
ATOM     31  C   UNL     1       6.341  -0.770  27.052  0.00  0.00    +0.007 C 
ENDBRANCH  28  29
ENDBRANCH  17  28
ENDBRANCH   3  17
TORSDOF 10
ENDMDL
MODEL 8
REMARK VINA RESULT:      -5.6      3.346      7.115
REMARK  Name = 
REMARK  12 active torsions:
REMARK  status: ('A' for Active; 'I' for Inactive)
REMARK    1  A    between atoms: C_2  and  C_3
REMARK    2  A    between atoms: C_2  and  N_12
REMARK    3  A    between atoms: C_2  and  C_30
REMARK    4  A    between atoms: C_3  and  O_4
REMARK    5  A    between atoms: O_4  and  C_5
REMARK    6  A    between atoms: C_5  and  C_6
REMARK    7  A    between atoms: C_13  and  C_15
REMARK    8  A    between atoms: C_15  and  C_17
REMARK    9  A    between atoms: C_15  and  N_21
REMARK   10  A    between atoms: C_17  and  C_18
REMARK   11  A    between atoms: C_18  and  C_19
REMARK   12  A    between atoms: C_18  and  C_20
REMARK                            x       y       z     vdW  Elec       q    Type
REMARK                         _______ _______ _______ _____ _____    ______ ____
ROOT
ATOM      1  N   UNL     1       8.198  -0.904  24.746  0.00  0.00    -0.296 N 
ATOM      2  H   UNL     1       7.799  -0.934  23.821  0.00  0.00    +0.150 HD
ATOM      3  C   UNL     1       7.351  -0.832  25.824  0.00  0.00    +0.234 C 
ATOM      4  O   UNL     1       7.748  -0.974  26.979  0.00  0.00    -0.274 OA
ENDROOT
BRANCH   1   5
ATOM      5  C   UNL     1       9.612  -1.264  24.820  0.00  0.00    +0.202 C 
BRANCH   5   6
ATOM      6  C   UNL     1      10.436  -0.065  24.540  0.00  0.00    +0.087 C 
ATOM      7  N   UNL     1      11.031   0.915  24.362  0.00  0.00    -0.195 NA
ENDBRANCH   5   6
BRANCH   5   8
ATOM      8  C   UNL     1       9.870  -2.345  23.761  0.00  0.00    +0.197 C 
BRANCH   8   9
ATOM      9  O   UNL     1       9.544  -3.646  24.244  0.00  0.00    -0.372 OA
BRANCH   9  10
ATOM     10  C   UNL     1       8.308  -4.098  23.695  0.00  0.00    +0.195 C 
BRANCH  10  11
ATOM     11  C   UNL     1       7.484  -4.680  24.805  0.00  0.00    -0.022 A 
ATOM     12  C   UNL     1       6.339  -5.435  24.516  0.00  0.00    +0.006 A 
ATOM     13  C   UNL     1       5.586  -5.996  25.546  0.00  0.00    +0.000 A 
ATOM     14  C   UNL     1       5.968  -5.804  26.873  0.00  0.00    +0.000 A 
ATOM     15  C   UNL     1       7.099  -5.046  27.170  0.00  0.00    +0.000 A 
ATOM     16  C   UNL     1       7.855  -4.485  26.141  0.00  0.00    +0.006 A 
ENDBRANCH  10  11
ENDBRANCH   9  10
ENDBRANCH   8   9
ENDBRANCH   5   8
ENDBRANCH   1   5
BRANCH   3  17
ATOM     17  C   UNL     1       5.866  -0.584  25.444  0.00  0.00    +0.161 C 
BRANCH  17  18
ATOM     18  N   UNL     1       5.839   0.413  24.375  0.00  0.00    -0.288 N 
ATOM     19  H   UNL     1       5.683   0.057  23.444  0.00  0.00    +0.151 HD
ATOM     20  C   UNL     1       5.539   1.725  24.599  0.00  0.00    +0.303 C 
ATOM     21  N   UNL     1       5.512   2.515  23.467  0.00  0.00    -0.281 N 
ATOM     22  C   UNL     1       6.304   2.265  22.256  0.00  0.00    +0.137 C 
ATOM     23  C   UNL     1       7.450   3.284  22.161  0.00  0.00    +0.179 C 
ATOM     24  O   UNL     1       6.949   4.630  22.203  0.00  0.00    -0.377 OA
ATOM     25  C   UNL     1       6.240   4.872  23.431  0.00  0.00    +0.179 C 
ATOM     26  C   UNL     1       5.060   3.905  23.578  0.00  0.00    +0.137 C 
ATOM     27  O   UNL     1       5.297   2.153  25.725  0.00  0.00    -0.253 OA
ENDBRANCH  17  18
BRANCH  17  28
ATOM     28  C   UNL     1       5.110  -1.854  24.994  0.00  0.00    +0.034 C 
BRANCH  28  29
ATOM     29  C   UNL     1       4.350  -2.654  26.074  0.00  0.00    -0.015 C 
ATOM     30  C   UNL     1       3.058  -3.239  25.500  0.00  0.00    +0.007 C 
ATOM     31  C   UNL     1       4.018  -1.822  27.316  0.00  0.00    +0.007 C 
ENDBRANCH  28  29
ENDBRANCH  17  28
ENDBRANCH   3  17
TORSDOF 10
ENDMDL
MODEL 9
REMARK VINA RESULT:      -5.5      3.098      6.439
REMARK  Name = 
REMARK  12 active torsions:
REMARK  status: ('A' for Active; 'I' for Inactive)
REMARK    1  A    between atoms: C_2  and  C_3
REMARK    2  A    between atoms: C_2  and  N_12
REMARK    3  A    between atoms: C_2  and  C_30
REMARK    4  A    between atoms: C_3  and  O_4
REMARK    5  A    between atoms: O_4  and  C_5
REMARK    6  A    between atoms: C_5  and  C_6
REMARK    7  A    between atoms: C_13  and  C_15
REMARK    8  A    between atoms: C_15  and  C_17
REMARK    9  A    between atoms: C_15  and  N_21
REMARK   10  A    between atoms: C_17  and  C_18
REMARK   11  A    between atoms: C_18  and  C_19
REMARK   12  A    between atoms: C_18  and  C_20
REMARK                            x       y       z     vdW  Elec       q    Type
REMARK                         _______ _______ _______ _____ _____    ______ ____
ROOT
ATOM      1  N   UNL     1       7.949  -2.617  25.337  0.00  0.00    -0.296 N 
ATOM      2  H   UNL     1       7.427  -3.026  24.579  0.00  0.00    +0.150 HD
ATOM      3  C   UNL     1       7.896  -1.256  25.512  0.00  0.00    +0.234 C 
ATOM      4  O   UNL     1       8.352  -0.706  26.511  0.00  0.00    -0.274 OA
ENDROOT
BRANCH   1   5
ATOM      5  C   UNL     1       8.433  -3.566  26.336  0.00  0.00    +0.202 C 
BRANCH   5   6
ATOM      6  C   UNL     1       9.434  -4.465  25.712  0.00  0.00    +0.087 C 
ATOM      7  N   UNL     1      10.177  -5.162  25.159  0.00  0.00    -0.195 NA
ENDBRANCH   5   6
BRANCH   5   8
ATOM      8  C   UNL     1       7.225  -4.377  26.826  0.00  0.00    +0.197 C 
BRANCH   8   9
ATOM      9  O   UNL     1       7.111  -5.622  26.140  0.00  0.00    -0.372 OA
BRANCH   9  10
ATOM     10  C   UNL     1       5.849  -5.726  25.484  0.00  0.00    +0.195 C 
BRANCH  10  11
ATOM     11  C   UNL     1       5.963  -5.073  24.139  0.00  0.00    -0.022 A 
ATOM     12  C   UNL     1       5.086  -4.041  23.777  0.00  0.00    +0.006 A 
ATOM     13  C   UNL     1       5.205  -3.417  22.536  0.00  0.00    +0.000 A 
ATOM     14  C   UNL     1       6.199  -3.820  21.646  0.00  0.00    +0.000 A 
ATOM     15  C   UNL     1       7.070  -4.851  21.994  0.00  0.00    +0.000 A 
ATOM     16  C   UNL     1       6.953  -5.477  23.234  0.00  0.00    +0.006 A 
ENDBRANCH  10  11
ENDBRANCH   9  10
ENDBRANCH   8   9
ENDBRANCH   5   8
ENDBRANCH   1   5
BRANCH   3  17
ATOM     17  C   UNL     1       7.191  -0.499  24.353  0.00  0.00    +0.161 C 
BRANCH  17  18
ATOM     18  N   UNL     1       7.201   0.926  24.680  0.00  0.00    -0.288 N 
ATOM     19  H   UNL     1       8.034   1.433  24.416  0.00  0.00    +0.151 HD
ATOM     20  C   UNL     1       6.058   1.652  24.851  0.00  0.00    +0.303 C 
ATOM     21  N   UNL     1       6.257   2.995  25.106  0.00  0.00    -0.281 N 
ATOM     22  C   UNL     1       7.442   3.551  25.771  0.00  0.00    +0.137 C 
ATOM     23  C   UNL     1       7.083   3.990  27.198  0.00  0.00    +0.179 C 
ATOM     24  O   UNL     1       5.988   4.920  27.193  0.00  0.00    -0.377 OA
ATOM     25  C   UNL     1       4.818   4.324  26.604  0.00  0.00    +0.179 C 
ATOM     26  C   UNL     1       5.097   3.888  25.161  0.00  0.00    +0.137 C 
ATOM     27  O   UNL     1       4.945   1.140  24.765  0.00  0.00    -0.253 OA
ENDBRANCH  17  18
BRANCH  17  28
ATOM     28  C   UNL     1       7.837  -0.723  22.969  0.00  0.00    +0.034 C 
BRANCH  28  29
ATOM     29  C   UNL     1       9.334  -0.376  22.816  0.00  0.00    -0.015 C 
ATOM     30  C   UNL     1       9.540   0.617  21.669  0.00  0.00    +0.007 C 
ATOM     31  C   UNL     1      10.217  -1.605  22.583  0.00  0.00    +0.007 C 
ENDBRANCH  28  29
ENDBRANCH  17  28
ENDBRANCH   3  17
TORSDOF 10
ENDMDL
