MODEL 1
REMARK VINA RESULT:      -6.2      0.000      0.000
REMARK  Name = 
REMARK  8 active torsions:
REMARK  status: ('A' for Active; 'I' for Inactive)
REMARK    1  A    between atoms: O_1  and  C_2
REMARK    2  A    between atoms: C_2  and  CA_3
REMARK    3  A    between atoms: CA_3  and  N_5
REMARK    4  A    between atoms: CA_3  and  C_11
REMARK    5  A    between atoms: C_6  and  C_8
REMARK    6  A    between atoms: C_11  and  O_13
REMARK    7  A    between atoms: C_11  and  C_14
REMARK    8  A    between atoms: C_17  and  N_20
REMARK                            x       y       z     vdW  Elec       q    Type
REMARK                         _______ _______ _______ _____ _____    ______ ____
ROOT
ATOM      1  C   UNL     1       9.305  -1.892  22.923  0.00  0.00    +0.167 C 
ENDROOT
BRANCH   1   2
ATOM      2  C   UNL     1       9.744  -0.447  23.087  0.00  0.00    -0.017 A 
ATOM      3  C   UNL     1      10.293   0.055  24.279  0.00  0.00    +0.013 A 
ATOM      4  C   UNL     1      10.664   1.403  24.386  0.00  0.00    +0.084 A 
ATOM      5  C   UNL     1      10.459   2.269  23.302  0.00  0.00    +0.273 A 
ATOM      6  C   UNL     1       9.915   1.788  22.110  0.00  0.00    +0.084 A 
ATOM      7  C   UNL     1       9.584   0.437  22.001  0.00  0.00    +0.013 A 
BRANCH   5   8
ATOM      8  N   UNL     1      10.804   3.691  23.415  0.00  0.00    +0.080 N 
ATOM      9  O   UNL     1      11.985   4.014  23.224  0.00  0.00    +0.041 OA
ATOM     10  O   UNL     1       9.891   4.492  23.674  0.00  0.00    -0.576 OA
ENDBRANCH   5   8
ENDBRANCH   1   2
BRANCH   1  11
ATOM     11  O   UNL     1      10.409  -2.784  23.181  0.00  0.00    -0.385 OA
ATOM     12  H   UNL     1      11.216  -2.333  22.876  0.00  0.00    +0.210 HD
ENDBRANCH   1  11
BRANCH   1  13
ATOM     13  CA  UNL     1       8.071  -2.389  23.753  0.00  0.00    +0.131 C 
BRANCH  13  14
ATOM     14  N   UNL     1       7.430  -3.495  22.997  0.00  0.00    -0.305 N 
ATOM     15  H   UNL     1       7.053  -3.234  22.087  0.00  0.00    +0.149 HD
ATOM     16  C   UNL     1       7.720  -4.835  23.182  0.00  0.00    +0.246 C 
ATOM     17  O   UNL     1       8.562  -5.223  23.995  0.00  0.00    -0.273 OA
BRANCH  16  18
ATOM     18  C   UNL     1       6.887  -5.827  22.369  0.00  0.00    +0.256 C 
ATOM     19 CL   UNL     1       6.303  -5.049  20.889  0.00  0.00    -0.094 Cl
ATOM     20 CL   UNL     1       5.523  -6.396  23.362  0.00  0.00    -0.094 Cl
ENDBRANCH  16  18
ENDBRANCH  13  14
BRANCH  13  21
ATOM     21  C   UNL     1       7.049  -1.262  24.029  0.00  0.00    +0.181 C 
BRANCH  21  22
ATOM     22  O   UNL     1       6.212  -0.998  22.912  0.00  0.00    -0.393 OA
ATOM     23  H   UNL     1       6.672  -0.343  22.359  0.00  0.00    +0.209 HD
ENDBRANCH  21  22
ENDBRANCH  13  21
ENDBRANCH   1  13
TORSDOF 8
ENDMDL
MODEL 2
REMARK VINA RESULT:      -6.1      2.110      2.710
REMARK  Name = 
REMARK  8 active torsions:
REMARK  status: ('A' for Active; 'I' for Inactive)
REMARK    1  A    between atoms: O_1  and  C_2
REMARK    2  A    between atoms: C_2  and  CA_3
REMARK    3  A    between atoms: CA_3  and  N_5
REMARK    4  A    between atoms: CA_3  and  C_11
REMARK    5  A    between atoms: C_6  and  C_8
REMARK    6  A    between atoms: C_11  and  O_13
REMARK    7  A    between atoms: C_11  and  C_14
REMARK    8  A    between atoms: C_17  and  N_20
REMARK                            x       y       z     vdW  Elec       q    Type
REMARK                         _______ _______ _______ _____ _____    ______ ____
ROOT
ATOM      1  C   UNL     1       9.398  -1.695  22.561  0.00  0.00    +0.167 C 
ENDROOT
BRANCH   1   2
ATOM      2  C   UNL     1       9.745  -0.230  22.766  0.00  0.00    -0.017 A 
ATOM      3  C   UNL     1       9.633   0.732  21.748  0.00  0.00    +0.013 A 
ATOM      4  C   UNL     1       9.986   2.069  21.983  0.00  0.00    +0.084 A 
ATOM      5  C   UNL     1      10.485   2.446  23.239  0.00  0.00    +0.273 A 
ATOM      6  C   UNL     1      10.603   1.504  24.262  0.00  0.00    +0.084 A 
ATOM      7  C   UNL     1      10.213   0.184  24.029  0.00  0.00    +0.013 A 
BRANCH   5   8
ATOM      8  N   UNL     1      10.897   3.833  23.484  0.00  0.00    +0.080 N 
ATOM      9  O   UNL     1      10.025   4.639  23.836  0.00  0.00    +0.041 OA
ATOM     10  O   UNL     1      12.098   4.115  23.348  0.00  0.00    -0.576 OA
ENDBRANCH   5   8
ENDBRANCH   1   2
BRANCH   1  11
ATOM     11  O   UNL     1      10.512  -2.531  22.938  0.00  0.00    -0.385 OA
ATOM     12  H   UNL     1      11.234  -2.341  22.314  0.00  0.00    +0.210 HD
ENDBRANCH   1  11
BRANCH   1  13
ATOM     13  CA  UNL     1       8.110  -2.255  23.258  0.00  0.00    +0.131 C 
BRANCH  13  14
ATOM     14  N   UNL     1       8.536  -3.268  24.256  0.00  0.00    -0.305 N 
ATOM     15  H   UNL     1       9.225  -3.940  23.922  0.00  0.00    +0.149 HD
ATOM     16  C   UNL     1       8.465  -3.089  25.626  0.00  0.00    +0.246 C 
ATOM     17  O   UNL     1       8.048  -2.047  26.136  0.00  0.00    -0.273 OA
BRANCH  16  18
ATOM     18  C   UNL     1       8.870  -4.286  26.488  0.00  0.00    +0.256 C 
ATOM     19 CL   UNL     1      10.080  -5.259  25.634  0.00  0.00    -0.094 Cl
ATOM     20 CL   UNL     1       7.423  -5.259  26.852  0.00  0.00    -0.094 Cl
ENDBRANCH  16  18
ENDBRANCH  13  14
BRANCH  13  21
ATOM     21  C   UNL     1       7.113  -2.876  22.251  0.00  0.00    +0.181 C 
BRANCH  21  22
ATOM     22  O   UNL     1       5.793  -2.373  22.408  0.00  0.00    -0.393 OA
ATOM     23  H   UNL     1       5.804  -1.446  22.114  0.00  0.00    +0.209 HD
ENDBRANCH  21  22
ENDBRANCH  13  21
ENDBRANCH   1  13
TORSDOF 8
ENDMDL
MODEL 3
REMARK VINA RESULT:      -6.0      3.858      7.163
REMARK  Name = 
REMARK  8 active torsions:
REMARK  status: ('A' for Active; 'I' for Inactive)
REMARK    1  A    between atoms: O_1  and  C_2
REMARK    2  A    between atoms: C_2  and  CA_3
REMARK    3  A    between atoms: CA_3  and  N_5
REMARK    4  A    between atoms: CA_3  and  C_11
REMARK    5  A    between atoms: C_6  and  C_8
REMARK    6  A    between atoms: C_11  and  O_13
REMARK    7  A    between atoms: C_11  and  C_14
REMARK    8  A    between atoms: C_17  and  N_20
REMARK                            x       y       z     vdW  Elec       q    Type
REMARK                         _______ _______ _______ _____ _____    ______ ____
ROOT
ATOM      1  C   UNL     1      10.500   2.012  22.579  0.00  0.00    +0.167 C 
ENDROOT
BRANCH   1   2
ATOM      2  C   UNL     1      10.125   0.688  23.223  0.00  0.00    -0.017 A 
ATOM      3  C   UNL     1       9.801   0.564  24.584  0.00  0.00    +0.013 A 
ATOM      4  C   UNL     1       9.481  -0.686  25.135  0.00  0.00    +0.084 A 
ATOM      5  C   UNL     1       9.513  -1.831  24.326  0.00  0.00    +0.273 A 
ATOM      6  C   UNL     1       9.834  -1.727  22.971  0.00  0.00    +0.084 A 
ATOM      7  C   UNL     1      10.113  -0.474  22.426  0.00  0.00    +0.013 A 
BRANCH   5   8
ATOM      8  N   UNL     1       9.222  -3.150  24.900  0.00  0.00    +0.080 N 
ATOM      9  O   UNL     1       9.857  -4.121  24.465  0.00  0.00    +0.041 OA
ATOM     10  O   UNL     1       8.372  -3.215  25.803  0.00  0.00    -0.576 OA
ENDBRANCH   5   8
ENDBRANCH   1   2
BRANCH   1  11
ATOM     11  O   UNL     1       9.717   2.228  21.387  0.00  0.00    -0.385 OA
ATOM     12  H   UNL     1       9.852   3.155  21.122  0.00  0.00    +0.210 HD
ENDBRANCH   1  11
BRANCH   1  13
ATOM     13  CA  UNL     1      10.424   3.309  23.456  0.00  0.00    +0.131 C 
BRANCH  13  14
ATOM     14  N   UNL     1       9.200   4.052  23.065  0.00  0.00    -0.305 N 
ATOM     15  H   UNL     1       9.061   4.157  22.061  0.00  0.00    +0.149 HD
ATOM     16  C   UNL     1       8.072   4.166  23.857  0.00  0.00    +0.246 C 
ATOM     17  O   UNL     1       7.987   3.637  24.968  0.00  0.00    -0.273 OA
BRANCH  16  18
ATOM     18  C   UNL     1       6.948   5.049  23.313  0.00  0.00    +0.256 C 
ATOM     19 CL   UNL     1       5.679   4.035  22.604  0.00  0.00    -0.094 Cl
ATOM     20 CL   UNL     1       7.617   6.163  22.095  0.00  0.00    -0.094 Cl
ENDBRANCH  16  18
ENDBRANCH  13  14
BRANCH  13  21
ATOM     21  C   UNL     1      11.674   4.206  23.296  0.00  0.00    +0.181 C 
BRANCH  21  22
ATOM     22  O   UNL     1      11.348   5.528  22.887  0.00  0.00    -0.393 OA
ATOM     23  H   UNL     1      11.560   5.594  21.940  0.00  0.00    +0.209 HD
ENDBRANCH  21  22
ENDBRANCH  13  21
ENDBRANCH   1  13
TORSDOF 8
ENDMDL
MODEL 4
REMARK VINA RESULT:      -6.0      3.960      7.336
REMARK  Name = 
REMARK  8 active torsions:
REMARK  status: ('A' for Active; 'I' for Inactive)
REMARK    1  A    between atoms: O_1  and  C_2
REMARK    2  A    between atoms: C_2  and  CA_3
REMARK    3  A    between atoms: CA_3  and  N_5
REMARK    4  A    between atoms: CA_3  and  C_11
REMARK    5  A    between atoms: C_6  and  C_8
REMARK    6  A    between atoms: C_11  and  O_13
REMARK    7  A    between atoms: C_11  and  C_14
REMARK    8  A    between atoms: C_17  and  N_20
REMARK                            x       y       z     vdW  Elec       q    Type
REMARK                         _______ _______ _______ _____ _____    ______ ____
ROOT
ATOM      1  C   UNL     1       7.757  -4.529  23.194  0.00  0.00    +0.167 C 
ENDROOT
BRANCH   1   2
ATOM      2  C   UNL     1       7.361  -4.923  24.607  0.00  0.00    -0.017 A 
ATOM      3  C   UNL     1       8.239  -4.836  25.699  0.00  0.00    +0.013 A 
ATOM      4  C   UNL     1       7.831  -5.232  26.982  0.00  0.00    +0.084 A 
ATOM      5  C   UNL     1       6.540  -5.748  27.172  0.00  0.00    +0.273 A 
ATOM      6  C   UNL     1       5.654  -5.842  26.098  0.00  0.00    +0.084 A 
ATOM      7  C   UNL     1       6.058  -5.410  24.834  0.00  0.00    +0.013 A 
BRANCH   5   8
ATOM      8  N   UNL     1       6.115  -6.204  28.500  0.00  0.00    +0.080 N 
ATOM      9  O   UNL     1       6.077  -5.366  29.412  0.00  0.00    +0.041 OA
ATOM     10  O   UNL     1       5.796  -7.397  28.630  0.00  0.00    -0.576 OA
ENDBRANCH   5   8
ENDBRANCH   1   2
BRANCH   1  11
ATOM     11  O   UNL     1       7.277  -5.508  22.248  0.00  0.00    -0.385 OA
ATOM     12  H   UNL     1       7.213  -6.355  22.723  0.00  0.00    +0.210 HD
ENDBRANCH   1  11
BRANCH   1  13
ATOM     13  CA  UNL     1       7.343  -3.108  22.678  0.00  0.00    +0.131 C 
BRANCH  13  14
ATOM     14  N   UNL     1       7.658  -2.126  23.746  0.00  0.00    -0.305 N 
ATOM     15  H   UNL     1       7.051  -2.167  24.563  0.00  0.00    +0.149 HD
ATOM     16  C   UNL     1       8.902  -1.551  23.932  0.00  0.00    +0.246 C 
ATOM     17  O   UNL     1       9.871  -1.826  23.221  0.00  0.00    -0.273 OA
BRANCH  16  18
ATOM     18  C   UNL     1       9.003  -0.495  25.033  0.00  0.00    +0.256 C 
ATOM     19 CL   UNL     1      10.602   0.267  24.990  0.00  0.00    -0.094 Cl
ATOM     20 CL   UNL     1       8.716  -1.267  26.612  0.00  0.00    -0.094 Cl
ENDBRANCH  16  18
ENDBRANCH  13  14
BRANCH  13  21
ATOM     21  C   UNL     1       5.846  -3.029  22.297  0.00  0.00    +0.181 C 
BRANCH  21  22
ATOM     22  O   UNL     1       5.558  -3.690  21.073  0.00  0.00    -0.393 OA
ATOM     23  H   UNL     1       5.214  -4.572  21.299  0.00  0.00    +0.209 HD
ENDBRANCH  21  22
ENDBRANCH  13  21
ENDBRANCH   1  13
TORSDOF 8
ENDMDL
MODEL 5
REMARK VINA RESULT:      -6.0      3.949      7.347
REMARK  Name = 
REMARK  8 active torsions:
REMARK  status: ('A' for Active; 'I' for Inactive)
REMARK    1  A    between atoms: O_1  and  C_2
REMARK    2  A    between atoms: C_2  and  CA_3
REMARK    3  A    between atoms: CA_3  and  N_5
REMARK    4  A    between atoms: CA_3  and  C_11
REMARK    5  A    between atoms: C_6  and  C_8
REMARK    6  A    between atoms: C_11  and  O_13
REMARK    7  A    between atoms: C_11  and  C_14
REMARK    8  A    between atoms: C_17  and  N_20
REMARK                            x       y       z     vdW  Elec       q    Type
REMARK                         _______ _______ _______ _____ _____    ______ ____
ROOT
ATOM      1  C   UNL     1      10.363   2.065  22.483  0.00  0.00    +0.167 C 
ENDROOT
BRANCH   1   2
ATOM      2  C   UNL     1      10.116   0.692  23.086  0.00  0.00    -0.017 A 
ATOM      3  C   UNL     1      10.137  -0.491  22.328  0.00  0.00    +0.013 A 
ATOM      4  C   UNL     1       9.882  -1.732  22.929  0.00  0.00    +0.084 A 
ATOM      5  C   UNL     1       9.574  -1.793  24.296  0.00  0.00    +0.273 A 
ATOM      6  C   UNL     1       9.548  -0.628  25.064  0.00  0.00    +0.084 A 
ATOM      7  C   UNL     1       9.840   0.597  24.464  0.00  0.00    +0.013 A 
BRANCH   5   8
ATOM      8  N   UNL     1       9.264  -3.081  24.927  0.00  0.00    +0.080 N 
ATOM      9  O   UNL     1       8.526  -3.072  25.922  0.00  0.00    +0.041 OA
ATOM     10  O   UNL     1       9.740  -4.107  24.416  0.00  0.00    -0.576 OA
ENDBRANCH   5   8
ENDBRANCH   1   2
BRANCH   1  11
ATOM     11  O   UNL     1       9.429   2.317  21.413  0.00  0.00    -0.385 OA
ATOM     12  H   UNL     1       9.949   2.409  20.596  0.00  0.00    +0.210 HD
ENDBRANCH   1  11
BRANCH   1  13
ATOM     13  CA  UNL     1      10.355   3.306  23.441  0.00  0.00    +0.131 C 
BRANCH  13  14
ATOM     14  N   UNL     1       9.169   4.134  23.104  0.00  0.00    -0.305 N 
ATOM     15  H   UNL     1       8.937   4.173  22.113  0.00  0.00    +0.149 HD
ATOM     16  C   UNL     1       8.144   4.420  23.988  0.00  0.00    +0.246 C 
ATOM     17  O   UNL     1       8.127   3.990  25.143  0.00  0.00    -0.273 OA
BRANCH  16  18
ATOM     18  C   UNL     1       7.054   5.364  23.478  0.00  0.00    +0.256 C 
ATOM     19 CL   UNL     1       5.649   4.426  22.945  0.00  0.00    -0.094 Cl
ATOM     20 CL   UNL     1       7.706   6.339  22.137  0.00  0.00    -0.094 Cl
ENDBRANCH  16  18
ENDBRANCH  13  14
BRANCH  13  21
ATOM     21  C   UNL     1      11.648   4.147  23.332  0.00  0.00    +0.181 C 
BRANCH  21  22
ATOM     22  O   UNL     1      11.404   5.465  22.859  0.00  0.00    -0.393 OA
ATOM     23  H   UNL     1      11.133   5.998  23.627  0.00  0.00    +0.209 HD
ENDBRANCH  21  22
ENDBRANCH  13  21
ENDBRANCH   1  13
TORSDOF 8
ENDMDL
MODEL 6
REMARK VINA RESULT:      -5.9      2.490      3.686
REMARK  Name = 
REMARK  8 active torsions:
REMARK  status: ('A' for Active; 'I' for Inactive)
REMARK    1  A    between atoms: O_1  and  C_2
REMARK    2  A    between atoms: C_2  and  CA_3
REMARK    3  A    between atoms: CA_3  and  N_5
REMARK    4  A    between atoms: CA_3  and  C_11
REMARK    5  A    between atoms: C_6  and  C_8
REMARK    6  A    between atoms: C_11  and  O_13
REMARK    7  A    between atoms: C_11  and  C_14
REMARK    8  A    between atoms: C_17  and  N_20
REMARK                            x       y       z     vdW  Elec       q    Type
REMARK                         _______ _______ _______ _____ _____    ______ ____
ROOT
ATOM      1  C   UNL     1       9.215  -4.595  25.565  0.00  0.00    +0.167 C 
ENDROOT
BRANCH   1   2
ATOM      2  C   UNL     1       9.231  -3.100  25.295  0.00  0.00    -0.017 A 
ATOM      3  C   UNL     1       9.780  -2.539  24.130  0.00  0.00    +0.013 A 
ATOM      4  C   UNL     1       9.788  -1.150  23.938  0.00  0.00    +0.084 A 
ATOM      5  C   UNL     1       9.270  -0.307  24.932  0.00  0.00    +0.273 A 
ATOM      6  C   UNL     1       8.721  -0.847  26.097  0.00  0.00    +0.084 A 
ATOM      7  C   UNL     1       8.684  -2.232  26.261  0.00  0.00    +0.013 A 
BRANCH   5   8
ATOM      8  N   UNL     1       9.311   1.150  24.762  0.00  0.00    +0.080 N 
ATOM      9  O   UNL     1       8.349   1.806  25.183  0.00  0.00    +0.041 OA
ATOM     10  O   UNL     1      10.316   1.644  24.226  0.00  0.00    -0.576 OA
ENDBRANCH   5   8
ENDBRANCH   1   2
BRANCH   1  11
ATOM     11  O   UNL     1       9.843  -4.882  26.832  0.00  0.00    -0.385 OA
ATOM     12  H   UNL     1      10.636  -4.322  26.890  0.00  0.00    +0.210 HD
ENDBRANCH   1  11
BRANCH   1  13
ATOM     13  CA  UNL     1       7.836  -5.340  25.524  0.00  0.00    +0.131 C 
BRANCH  13  14
ATOM     14  N   UNL     1       7.057  -4.794  24.384  0.00  0.00    -0.305 N 
ATOM     15  H   UNL     1       6.640  -3.879  24.545  0.00  0.00    +0.149 HD
ATOM     16  C   UNL     1       7.252  -5.158  23.064  0.00  0.00    +0.246 C 
ATOM     17  O   UNL     1       8.115  -5.970  22.721  0.00  0.00    -0.273 OA
BRANCH  16  18
ATOM     18  C   UNL     1       6.288  -4.550  22.044  0.00  0.00    +0.256 C 
ATOM     19 CL   UNL     1       4.729  -4.214  22.817  0.00  0.00    -0.094 Cl
ATOM     20 CL   UNL     1       6.085  -5.682  20.684  0.00  0.00    -0.094 Cl
ENDBRANCH  16  18
ENDBRANCH  13  14
BRANCH  13  21
ATOM     21  C   UNL     1       7.041  -5.188  26.842  0.00  0.00    +0.181 C 
BRANCH  21  22
ATOM     22  O   UNL     1       7.483  -6.082  27.853  0.00  0.00    -0.393 OA
ATOM     23  H   UNL     1       7.283  -6.983  27.546  0.00  0.00    +0.209 HD
ENDBRANCH  21  22
ENDBRANCH  13  21
ENDBRANCH   1  13
TORSDOF 8
ENDMDL
MODEL 7
REMARK VINA RESULT:      -5.7      2.543      3.251
REMARK  Name = 
REMARK  8 active torsions:
REMARK  status: ('A' for Active; 'I' for Inactive)
REMARK    1  A    between atoms: O_1  and  C_2
REMARK    2  A    between atoms: C_2  and  CA_3
REMARK    3  A    between atoms: CA_3  and  N_5
REMARK    4  A    between atoms: CA_3  and  C_11
REMARK    5  A    between atoms: C_6  and  C_8
REMARK    6  A    between atoms: C_11  and  O_13
REMARK    7  A    between atoms: C_11  and  C_14
REMARK    8  A    between atoms: C_17  and  N_20
REMARK                            x       y       z     vdW  Elec       q    Type
REMARK                         _______ _______ _______ _____ _____    ______ ____
ROOT
ATOM      1  C   UNL     1      10.027  -0.104  24.853  0.00  0.00    +0.167 C 
ENDROOT
BRANCH   1   2
ATOM      2  C   UNL     1       9.886   1.356  24.456  0.00  0.00    -0.017 A 
ATOM      3  C   UNL     1      10.868   2.051  23.732  0.00  0.00    +0.013 A 
ATOM      4  C   UNL     1      10.698   3.405  23.408  0.00  0.00    +0.084 A 
ATOM      5  C   UNL     1       9.548   4.083  23.837  0.00  0.00    +0.273 A 
ATOM      6  C   UNL     1       8.561   3.409  24.559  0.00  0.00    +0.084 A 
ATOM      7  C   UNL     1       8.723   2.053  24.842  0.00  0.00    +0.013 A 
BRANCH   5   8
ATOM      8  N   UNL     1       9.377   5.510  23.541  0.00  0.00    +0.080 N 
ATOM      9  O   UNL     1       8.303   5.870  23.038  0.00  0.00    +0.041 OA
ATOM     10  O   UNL     1      10.308   6.279  23.831  0.00  0.00    -0.576 OA
ENDBRANCH   5   8
ENDBRANCH   1   2
BRANCH   1  11
ATOM     11  O   UNL     1       9.433  -0.331  26.148  0.00  0.00    -0.385 OA
ATOM     12  H   UNL     1       9.575  -1.268  26.366  0.00  0.00    +0.210 HD
ENDBRANCH   1  11
BRANCH   1  13
ATOM     13  CA  UNL     1       9.483  -1.195  23.867  0.00  0.00    +0.131 C 
BRANCH  13  14
ATOM     14  N   UNL     1       9.202  -2.421  24.656  0.00  0.00    -0.305 N 
ATOM     15  H   UNL     1       9.510  -2.391  25.626  0.00  0.00    +0.149 HD
ATOM     16  C   UNL     1       8.199  -3.325  24.357  0.00  0.00    +0.246 C 
ATOM     17  O   UNL     1       7.434  -3.173  23.402  0.00  0.00    -0.273 OA
BRANCH  16  18
ATOM     18  C   UNL     1       8.127  -4.573  25.238  0.00  0.00    +0.256 C 
ATOM     19 CL   UNL     1       7.406  -4.162  26.804  0.00  0.00    -0.094 Cl
ATOM     20 CL   UNL     1       9.767  -5.231  25.454  0.00  0.00    -0.094 Cl
ENDBRANCH  16  18
ENDBRANCH  13  14
BRANCH  13  21
ATOM     21  C   UNL     1      10.474  -1.506  22.721  0.00  0.00    +0.181 C 
BRANCH  21  22
ATOM     22  O   UNL     1       9.832  -1.614  21.458  0.00  0.00    -0.393 OA
ATOM     23  H   UNL     1       9.950  -0.761  21.004  0.00  0.00    +0.209 HD
ENDBRANCH  21  22
ENDBRANCH  13  21
ENDBRANCH   1  13
TORSDOF 8
ENDMDL
MODEL 8
REMARK VINA RESULT:      -5.6      1.938      2.808
REMARK  Name = 
REMARK  8 active torsions:
REMARK  status: ('A' for Active; 'I' for Inactive)
REMARK    1  A    between atoms: O_1  and  C_2
REMARK    2  A    between atoms: C_2  and  CA_3
REMARK    3  A    between atoms: CA_3  and  N_5
REMARK    4  A    between atoms: CA_3  and  C_11
REMARK    5  A    between atoms: C_6  and  C_8
REMARK    6  A    between atoms: C_11  and  O_13
REMARK    7  A    between atoms: C_11  and  C_14
REMARK    8  A    between atoms: C_17  and  N_20
REMARK                            x       y       z     vdW  Elec       q    Type
REMARK                         _______ _______ _______ _____ _____    ______ ____
ROOT
ATOM      1  C   UNL     1       8.531  -2.161  25.756  0.00  0.00    +0.167 C 
ENDROOT
BRANCH   1   2
ATOM      2  C   UNL     1       8.888  -0.804  25.174  0.00  0.00    -0.017 A 
ATOM      3  C   UNL     1      10.212  -0.399  24.937  0.00  0.00    +0.013 A 
ATOM      4  C   UNL     1      10.491   0.874  24.417  0.00  0.00    +0.084 A 
ATOM      5  C   UNL     1       9.438   1.765  24.158  0.00  0.00    +0.273 A 
ATOM      6  C   UNL     1       8.117   1.379  24.388  0.00  0.00    +0.084 A 
ATOM      7  C   UNL     1       7.849   0.097  24.870  0.00  0.00    +0.013 A 
BRANCH   5   8
ATOM      8  N   UNL     1       9.719   3.114  23.653  0.00  0.00    +0.080 N 
ATOM      9  O   UNL     1      10.905   3.430  23.483  0.00  0.00    +0.041 OA
ATOM     10  O   UNL     1       8.753   3.853  23.404  0.00  0.00    -0.576 OA
ENDBRANCH   5   8
ENDBRANCH   1   2
BRANCH   1  11
ATOM     11  O   UNL     1       7.115  -2.234  26.024  0.00  0.00    -0.385 OA
ATOM     12  H   UNL     1       6.658  -1.899  25.234  0.00  0.00    +0.210 HD
ENDBRANCH   1  11
BRANCH   1  13
ATOM     13  CA  UNL     1       8.941  -3.443  24.952  0.00  0.00    +0.131 C 
BRANCH  13  14
ATOM     14  N   UNL     1       7.819  -3.791  24.044  0.00  0.00    -0.305 N 
ATOM     15  H   UNL     1       6.956  -4.067  24.511  0.00  0.00    +0.149 HD
ATOM     16  C   UNL     1       7.695  -3.328  22.747  0.00  0.00    +0.246 C 
ATOM     17  O   UNL     1       8.516  -2.563  22.236  0.00  0.00    -0.273 OA
BRANCH  16  18
ATOM     18  C   UNL     1       6.513  -3.871  21.943  0.00  0.00    +0.256 C 
ATOM     19 CL   UNL     1       5.018  -3.691  22.877  0.00  0.00    -0.094 Cl
ATOM     20 CL   UNL     1       6.809  -5.584  21.554  0.00  0.00    -0.094 Cl
ENDBRANCH  16  18
ENDBRANCH  13  14
BRANCH  13  21
ATOM     21  C   UNL     1       9.279  -4.638  25.874  0.00  0.00    +0.181 C 
BRANCH  21  22
ATOM     22  O   UNL     1      10.279  -5.486  25.324  0.00  0.00    -0.393 OA
ATOM     23  H   UNL     1       9.841  -6.057  24.669  0.00  0.00    +0.209 HD
ENDBRANCH  21  22
ENDBRANCH  13  21
ENDBRANCH   1  13
TORSDOF 8
ENDMDL
MODEL 9
REMARK VINA RESULT:      -5.6      2.707      3.860
REMARK  Name = 
REMARK  8 active torsions:
REMARK  status: ('A' for Active; 'I' for Inactive)
REMARK    1  A    between atoms: O_1  and  C_2
REMARK    2  A    between atoms: C_2  and  CA_3
REMARK    3  A    between atoms: CA_3  and  N_5
REMARK    4  A    between atoms: CA_3  and  C_11
REMARK    5  A    between atoms: C_6  and  C_8
REMARK    6  A    between atoms: C_11  and  O_13
REMARK    7  A    between atoms: C_11  and  C_14
REMARK    8  A    between atoms: C_17  and  N_20
REMARK                            x       y       z     vdW  Elec       q    Type
REMARK                         _______ _______ _______ _____ _____    ______ ____
ROOT
ATOM      1  C   UNL     1       7.932  -4.505  23.587  0.00  0.00    +0.167 C 
ENDROOT
BRANCH   1   2
ATOM      2  C   UNL     1       8.464  -3.092  23.410  0.00  0.00    -0.017 A 
ATOM      3  C   UNL     1       8.136  -2.284  22.308  0.00  0.00    +0.013 A 
ATOM      4  C   UNL     1       8.670  -0.994  22.181  0.00  0.00    +0.084 A 
ATOM      5  C   UNL     1       9.564  -0.513  23.149  0.00  0.00    +0.273 A 
ATOM      6  C   UNL     1       9.902  -1.302  24.250  0.00  0.00    +0.084 A 
ATOM      7  C   UNL     1       9.335  -2.570  24.386  0.00  0.00    +0.013 A 
BRANCH   5   8
ATOM      8  N   UNL     1      10.162   0.820  23.006  0.00  0.00    +0.080 N 
ATOM      9  O   UNL     1      10.715   1.313  23.999  0.00  0.00    +0.041 OA
ATOM     10  O   UNL     1      10.101   1.367  21.893  0.00  0.00    -0.576 OA
ENDBRANCH   5   8
ENDBRANCH   1   2
BRANCH   1  11
ATOM     11  O   UNL     1       7.762  -4.804  24.988  0.00  0.00    -0.385 OA
ATOM     12  H   UNL     1       7.833  -5.769  25.084  0.00  0.00    +0.210 HD
ENDBRANCH   1  11
BRANCH   1  13
ATOM     13  CA  UNL     1       6.611  -4.898  22.840  0.00  0.00    +0.131 C 
BRANCH  13  14
ATOM     14  N   UNL     1       5.692  -5.511  23.832  0.00  0.00    -0.305 N 
ATOM     15  H   UNL     1       6.064  -5.583  24.778  0.00  0.00    +0.149 HD
ATOM     16  C   UNL     1       4.314  -5.530  23.709  0.00  0.00    +0.246 C 
ATOM     17  O   UNL     1       3.729  -5.015  22.754  0.00  0.00    -0.273 OA
BRANCH  16  18
ATOM     18  C   UNL     1       3.547  -6.288  24.793  0.00  0.00    +0.256 C 
ATOM     19 CL   UNL     1       4.677  -6.887  26.020  0.00  0.00    -0.094 Cl
ATOM     20 CL   UNL     1       2.659  -7.638  24.043  0.00  0.00    -0.094 Cl
ENDBRANCH  16  18
ENDBRANCH  13  14
BRANCH  13  21
ATOM     21  C   UNL     1       6.862  -5.870  21.664  0.00  0.00    +0.181 C 
BRANCH  21  22
ATOM     22  O   UNL     1       5.962  -5.665  20.584  0.00  0.00    -0.393 OA
ATOM     23  H   UNL     1       5.461  -4.854  20.779  0.00  0.00    +0.209 HD
ENDBRANCH  21  22
ENDBRANCH  13  21
ENDBRANCH   1  13
TORSDOF 8
ENDMDL
