MODEL 1
REMARK VINA RESULT:      -8.2      0.000      0.000
REMARK  Name = 
REMARK  6 active torsions:
REMARK  status: ('A' for Active; 'I' for Inactive)
REMARK    1  A    between atoms: C_2  and  C_8
REMARK    2  A    between atoms: C_8  and  C_11
REMARK    3  A    between atoms: C_11  and  N_12
REMARK    4  A    between atoms: C_20  and  C_21
REMARK    5  A    between atoms: C_21  and  C_22
REMARK    6  A    between atoms: C_27  and  N_28
REMARK                            x       y       z     vdW  Elec       q    Type
REMARK                         _______ _______ _______ _____ _____    ______ ____
ROOT
ATOM      1  N   UNL     1       6.689   1.102  23.307  0.00  0.00    -0.322 N 
ATOM      2  H   UNL     1       6.075   0.306  23.478  0.00  0.00    +0.148 HD
ATOM      3  C   UNL     1       8.010   0.825  23.687  0.00  0.00    +0.148 A 
ATOM      4  C   UNL     1       8.516  -0.483  23.856  0.00  0.00    +0.149 A 
ATOM      5  N   UNL     1       7.935  -1.738  23.748  0.00  0.00    -0.210 NA
ATOM      6  C   UNL     1       8.916  -2.569  24.065  0.00  0.00    +0.201 A 
ATOM      7  O   UNL     1      10.104  -1.953  24.366  0.00  0.00    -0.439 OA
ATOM      8  C   UNL     1       9.837  -0.623  24.247  0.00  0.00    +0.160 A 
ATOM      9  C   UNL     1      10.713   0.414  24.498  0.00  0.00    +0.068 A 
ATOM     10  C   UNL     1      10.140   1.656  24.317  0.00  0.00    +0.116 A 
ATOM     11  N   UNL     1       8.861   1.871  23.931  0.00  0.00    -0.238 NA
ENDROOT
BRANCH   1  12
ATOM     12  C   UNL     1       6.213   2.405  23.800  0.00  0.00    +0.180 C 
BRANCH  12  13
ATOM     13  C   UNL     1       5.915   3.424  22.691  0.00  0.00    +0.279 C 
ATOM     14  F   UNL     1       6.916   3.398  21.767  0.00  0.00    -0.202 F 
ATOM     15  F   UNL     1       4.781   3.051  22.039  0.00  0.00    -0.202 F 
BRANCH  13  16
ATOM     16  C   UNL     1       5.793   4.880  23.252  0.00  0.00    +0.125 C 
ATOM     17  N   UNL     1       5.894   6.019  22.304  0.00  0.00    -0.308 NA
ATOM     18  H   UNL     1       5.236   5.917  21.531  0.00  0.00    +0.122 HD
ATOM     19  C   UNL     1       7.244   6.215  21.779  0.00  0.00    +0.081 C 
ATOM     20  C   UNL     1       8.280   6.406  22.886  0.00  0.00    +0.015 C 
ATOM     21  C   UNL     1       8.208   5.307  23.939  0.00  0.00    +0.003 C 
ATOM     22  C   UNL     1       6.772   5.124  24.416  0.00  0.00    +0.025 C 
ENDBRANCH  13  16
ENDBRANCH  12  13
ENDBRANCH   1  12
BRANCH   6  23
ATOM     23  C   UNL     1       8.893  -4.049  24.304  0.00  0.00    +0.133 C 
BRANCH  23  24
ATOM     24  C   UNL     1       7.756  -4.660  25.116  0.00  0.00    -0.013 A 
ATOM     25  C   UNL     1       6.577  -5.176  24.500  0.00  0.00    +0.071 A 
ATOM     26  C   UNL     1       5.578  -5.768  25.310  0.00  0.00    +0.028 A 
ATOM     27  C   UNL     1       5.718  -5.844  26.694  0.00  0.00    +0.002 A 
ATOM     28  C   UNL     1       6.852  -5.322  27.299  0.00  0.00    +0.000 A 
ATOM     29  C   UNL     1       7.854  -4.734  26.523  0.00  0.00    +0.006 A 
BRANCH  25  30
ATOM     30  N   UNL     1       6.342  -5.129  23.087  0.00  0.00    -0.220 N 
ATOM     31  N   UNL     1       6.717  -6.119  22.239  0.00  0.00    -0.154 NA
ATOM     32  C   UNL     1       6.315  -5.667  21.053  0.00  0.00    +0.245 A 
ATOM     33  N   UNL     1       5.713  -4.451  21.067  0.00  0.00    -0.222 NA
ATOM     34  C   UNL     1       5.743  -4.134  22.341  0.00  0.00    +0.225 A 
ENDBRANCH  25  30
ENDBRANCH  23  24
ENDBRANCH   6  23
TORSDOF 6
ENDMDL
MODEL 2
REMARK VINA RESULT:      -8.1      1.647      2.788
REMARK  Name = 
REMARK  6 active torsions:
REMARK  status: ('A' for Active; 'I' for Inactive)
REMARK    1  A    between atoms: C_2  and  C_8
REMARK    2  A    between atoms: C_8  and  C_11
REMARK    3  A    between atoms: C_11  and  N_12
REMARK    4  A    between atoms: C_20  and  C_21
REMARK    5  A    between atoms: C_21  and  C_22
REMARK    6  A    between atoms: C_27  and  N_28
REMARK                            x       y       z     vdW  Elec       q    Type
REMARK                         _______ _______ _______ _____ _____    ______ ____
ROOT
ATOM      1  N   UNL     1       6.664   1.545  23.184  0.00  0.00    -0.322 N 
ATOM      2  H   UNL     1       5.861   0.953  22.975  0.00  0.00    +0.148 HD
ATOM      3  C   UNL     1       7.784   0.785  23.552  0.00  0.00    +0.148 A 
ATOM      4  C   UNL     1       7.929  -0.587  23.249  0.00  0.00    +0.149 A 
ATOM      5  N   UNL     1       7.106  -1.502  22.610  0.00  0.00    -0.210 NA
ATOM      6  C   UNL     1       7.785  -2.637  22.673  0.00  0.00    +0.201 A 
ATOM      7  O   UNL     1       9.001  -2.534  23.300  0.00  0.00    -0.439 OA
ATOM      8  C   UNL     1       9.078  -1.229  23.680  0.00  0.00    +0.160 A 
ATOM      9  C   UNL     1      10.103  -0.642  24.394  0.00  0.00    +0.068 A 
ATOM     10  C   UNL     1       9.882   0.694  24.654  0.00  0.00    +0.116 A 
ATOM     11  N   UNL     1       8.788   1.388  24.261  0.00  0.00    -0.238 NA
ENDROOT
BRANCH   1  12
ATOM     12  C   UNL     1       6.415   2.676  24.096  0.00  0.00    +0.180 C 
BRANCH  12  13
ATOM     13  C   UNL     1       6.193   4.017  23.383  0.00  0.00    +0.279 C 
ATOM     14  F   UNL     1       5.032   3.968  22.670  0.00  0.00    -0.202 F 
ATOM     15  F   UNL     1       6.030   4.993  24.315  0.00  0.00    -0.202 F 
BRANCH  13  16
ATOM     16  C   UNL     1       7.365   4.359  22.403  0.00  0.00    +0.125 C 
ATOM     17  N   UNL     1       8.759   4.085  22.836  0.00  0.00    -0.308 NA
ATOM     18  H   UNL     1       8.869   3.118  23.141  0.00  0.00    +0.122 HD
ATOM     19  C   UNL     1       9.226   4.988  23.886  0.00  0.00    +0.081 C 
ATOM     20  C   UNL     1       9.119   6.458  23.484  0.00  0.00    +0.015 C 
ATOM     21  C   UNL     1       7.729   6.816  22.969  0.00  0.00    +0.003 C 
ATOM     22  C   UNL     1       7.284   5.816  21.909  0.00  0.00    +0.025 C 
ENDBRANCH  13  16
ENDBRANCH  12  13
ENDBRANCH   1  12
BRANCH   6  23
ATOM     23  C   UNL     1       7.373  -4.034  22.317  0.00  0.00    +0.133 C 
BRANCH  23  24
ATOM     24  C   UNL     1       6.312  -4.739  23.156  0.00  0.00    -0.013 A 
ATOM     25  C   UNL     1       6.567  -5.171  24.492  0.00  0.00    +0.071 A 
ATOM     26  C   UNL     1       5.525  -5.782  25.231  0.00  0.00    +0.028 A 
ATOM     27  C   UNL     1       4.263  -5.980  24.674  0.00  0.00    +0.002 A 
ATOM     28  C   UNL     1       4.018  -5.583  23.368  0.00  0.00    +0.000 A 
ATOM     29  C   UNL     1       5.028  -4.977  22.619  0.00  0.00    +0.006 A 
BRANCH  25  30
ATOM     30  N   UNL     1       7.837  -5.019  25.140  0.00  0.00    -0.220 N 
ATOM     31  N   UNL     1       8.984  -5.560  24.661  0.00  0.00    -0.154 NA
ATOM     32  C   UNL     1       9.893  -5.180  25.557  0.00  0.00    +0.245 A 
ATOM     33  N   UNL     1       9.418  -4.438  26.588  0.00  0.00    -0.222 NA
ATOM     34  C   UNL     1       8.137  -4.352  26.311  0.00  0.00    +0.225 A 
ENDBRANCH  25  30
ENDBRANCH  23  24
ENDBRANCH   6  23
TORSDOF 6
ENDMDL
MODEL 3
REMARK VINA RESULT:      -8.0      1.354      2.581
REMARK  Name = 
REMARK  6 active torsions:
REMARK  status: ('A' for Active; 'I' for Inactive)
REMARK    1  A    between atoms: C_2  and  C_8
REMARK    2  A    between atoms: C_8  and  C_11
REMARK    3  A    between atoms: C_11  and  N_12
REMARK    4  A    between atoms: C_20  and  C_21
REMARK    5  A    between atoms: C_21  and  C_22
REMARK    6  A    between atoms: C_27  and  N_28
REMARK                            x       y       z     vdW  Elec       q    Type
REMARK                         _______ _______ _______ _____ _____    ______ ____
ROOT
ATOM      1  N   UNL     1       6.549   1.109  23.134  0.00  0.00    -0.322 N 
ATOM      2  H   UNL     1       5.904   0.324  23.205  0.00  0.00    +0.148 HD
ATOM      3  C   UNL     1       7.826   0.773  23.607  0.00  0.00    +0.148 A 
ATOM      4  C   UNL     1       8.283  -0.558  23.740  0.00  0.00    +0.149 A 
ATOM      5  N   UNL     1       7.683  -1.786  23.509  0.00  0.00    -0.210 NA
ATOM      6  C   UNL     1       8.612  -2.662  23.858  0.00  0.00    +0.201 A 
ATOM      7  O   UNL     1       9.785  -2.100  24.294  0.00  0.00    -0.439 OA
ATOM      8  C   UNL     1       9.561  -0.759  24.232  0.00  0.00    +0.160 A 
ATOM      9  C   UNL     1      10.438   0.237  24.616  0.00  0.00    +0.068 A 
ATOM     10  C   UNL     1       9.914   1.503  24.462  0.00  0.00    +0.116 A 
ATOM     11  N   UNL     1       8.677   1.777  23.983  0.00  0.00    -0.238 NA
ENDROOT
BRANCH   1  12
ATOM     12  C   UNL     1       6.065   2.396  23.663  0.00  0.00    +0.180 C 
BRANCH  12  13
ATOM     13  C   UNL     1       5.840   3.469  22.588  0.00  0.00    +0.279 C 
ATOM     14  F   UNL     1       6.866   3.439  21.691  0.00  0.00    -0.202 F 
ATOM     15  F   UNL     1       4.712   3.170  21.890  0.00  0.00    -0.202 F 
BRANCH  13  16
ATOM     16  C   UNL     1       5.761   4.906  23.205  0.00  0.00    +0.125 C 
ATOM     17  N   UNL     1       5.873   6.077  22.298  0.00  0.00    -0.308 NA
ATOM     18  H   UNL     1       5.201   6.019  21.533  0.00  0.00    +0.122 HD
ATOM     19  C   UNL     1       7.219   6.263  21.758  0.00  0.00    +0.081 C 
ATOM     20  C   UNL     1       8.276   6.389  22.854  0.00  0.00    +0.015 C 
ATOM     21  C   UNL     1       8.196   5.253  23.867  0.00  0.00    +0.003 C 
ATOM     22  C   UNL     1       6.763   5.084  24.360  0.00  0.00    +0.025 C 
ENDBRANCH  13  16
ENDBRANCH  12  13
ENDBRANCH   1  12
BRANCH   6  23
ATOM     23  C   UNL     1       8.532  -4.153  24.005  0.00  0.00    +0.133 C 
BRANCH  23  24
ATOM     24  C   UNL     1       7.320  -4.897  23.457  0.00  0.00    -0.013 A 
ATOM     25  C   UNL     1       6.236  -5.300  24.293  0.00  0.00    +0.071 A 
ATOM     26  C   UNL     1       5.120  -5.949  23.713  0.00  0.00    +0.028 A 
ATOM     27  C   UNL     1       5.067  -6.214  22.345  0.00  0.00    +0.002 A 
ATOM     28  C   UNL     1       6.128  -5.845  21.532  0.00  0.00    +0.000 A 
ATOM     29  C   UNL     1       7.240  -5.201  22.080  0.00  0.00    +0.006 A 
BRANCH  25  30
ATOM     30  N   UNL     1       6.211  -5.080  25.710  0.00  0.00    -0.220 N 
ATOM     31  N   UNL     1       6.596  -6.015  26.613  0.00  0.00    -0.154 NA
ATOM     32  C   UNL     1       6.411  -5.400  27.779  0.00  0.00    +0.245 A 
ATOM     33  N   UNL     1       5.925  -4.137  27.701  0.00  0.00    -0.222 NA
ATOM     34  C   UNL     1       5.806  -3.958  26.405  0.00  0.00    +0.225 A 
ENDBRANCH  25  30
ENDBRANCH  23  24
ENDBRANCH   6  23
TORSDOF 6
ENDMDL
MODEL 4
REMARK VINA RESULT:      -8.0      2.527      3.495
REMARK  Name = 
REMARK  6 active torsions:
REMARK  status: ('A' for Active; 'I' for Inactive)
REMARK    1  A    between atoms: C_2  and  C_8
REMARK    2  A    between atoms: C_8  and  C_11
REMARK    3  A    between atoms: C_11  and  N_12
REMARK    4  A    between atoms: C_20  and  C_21
REMARK    5  A    between atoms: C_21  and  C_22
REMARK    6  A    between atoms: C_27  and  N_28
REMARK                            x       y       z     vdW  Elec       q    Type
REMARK                         _______ _______ _______ _____ _____    ______ ____
ROOT
ATOM      1  N   UNL     1      10.125  -1.735  23.130  0.00  0.00    -0.322 N 
ATOM      2  H   UNL     1       9.691  -2.469  22.571  0.00  0.00    +0.148 HD
ATOM      3  C   UNL     1       9.514  -1.614  24.386  0.00  0.00    +0.148 A 
ATOM      4  C   UNL     1       8.727  -2.631  24.972  0.00  0.00    +0.149 A 
ATOM      5  N   UNL     1       8.335  -3.887  24.535  0.00  0.00    -0.210 NA
ATOM      6  C   UNL     1       7.573  -4.340  25.518  0.00  0.00    +0.201 A 
ATOM      7  O   UNL     1       7.442  -3.477  26.577  0.00  0.00    -0.439 OA
ATOM      8  C   UNL     1       8.166  -2.384  26.214  0.00  0.00    +0.160 A 
ATOM      9  C   UNL     1       8.303  -1.215  26.936  0.00  0.00    +0.068 A 
ATOM     10  C   UNL     1       9.078  -0.273  26.293  0.00  0.00    +0.116 A 
ATOM     11  N   UNL     1       9.662  -0.445  25.084  0.00  0.00    -0.238 NA
ENDROOT
BRANCH   1  12
ATOM     12  C   UNL     1      10.317  -0.438  22.460  0.00  0.00    +0.180 C 
BRANCH  12  13
ATOM     13  C   UNL     1       9.115   0.018  21.622  0.00  0.00    +0.279 C 
ATOM     14  F   UNL     1       9.142  -0.602  20.409  0.00  0.00    -0.202 F 
ATOM     15  F   UNL     1       7.969  -0.385  22.233  0.00  0.00    -0.202 F 
BRANCH  13  16
ATOM     16  C   UNL     1       9.118   1.567  21.389  0.00  0.00    +0.125 C 
ATOM     17  N   UNL     1      10.299   2.351  21.832  0.00  0.00    -0.308 NA
ATOM     18  H   UNL     1      11.163   1.968  21.449  0.00  0.00    +0.122 HD
ATOM     19  C   UNL     1      10.409   2.458  23.286  0.00  0.00    +0.081 C 
ATOM     20  C   UNL     1       9.157   3.055  23.925  0.00  0.00    +0.015 C 
ATOM     21  C   UNL     1       7.885   2.344  23.478  0.00  0.00    +0.003 C 
ATOM     22  C   UNL     1       7.849   2.228  21.959  0.00  0.00    +0.025 C 
ENDBRANCH  13  16
ENDBRANCH  12  13
ENDBRANCH   1  12
BRANCH   6  23
ATOM     23  C   UNL     1       6.708  -5.564  25.589  0.00  0.00    +0.133 C 
BRANCH  23  24
ATOM     24  C   UNL     1       5.191  -5.411  25.585  0.00  0.00    -0.013 A 
ATOM     25  C   UNL     1       4.465  -5.095  24.397  0.00  0.00    +0.071 A 
ATOM     26  C   UNL     1       3.053  -5.009  24.454  0.00  0.00    +0.028 A 
ATOM     27  C   UNL     1       2.362  -5.213  25.647  0.00  0.00    +0.002 A 
ATOM     28  C   UNL     1       3.065  -5.497  26.808  0.00  0.00    +0.000 A 
ATOM     29  C   UNL     1       4.458  -5.589  26.779  0.00  0.00    +0.006 A 
BRANCH  25  30
ATOM     30  N   UNL     1       5.093  -4.857  23.131  0.00  0.00    -0.220 N 
ATOM     31  N   UNL     1       5.592  -5.848  22.352  0.00  0.00    -0.154 NA
ATOM     32  C   UNL     1       6.072  -5.189  21.299  0.00  0.00    +0.245 A 
ATOM     33  N   UNL     1       5.928  -3.841  21.340  0.00  0.00    -0.222 NA
ATOM     34  C   UNL     1       5.319  -3.656  22.489  0.00  0.00    +0.225 A 
ENDBRANCH  25  30
ENDBRANCH  23  24
ENDBRANCH   6  23
TORSDOF 6
ENDMDL
MODEL 5
REMARK VINA RESULT:      -8.0      2.158      2.909
REMARK  Name = 
REMARK  6 active torsions:
REMARK  status: ('A' for Active; 'I' for Inactive)
REMARK    1  A    between atoms: C_2  and  C_8
REMARK    2  A    between atoms: C_8  and  C_11
REMARK    3  A    between atoms: C_11  and  N_12
REMARK    4  A    between atoms: C_20  and  C_21
REMARK    5  A    between atoms: C_21  and  C_22
REMARK    6  A    between atoms: C_27  and  N_28
REMARK                            x       y       z     vdW  Elec       q    Type
REMARK                         _______ _______ _______ _____ _____    ______ ____
ROOT
ATOM      1  N   UNL     1       6.070   0.974  23.467  0.00  0.00    -0.322 N 
ATOM      2  H   UNL     1       5.853   0.411  24.288  0.00  0.00    +0.148 HD
ATOM      3  C   UNL     1       7.283   0.585  22.880  0.00  0.00    +0.148 A 
ATOM      4  C   UNL     1       7.892  -0.671  23.106  0.00  0.00    +0.149 A 
ATOM      5  N   UNL     1       7.546  -1.755  23.898  0.00  0.00    -0.210 NA
ATOM      6  C   UNL     1       8.538  -2.612  23.711  0.00  0.00    +0.201 A 
ATOM      7  O   UNL     1       9.508  -2.174  22.846  0.00  0.00    -0.439 OA
ATOM      8  C   UNL     1       9.098  -0.929  22.477  0.00  0.00    +0.160 A 
ATOM      9  C   UNL     1       9.772  -0.057  21.646  0.00  0.00    +0.068 A 
ATOM     10  C   UNL     1       9.116   1.146  21.484  0.00  0.00    +0.116 A 
ATOM     11  N   UNL     1       7.934   1.467  22.060  0.00  0.00    -0.238 NA
ENDROOT
BRANCH   1  12
ATOM     12  C   UNL     1       5.957   2.433  23.632  0.00  0.00    +0.180 C 
BRANCH  12  13
ATOM     13  C   UNL     1       5.804   2.888  25.090  0.00  0.00    +0.279 C 
ATOM     14  F   UNL     1       5.292   4.151  25.122  0.00  0.00    -0.202 F 
ATOM     15  F   UNL     1       4.894   2.090  25.710  0.00  0.00    -0.202 F 
BRANCH  13  16
ATOM     16  C   UNL     1       7.172   2.885  25.850  0.00  0.00    +0.125 C 
ATOM     17  N   UNL     1       7.816   1.582  26.153  0.00  0.00    -0.308 NA
ATOM     18  H   UNL     1       7.916   1.014  25.312  0.00  0.00    +0.122 HD
ATOM     19  C   UNL     1       7.116   0.817  27.184  0.00  0.00    +0.081 C 
ATOM     20  C   UNL     1       6.957   1.599  28.486  0.00  0.00    +0.015 C 
ATOM     21  C   UNL     1       6.354   2.981  28.260  0.00  0.00    +0.003 C 
ATOM     22  C   UNL     1       7.100   3.710  27.149  0.00  0.00    +0.025 C 
ENDBRANCH  13  16
ENDBRANCH  12  13
ENDBRANCH   1  12
BRANCH   6  23
ATOM     23  C   UNL     1       8.850  -3.901  24.411  0.00  0.00    +0.133 C 
BRANCH  23  24
ATOM     24  C   UNL     1       7.761  -4.596  25.221  0.00  0.00    -0.013 A 
ATOM     25  C   UNL     1       6.637  -5.221  24.602  0.00  0.00    +0.071 A 
ATOM     26  C   UNL     1       5.685  -5.886  25.411  0.00  0.00    +0.028 A 
ATOM     27  C   UNL     1       5.816  -5.930  26.797  0.00  0.00    +0.002 A 
ATOM     28  C   UNL     1       6.894  -5.303  27.405  0.00  0.00    +0.000 A 
ATOM     29  C   UNL     1       7.849  -4.642  26.630  0.00  0.00    +0.006 A 
BRANCH  25  30
ATOM     30  N   UNL     1       6.415  -5.215  23.186  0.00  0.00    -0.220 N 
ATOM     31  N   UNL     1       7.018  -6.081  22.336  0.00  0.00    -0.154 NA
ATOM     32  C   UNL     1       6.536  -5.722  21.148  0.00  0.00    +0.245 A 
ATOM     33  N   UNL     1       5.670  -4.679  21.163  0.00  0.00    -0.222 NA
ATOM     34  C   UNL     1       5.611  -4.377  22.440  0.00  0.00    +0.225 A 
ENDBRANCH  25  30
ENDBRANCH  23  24
ENDBRANCH   6  23
TORSDOF 6
ENDMDL
MODEL 6
REMARK VINA RESULT:      -8.0      1.543      1.904
REMARK  Name = 
REMARK  6 active torsions:
REMARK  status: ('A' for Active; 'I' for Inactive)
REMARK    1  A    between atoms: C_2  and  C_8
REMARK    2  A    between atoms: C_8  and  C_11
REMARK    3  A    between atoms: C_11  and  N_12
REMARK    4  A    between atoms: C_20  and  C_21
REMARK    5  A    between atoms: C_21  and  C_22
REMARK    6  A    between atoms: C_27  and  N_28
REMARK                            x       y       z     vdW  Elec       q    Type
REMARK                         _______ _______ _______ _____ _____    ______ ____
ROOT
ATOM      1  N   UNL     1       7.623   0.880  24.819  0.00  0.00    -0.322 N 
ATOM      2  H   UNL     1       7.336   0.348  25.640  0.00  0.00    +0.148 HD
ATOM      3  C   UNL     1       8.475   0.133  23.992  0.00  0.00    +0.148 A 
ATOM      4  C   UNL     1       8.568  -1.276  24.037  0.00  0.00    +0.149 A 
ATOM      5  N   UNL     1       7.954  -2.235  24.829  0.00  0.00    -0.210 NA
ATOM      6  C   UNL     1       8.486  -3.375  24.414  0.00  0.00    +0.201 A 
ATOM      7  O   UNL     1       9.398  -3.237  23.400  0.00  0.00    -0.439 OA
ATOM      8  C   UNL     1       9.458  -1.896  23.176  0.00  0.00    +0.160 A 
ATOM      9  C   UNL     1      10.279  -1.251  22.272  0.00  0.00    +0.068 A 
ATOM     10  C   UNL     1      10.132   0.120  22.296  0.00  0.00    +0.116 A 
ATOM     11  N   UNL     1       9.280   0.794  23.104  0.00  0.00    -0.238 NA
ENDROOT
BRANCH   1  12
ATOM     12  C   UNL     1       8.121   2.243  25.071  0.00  0.00    +0.180 C 
BRANCH  12  13
ATOM     13  C   UNL     1       7.305   3.345  24.383  0.00  0.00    +0.279 C 
ATOM     14  F   UNL     1       6.070   2.865  24.061  0.00  0.00    -0.202 F 
ATOM     15  F   UNL     1       7.103   4.363  25.261  0.00  0.00    -0.202 F 
BRANCH  13  16
ATOM     16  C   UNL     1       7.997   3.854  23.074  0.00  0.00    +0.125 C 
ATOM     17  N   UNL     1       9.478   3.961  23.047  0.00  0.00    -0.308 NA
ATOM     18  H   UNL     1       9.918   3.083  23.321  0.00  0.00    +0.122 HD
ATOM     19  C   UNL     1       9.994   5.050  23.875  0.00  0.00    +0.081 C 
ATOM     20  C   UNL     1       9.399   6.405  23.497  0.00  0.00    +0.015 C 
ATOM     21  C   UNL     1       7.876   6.371  23.444  0.00  0.00    +0.003 C 
ATOM     22  C   UNL     1       7.401   5.193  22.601  0.00  0.00    +0.025 C 
ENDBRANCH  13  16
ENDBRANCH  12  13
ENDBRANCH   1  12
BRANCH   6  23
ATOM     23  C   UNL     1       8.372  -4.759  24.980  0.00  0.00    +0.133 C 
BRANCH  23  24
ATOM     24  C   UNL     1       7.024  -5.249  25.498  0.00  0.00    -0.013 A 
ATOM     25  C   UNL     1       5.929  -5.520  24.623  0.00  0.00    +0.071 A 
ATOM     26  C   UNL     1       4.718  -6.013  25.165  0.00  0.00    +0.028 A 
ATOM     27  C   UNL     1       4.571  -6.226  26.534  0.00  0.00    +0.002 A 
ATOM     28  C   UNL     1       5.625  -5.942  27.391  0.00  0.00    +0.000 A 
ATOM     29  C   UNL     1       6.831  -5.456  26.881  0.00  0.00    +0.006 A 
BRANCH  25  30
ATOM     30  N   UNL     1       5.987  -5.318  23.205  0.00  0.00    -0.220 N 
ATOM     31  N   UNL     1       6.527  -6.219  22.348  0.00  0.00    -0.154 NA
ATOM     32  C   UNL     1       6.373  -5.636  21.161  0.00  0.00    +0.245 A 
ATOM     33  N   UNL     1       5.780  -4.417  21.185  0.00  0.00    -0.222 NA
ATOM     34  C   UNL     1       5.550  -4.237  22.466  0.00  0.00    +0.225 A 
ENDBRANCH  25  30
ENDBRANCH  23  24
ENDBRANCH   6  23
TORSDOF 6
ENDMDL
MODEL 7
REMARK VINA RESULT:      -7.9      3.045      9.147
REMARK  Name = 
REMARK  6 active torsions:
REMARK  status: ('A' for Active; 'I' for Inactive)
REMARK    1  A    between atoms: C_2  and  C_8
REMARK    2  A    between atoms: C_8  and  C_11
REMARK    3  A    between atoms: C_11  and  N_12
REMARK    4  A    between atoms: C_20  and  C_21
REMARK    5  A    between atoms: C_21  and  C_22
REMARK    6  A    between atoms: C_27  and  N_28
REMARK                            x       y       z     vdW  Elec       q    Type
REMARK                         _______ _______ _______ _____ _____    ______ ____
ROOT
ATOM      1  N   UNL     1       9.063  -2.078  25.000  0.00  0.00    -0.322 N 
ATOM      2  H   UNL     1       8.526  -1.620  25.736  0.00  0.00    +0.148 HD
ATOM      3  C   UNL     1       9.306  -1.213  23.924  0.00  0.00    +0.148 A 
ATOM      4  C   UNL     1       9.223   0.195  24.020  0.00  0.00    +0.149 A 
ATOM      5  N   UNL     1       8.887   1.049  25.059  0.00  0.00    -0.210 NA
ATOM      6  C   UNL     1       8.956   2.253  24.514  0.00  0.00    +0.201 A 
ATOM      7  O   UNL     1       9.322   2.255  23.191  0.00  0.00    -0.439 OA
ATOM      8  C   UNL     1       9.474   0.939  22.880  0.00  0.00    +0.160 A 
ATOM      9  C   UNL     1       9.793   0.422  21.640  0.00  0.00    +0.068 A 
ATOM     10  C   UNL     1       9.847  -0.956  21.629  0.00  0.00    +0.116 A 
ATOM     11  N   UNL     1       9.621  -1.748  22.703  0.00  0.00    -0.238 NA
ENDROOT
BRANCH   1  12
ATOM     12  C   UNL     1       8.578  -3.401  24.572  0.00  0.00    +0.180 C 
BRANCH  12  13
ATOM     13  C   UNL     1       7.053  -3.561  24.640  0.00  0.00    +0.279 C 
ATOM     14  F   UNL     1       6.744  -4.798  25.122  0.00  0.00    -0.202 F 
ATOM     15  F   UNL     1       6.551  -2.666  25.532  0.00  0.00    -0.202 F 
BRANCH  13  16
ATOM     16  C   UNL     1       6.384  -3.393  23.233  0.00  0.00    +0.125 C 
ATOM     17  N   UNL     1       4.946  -3.733  23.083  0.00  0.00    -0.308 NA
ATOM     18  H   UNL     1       4.376  -3.241  23.770  0.00  0.00    +0.122 HD
ATOM     19  C   UNL     1       4.681  -5.169  23.161  0.00  0.00    +0.081 C 
ATOM     20  C   UNL     1       5.483  -5.968  22.136  0.00  0.00    +0.015 C 
ATOM     21  C   UNL     1       6.970  -5.637  22.181  0.00  0.00    +0.003 C 
ATOM     22  C   UNL     1       7.178  -4.128  22.137  0.00  0.00    +0.025 C 
ENDBRANCH  13  16
ENDBRANCH  12  13
ENDBRANCH   1  12
BRANCH   6  23
ATOM     23  C   UNL     1       8.545   3.589  25.058  0.00  0.00    +0.133 C 
BRANCH  23  24
ATOM     24  C   UNL     1       7.988   4.646  24.111  0.00  0.00    -0.013 A 
ATOM     25  C   UNL     1       8.781   5.734  23.638  0.00  0.00    +0.071 A 
ATOM     26  C   UNL     1       8.215   6.656  22.727  0.00  0.00    +0.028 A 
ATOM     27  C   UNL     1       6.896   6.530  22.294  0.00  0.00    +0.002 A 
ATOM     28  C   UNL     1       6.114   5.488  22.769  0.00  0.00    +0.000 A 
ATOM     29  C   UNL     1       6.649   4.562  23.667  0.00  0.00    +0.006 A 
BRANCH  25  30
ATOM     30  N   UNL     1      10.141   5.949  24.039  0.00  0.00    -0.220 N 
ATOM     31  N   UNL     1      10.491   6.735  25.087  0.00  0.00    -0.154 NA
ATOM     32  C   UNL     1      11.819   6.652  25.094  0.00  0.00    +0.245 A 
ATOM     33  N   UNL     1      12.360   5.875  24.123  0.00  0.00    -0.222 NA
ATOM     34  C   UNL     1      11.298   5.450  23.476  0.00  0.00    +0.225 A 
ENDBRANCH  25  30
ENDBRANCH  23  24
ENDBRANCH   6  23
TORSDOF 6
ENDMDL
MODEL 8
REMARK VINA RESULT:      -7.8      2.759      4.350
REMARK  Name = 
REMARK  6 active torsions:
REMARK  status: ('A' for Active; 'I' for Inactive)
REMARK    1  A    between atoms: C_2  and  C_8
REMARK    2  A    between atoms: C_8  and  C_11
REMARK    3  A    between atoms: C_11  and  N_12
REMARK    4  A    between atoms: C_20  and  C_21
REMARK    5  A    between atoms: C_21  and  C_22
REMARK    6  A    between atoms: C_27  and  N_28
REMARK                            x       y       z     vdW  Elec       q    Type
REMARK                         _______ _______ _______ _____ _____    ______ ____
ROOT
ATOM      1  N   UNL     1       7.555   1.260  26.952  0.00  0.00    -0.322 N 
ATOM      2  H   UNL     1       8.276   0.710  26.486  0.00  0.00    +0.148 HD
ATOM      3  C   UNL     1       6.357   0.541  27.075  0.00  0.00    +0.148 A 
ATOM      4  C   UNL     1       6.280  -0.868  26.986  0.00  0.00    +0.149 A 
ATOM      5  N   UNL     1       7.229  -1.849  26.746  0.00  0.00    -0.210 NA
ATOM      6  C   UNL     1       6.529  -2.973  26.745  0.00  0.00    +0.201 A 
ATOM      7  O   UNL     1       5.188  -2.804  26.976  0.00  0.00    -0.439 OA
ATOM      8  C   UNL     1       5.034  -1.458  27.111  0.00  0.00    +0.160 A 
ATOM      9  C   UNL     1       3.844  -0.785  27.311  0.00  0.00    +0.068 A 
ATOM     10  C   UNL     1       4.006   0.583  27.380  0.00  0.00    +0.116 A 
ATOM     11  N   UNL     1       5.190   1.229  27.272  0.00  0.00    -0.238 NA
ENDROOT
BRANCH   1  12
ATOM     12  C   UNL     1       7.352   2.626  26.442  0.00  0.00    +0.180 C 
BRANCH  12  13
ATOM     13  C   UNL     1       7.689   2.796  24.954  0.00  0.00    +0.279 C 
ATOM     14  F   UNL     1       6.623   3.344  24.304  0.00  0.00    -0.202 F 
ATOM     15  F   UNL     1       8.712   3.684  24.829  0.00  0.00    -0.202 F 
BRANCH  13  16
ATOM     16  C   UNL     1       8.038   1.430  24.274  0.00  0.00    +0.125 C 
ATOM     17  N   UNL     1       9.429   0.918  24.377  0.00  0.00    -0.308 NA
ATOM     18  H   UNL     1       9.740   0.881  25.347  0.00  0.00    +0.122 HD
ATOM     19  C   UNL     1      10.386   1.685  23.581  0.00  0.00    +0.081 C 
ATOM     20  C   UNL     1       9.998   1.754  22.105  0.00  0.00    +0.015 C 
ATOM     21  C   UNL     1       8.558   2.218  21.909  0.00  0.00    +0.003 C 
ATOM     22  C   UNL     1       7.616   1.409  22.793  0.00  0.00    +0.025 C 
ENDBRANCH  13  16
ENDBRANCH  12  13
ENDBRANCH   1  12
BRANCH   6  23
ATOM     23  C   UNL     1       6.937  -4.368  26.375  0.00  0.00    +0.133 C 
BRANCH  23  24
ATOM     24  C   UNL     1       6.470  -4.958  25.049  0.00  0.00    -0.013 A 
ATOM     25  C   UNL     1       7.075  -4.602  23.806  0.00  0.00    +0.071 A 
ATOM     26  C   UNL     1       6.622  -5.219  22.616  0.00  0.00    +0.028 A 
ATOM     27  C   UNL     1       5.590  -6.155  22.633  0.00  0.00    +0.002 A 
ATOM     28  C   UNL     1       4.983  -6.486  23.835  0.00  0.00    +0.000 A 
ATOM     29  C   UNL     1       5.412  -5.894  25.024  0.00  0.00    +0.006 A 
BRANCH  25  30
ATOM     30  N   UNL     1       8.133  -3.641  23.693  0.00  0.00    -0.220 N 
ATOM     31  N   UNL     1       9.364  -3.825  24.231  0.00  0.00    -0.154 NA
ATOM     32  C   UNL     1      10.009  -2.710  23.893  0.00  0.00    +0.245 A 
ATOM     33  N   UNL     1       9.285  -1.811  23.182  0.00  0.00    -0.222 NA
ATOM     34  C   UNL     1       8.120  -2.409  23.071  0.00  0.00    +0.225 A 
ENDBRANCH  25  30
ENDBRANCH  23  24
ENDBRANCH   6  23
TORSDOF 6
ENDMDL
MODEL 9
REMARK VINA RESULT:      -7.6      3.227      8.208
REMARK  Name = 
REMARK  6 active torsions:
REMARK  status: ('A' for Active; 'I' for Inactive)
REMARK    1  A    between atoms: C_2  and  C_8
REMARK    2  A    between atoms: C_8  and  C_11
REMARK    3  A    between atoms: C_11  and  N_12
REMARK    4  A    between atoms: C_20  and  C_21
REMARK    5  A    between atoms: C_21  and  C_22
REMARK    6  A    between atoms: C_27  and  N_28
REMARK                            x       y       z     vdW  Elec       q    Type
REMARK                         _______ _______ _______ _____ _____    ______ ____
ROOT
ATOM      1  N   UNL     1       5.913  -1.488  25.064  0.00  0.00    -0.322 N 
ATOM      2  H   UNL     1       6.282  -1.378  24.121  0.00  0.00    +0.148 HD
ATOM      3  C   UNL     1       6.233  -0.388  25.875  0.00  0.00    +0.148 A 
ATOM      4  C   UNL     1       6.611   0.874  25.364  0.00  0.00    +0.149 A 
ATOM      5  N   UNL     1       6.793   1.351  24.075  0.00  0.00    -0.210 NA
ATOM      6  C   UNL     1       7.186   2.603  24.254  0.00  0.00    +0.201 A 
ATOM      7  O   UNL     1       7.268   2.988  25.568  0.00  0.00    -0.439 OA
ATOM      8  C   UNL     1       6.916   1.876  26.270  0.00  0.00    +0.160 A 
ATOM      9  C   UNL     1       6.891   1.748  27.644  0.00  0.00    +0.068 A 
ATOM     10  C   UNL     1       6.520   0.487  28.060  0.00  0.00    +0.116 A 
ATOM     11  N   UNL     1       6.202  -0.539  27.235  0.00  0.00    -0.238 NA
ENDROOT
BRANCH   1  12
ATOM     12  C   UNL     1       6.181  -2.779  25.720  0.00  0.00    +0.180 C 
BRANCH  12  13
ATOM     13  C   UNL     1       6.120  -3.986  24.774  0.00  0.00    +0.279 C 
ATOM     14  F   UNL     1       6.296  -5.134  25.487  0.00  0.00    -0.202 F 
ATOM     15  F   UNL     1       4.876  -4.060  24.229  0.00  0.00    -0.202 F 
BRANCH  13  16
ATOM     16  C   UNL     1       7.222  -3.915  23.664  0.00  0.00    +0.125 C 
ATOM     17  N   UNL     1       6.956  -3.106  22.447  0.00  0.00    -0.308 NA
ATOM     18  H   UNL     1       6.683  -2.154  22.688  0.00  0.00    +0.122 HD
ATOM     19  C   UNL     1       5.950  -3.699  21.567  0.00  0.00    +0.081 C 
ATOM     20  C   UNL     1       6.312  -5.121  21.140  0.00  0.00    +0.015 C 
ATOM     21  C   UNL     1       6.658  -6.010  22.329  0.00  0.00    +0.003 C 
ATOM     22  C   UNL     1       7.678  -5.320  23.228  0.00  0.00    +0.025 C 
ENDBRANCH  13  16
ENDBRANCH  12  13
ENDBRANCH   1  12
BRANCH   6  23
ATOM     23  C   UNL     1       7.708   3.605  23.267  0.00  0.00    +0.133 C 
BRANCH  23  24
ATOM     24  C   UNL     1       9.118   4.158  23.435  0.00  0.00    -0.013 A 
ATOM     25  C   UNL     1      10.277   3.336  23.296  0.00  0.00    +0.071 A 
ATOM     26  C   UNL     1      11.559   3.922  23.423  0.00  0.00    +0.028 A 
ATOM     27  C   UNL     1      11.710   5.281  23.694  0.00  0.00    +0.002 A 
ATOM     28  C   UNL     1      10.587   6.079  23.854  0.00  0.00    +0.000 A 
ATOM     29  C   UNL     1       9.311   5.526  23.731  0.00  0.00    +0.006 A 
BRANCH  25  30
ATOM     30  N   UNL     1      10.215   1.929  23.030  0.00  0.00    -0.220 N 
ATOM     31  N   UNL     1       9.881   1.416  21.821  0.00  0.00    -0.154 NA
ATOM     32  C   UNL     1       9.947   0.101  22.023  0.00  0.00    +0.245 A 
ATOM     33  N   UNL     1      10.292  -0.278  23.278  0.00  0.00    -0.222 NA
ATOM     34  C   UNL     1      10.451   0.874  23.889  0.00  0.00    +0.225 A 
ENDBRANCH  25  30
ENDBRANCH  23  24
ENDBRANCH   6  23
TORSDOF 6
ENDMDL
