MODEL 1
REMARK VINA RESULT:      -8.0      0.000      0.000
REMARK  Name = 
REMARK  9 active torsions:
REMARK  status: ('A' for Active; 'I' for Inactive)
REMARK    1  A    between atoms: C_2  and  C_20
REMARK    2  A    between atoms: N_3  and  C_4
REMARK    3  A    between atoms: C_13  and  C_15
REMARK    4  A    between atoms: C_23  and  O_24
REMARK    5  A    between atoms: O_24  and  C_25
REMARK    6  A    between atoms: C_25  and  C_26
REMARK    7  A    between atoms: C_26  and  C_27
REMARK    8  A    between atoms: C_27  and  C_28
REMARK    9  A    between atoms: C_28  and  C_29
REMARK                            x       y       z     vdW  Elec       q    Type
REMARK                         _______ _______ _______ _____ _____    ______ ____
ROOT
ATOM      1  O   UNL     1       9.884  -3.002  23.789  0.00  0.00    -0.270 OA
ATOM      2  C   UNL     1       9.232  -2.008  24.095  0.00  0.00    +0.248 C 
ATOM      3  N   UNL     1       8.065  -1.998  24.833  0.00  0.00    -0.281 N 
ATOM      4  H   UNL     1       7.605  -1.109  24.981  0.00  0.00    +0.155 HD
ENDROOT
BRANCH   3   5
ATOM      5  C   UNL     1       7.392  -3.151  25.305  0.00  0.00    +0.037 A 
ATOM      6  C   UNL     1       7.827  -3.708  26.515  0.00  0.00    +0.024 A 
ATOM      7  C   UNL     1       7.182  -4.826  27.055  0.00  0.00    +0.017 A 
ATOM      8  C   UNL     1       6.103  -5.397  26.375  0.00  0.00    +0.064 A 
ATOM      9  C   UNL     1       5.395  -6.567  26.909  0.00  0.00    +0.193 A 
ATOM     10  C   UNL     1       4.329  -7.130  26.078  0.00  0.00    +0.101 A 
ATOM     11  C   UNL     1       4.019  -6.553  24.907  0.00  0.00    +0.180 A 
ATOM     12  O   UNL     1       4.641  -5.403  24.436  0.00  0.00    -0.451 OA
ATOM     13  O   UNL     1       5.686  -7.061  27.992  0.00  0.00    -0.287 OA
ATOM     14  C   UNL     1       5.675  -4.870  25.166  0.00  0.00    +0.141 A 
ATOM     15  C   UNL     1       6.313  -3.747  24.638  0.00  0.00    +0.070 A 
BRANCH  11  16
ATOM     16  C   UNL     1       3.022  -7.087  24.024  0.00  0.00    +0.239 A 
ATOM     17  N   UNL     1       2.533  -6.341  22.978  0.00  0.00    -0.105 NA
ATOM     18  N   UNL     1       1.668  -7.110  22.330  0.00  0.00    -0.048 NA
ATOM     19  N   UNL     1       1.674  -8.264  23.001  0.00  0.00    -0.176 N 
ATOM     20  H   UNL     1       1.099  -9.054  22.717  0.00  0.00    +0.214 HD
ATOM     21  N   UNL     1       2.489  -8.323  24.066  0.00  0.00    -0.130 NA
ENDBRANCH  11  16
ENDBRANCH   3   5
BRANCH   2  22
ATOM     22  C   UNL     1       9.725  -0.711  23.573  0.00  0.00    +0.037 A 
ATOM     23  C   UNL     1       9.531  -0.237  22.272  0.00  0.00    +0.016 A 
ATOM     24  C   UNL     1       9.954   1.063  21.941  0.00  0.00    +0.046 A 
ATOM     25  C   UNL     1      10.567   1.881  22.899  0.00  0.00    +0.121 A 
ATOM     26  C   UNL     1      10.785   1.378  24.181  0.00  0.00    +0.046 A 
ATOM     27  C   UNL     1      10.366   0.099  24.515  0.00  0.00    +0.016 A 
BRANCH  25  28
ATOM     28  O   UNL     1      10.907   3.154  22.510  0.00  0.00    -0.492 OA
BRANCH  28  29
ATOM     29  C   UNL     1      11.424   3.974  23.565  0.00  0.00    +0.229 C 
BRANCH  29  30
ATOM     30  C   UNL     1      10.717   5.318  23.625  0.00  0.00    +0.041 C 
BRANCH  30  31
ATOM     31  C   UNL     1       9.466   5.247  24.495  0.00  0.00    +0.008 C 
BRANCH  31  32
ATOM     32  C   UNL     1       8.207   5.178  23.634  0.00  0.00    +0.035 C 
BRANCH  32  33
ATOM     33  C   UNL     1       7.633   3.786  23.649  0.00  0.00    -0.047 A 
ATOM     34  C   UNL     1       7.626   3.037  24.833  0.00  0.00    +0.003 A 
ATOM     35  C   UNL     1       7.051   1.766  24.858  0.00  0.00    +0.000 A 
ATOM     36  C   UNL     1       6.475   1.238  23.705  0.00  0.00    +0.000 A 
ATOM     37  C   UNL     1       6.472   1.979  22.524  0.00  0.00    +0.000 A 
ATOM     38  C   UNL     1       7.047   3.249  22.496  0.00  0.00    +0.003 A 
ENDBRANCH  32  33
ENDBRANCH  31  32
ENDBRANCH  30  31
ENDBRANCH  29  30
ENDBRANCH  28  29
ENDBRANCH  25  28
ENDBRANCH   2  22
TORSDOF 9
ENDMDL
MODEL 2
REMARK VINA RESULT:      -7.9      2.595      4.317
REMARK  Name = 
REMARK  9 active torsions:
REMARK  status: ('A' for Active; 'I' for Inactive)
REMARK    1  A    between atoms: C_2  and  C_20
REMARK    2  A    between atoms: N_3  and  C_4
REMARK    3  A    between atoms: C_13  and  C_15
REMARK    4  A    between atoms: C_23  and  O_24
REMARK    5  A    between atoms: O_24  and  C_25
REMARK    6  A    between atoms: C_25  and  C_26
REMARK    7  A    between atoms: C_26  and  C_27
REMARK    8  A    between atoms: C_27  and  C_28
REMARK    9  A    between atoms: C_28  and  C_29
REMARK                            x       y       z     vdW  Elec       q    Type
REMARK                         _______ _______ _______ _____ _____    ______ ____
ROOT
ATOM      1  O   UNL     1       5.019   0.934  24.915  0.00  0.00    -0.270 OA
ATOM      2  C   UNL     1       6.157   1.036  24.466  0.00  0.00    +0.248 C 
ATOM      3  N   UNL     1       6.922   0.009  23.951  0.00  0.00    -0.281 N 
ATOM      4  H   UNL     1       7.863   0.224  23.649  0.00  0.00    +0.155 HD
ENDROOT
BRANCH   3   5
ATOM      5  C   UNL     1       6.537  -1.353  23.918  0.00  0.00    +0.037 A 
ATOM      6  C   UNL     1       6.072  -1.867  22.701  0.00  0.00    +0.024 A 
ATOM      7  C   UNL     1       5.710  -3.215  22.591  0.00  0.00    +0.017 A 
ATOM      8  C   UNL     1       5.802  -4.050  23.708  0.00  0.00    +0.064 A 
ATOM      9  C   UNL     1       5.437  -5.469  23.635  0.00  0.00    +0.193 A 
ATOM     10  C   UNL     1       5.500  -6.233  24.883  0.00  0.00    +0.101 A 
ATOM     11  C   UNL     1       5.912  -5.636  26.011  0.00  0.00    +0.180 A 
ATOM     12  O   UNL     1       6.326  -4.310  26.065  0.00  0.00    -0.451 OA
ATOM     13  O   UNL     1       5.084  -5.994  22.585  0.00  0.00    -0.287 OA
ATOM     14  C   UNL     1       6.241  -3.549  24.925  0.00  0.00    +0.141 A 
ATOM     15  C   UNL     1       6.613  -2.208  25.026  0.00  0.00    +0.070 A 
BRANCH  11  16
ATOM     16  C   UNL     1       5.944  -6.314  27.275  0.00  0.00    +0.239 A 
ATOM     17  N   UNL     1       6.952  -6.075  28.180  0.00  0.00    -0.105 NA
ATOM     18  N   UNL     1       6.689  -6.811  29.251  0.00  0.00    -0.048 NA
ATOM     19  N   UNL     1       5.555  -7.448  28.952  0.00  0.00    -0.176 N 
ATOM     20  H   UNL     1       5.107  -8.087  29.606  0.00  0.00    +0.214 HD
ATOM     21  N   UNL     1       5.035  -7.191  27.741  0.00  0.00    -0.130 NA
ENDBRANCH  11  16
ENDBRANCH   3   5
BRANCH   2  22
ATOM     22  C   UNL     1       6.773   2.382  24.538  0.00  0.00    +0.037 A 
ATOM     23  C   UNL     1       7.360   2.943  25.677  0.00  0.00    +0.016 A 
ATOM     24  C   UNL     1       8.012   4.186  25.577  0.00  0.00    +0.046 A 
ATOM     25  C   UNL     1       8.075   4.863  24.352  0.00  0.00    +0.121 A 
ATOM     26  C   UNL     1       7.454   4.305  23.236  0.00  0.00    +0.046 A 
ATOM     27  C   UNL     1       6.814   3.079  23.327  0.00  0.00    +0.016 A 
BRANCH  25  28
ATOM     28  O   UNL     1       8.771   6.047  24.327  0.00  0.00    -0.492 OA
BRANCH  28  29
ATOM     29  C   UNL     1       9.904   6.047  23.451  0.00  0.00    +0.229 C 
BRANCH  29  30
ATOM     30  C   UNL     1      10.982   5.090  23.933  0.00  0.00    +0.041 C 
BRANCH  30  31
ATOM     31  C   UNL     1      11.000   3.810  23.103  0.00  0.00    +0.008 C 
BRANCH  31  32
ATOM     32  C   UNL     1      10.848   2.580  23.994  0.00  0.00    +0.035 C 
BRANCH  32  33
ATOM     33  C   UNL     1      10.409   1.391  23.182  0.00  0.00    -0.047 A 
ATOM     34  C   UNL     1      10.657   0.091  23.642  0.00  0.00    +0.003 A 
ATOM     35  C   UNL     1      10.207  -1.010  22.914  0.00  0.00    +0.000 A 
ATOM     36  C   UNL     1       9.503  -0.821  21.727  0.00  0.00    +0.000 A 
ATOM     37  C   UNL     1       9.246   0.469  21.265  0.00  0.00    +0.000 A 
ATOM     38  C   UNL     1       9.696   1.571  21.991  0.00  0.00    +0.003 A 
ENDBRANCH  32  33
ENDBRANCH  31  32
ENDBRANCH  30  31
ENDBRANCH  29  30
ENDBRANCH  28  29
ENDBRANCH  25  28
ENDBRANCH   2  22
TORSDOF 9
ENDMDL
MODEL 3
REMARK VINA RESULT:      -7.4      1.655      3.249
REMARK  Name = 
REMARK  9 active torsions:
REMARK  status: ('A' for Active; 'I' for Inactive)
REMARK    1  A    between atoms: C_2  and  C_20
REMARK    2  A    between atoms: N_3  and  C_4
REMARK    3  A    between atoms: C_13  and  C_15
REMARK    4  A    between atoms: C_23  and  O_24
REMARK    5  A    between atoms: O_24  and  C_25
REMARK    6  A    between atoms: C_25  and  C_26
REMARK    7  A    between atoms: C_26  and  C_27
REMARK    8  A    between atoms: C_27  and  C_28
REMARK    9  A    between atoms: C_28  and  C_29
REMARK                            x       y       z     vdW  Elec       q    Type
REMARK                         _______ _______ _______ _____ _____    ______ ____
ROOT
ATOM      1  O   UNL     1       4.858   0.681  25.429  0.00  0.00    -0.270 OA
ATOM      2  C   UNL     1       5.679   0.724  24.518  0.00  0.00    +0.248 C 
ATOM      3  N   UNL     1       6.369  -0.351  23.993  0.00  0.00    -0.281 N 
ATOM      4  H   UNL     1       7.049  -0.170  23.267  0.00  0.00    +0.155 HD
ENDROOT
BRANCH   3   5
ATOM      5  C   UNL     1       6.286  -1.681  24.473  0.00  0.00    +0.037 A 
ATOM      6  C   UNL     1       7.247  -2.098  25.403  0.00  0.00    +0.024 A 
ATOM      7  C   UNL     1       7.199  -3.387  25.943  0.00  0.00    +0.017 A 
ATOM      8  C   UNL     1       6.192  -4.270  25.543  0.00  0.00    +0.064 A 
ATOM      9  C   UNL     1       6.103  -5.629  26.088  0.00  0.00    +0.193 A 
ATOM     10  C   UNL     1       5.055  -6.493  25.542  0.00  0.00    +0.101 A 
ATOM     11  C   UNL     1       4.212  -6.016  24.614  0.00  0.00    +0.180 A 
ATOM     12  O   UNL     1       4.251  -4.706  24.150  0.00  0.00    -0.451 OA
ATOM     13  O   UNL     1       6.875  -6.032  26.951  0.00  0.00    -0.287 OA
ATOM     14  C   UNL     1       5.246  -3.878  24.607  0.00  0.00    +0.141 A 
ATOM     15  C   UNL     1       5.290  -2.586  24.080  0.00  0.00    +0.070 A 
BRANCH  11  16
ATOM     16  C   UNL     1       3.199  -6.827  24.001  0.00  0.00    +0.239 A 
ATOM     17  N   UNL     1       2.436  -6.342  22.965  0.00  0.00    -0.105 NA
ATOM     18  N   UNL     1       1.627  -7.324  22.592  0.00  0.00    -0.048 NA
ATOM     19  N   UNL     1       1.932  -8.339  23.403  0.00  0.00    -0.176 N 
ATOM     20  H   UNL     1       1.464  -9.240  23.337  0.00  0.00    +0.214 HD
ATOM     21  N   UNL     1       2.897  -8.103  24.306  0.00  0.00    -0.130 NA
ENDBRANCH  11  16
ENDBRANCH   3   5
BRANCH   2  22
ATOM     22  C   UNL     1       5.988   2.069  23.975  0.00  0.00    +0.037 A 
ATOM     23  C   UNL     1       5.883   3.270  24.683  0.00  0.00    +0.016 A 
ATOM     24  C   UNL     1       6.318   4.465  24.082  0.00  0.00    +0.046 A 
ATOM     25  C   UNL     1       6.850   4.462  22.786  0.00  0.00    +0.121 A 
ATOM     26  C   UNL     1       6.913   3.260  22.083  0.00  0.00    +0.046 A 
ATOM     27  C   UNL     1       6.491   2.078  22.671  0.00  0.00    +0.016 A 
BRANCH  25  28
ATOM     28  O   UNL     1       7.296   5.662  22.290  0.00  0.00    -0.492 OA
BRANCH  28  29
ATOM     29  C   UNL     1       8.052   6.442  23.224  0.00  0.00    +0.229 C 
BRANCH  29  30
ATOM     30  C   UNL     1       9.523   6.060  23.209  0.00  0.00    +0.041 C 
BRANCH  30  31
ATOM     31  C   UNL     1       9.779   4.806  24.038  0.00  0.00    +0.008 C 
BRANCH  31  32
ATOM     32  C   UNL     1      10.867   3.944  23.402  0.00  0.00    +0.035 C 
BRANCH  32  33
ATOM     33  C   UNL     1      10.409   2.514  23.287  0.00  0.00    -0.047 A 
ATOM     34  C   UNL     1      10.207   1.937  22.027  0.00  0.00    +0.003 A 
ATOM     35  C   UNL     1       9.829   0.599  21.919  0.00  0.00    +0.000 A 
ATOM     36  C   UNL     1       9.656  -0.172  23.066  0.00  0.00    +0.000 A 
ATOM     37  C   UNL     1       9.861   0.392  24.324  0.00  0.00    +0.000 A 
ATOM     38  C   UNL     1      10.238   1.731  24.434  0.00  0.00    +0.003 A 
ENDBRANCH  32  33
ENDBRANCH  31  32
ENDBRANCH  30  31
ENDBRANCH  29  30
ENDBRANCH  28  29
ENDBRANCH  25  28
ENDBRANCH   2  22
TORSDOF 9
ENDMDL
MODEL 4
REMARK VINA RESULT:      -7.4      3.446     10.481
REMARK  Name = 
REMARK  9 active torsions:
REMARK  status: ('A' for Active; 'I' for Inactive)
REMARK    1  A    between atoms: C_2  and  C_20
REMARK    2  A    between atoms: N_3  and  C_4
REMARK    3  A    between atoms: C_13  and  C_15
REMARK    4  A    between atoms: C_23  and  O_24
REMARK    5  A    between atoms: O_24  and  C_25
REMARK    6  A    between atoms: C_25  and  C_26
REMARK    7  A    between atoms: C_26  and  C_27
REMARK    8  A    between atoms: C_27  and  C_28
REMARK    9  A    between atoms: C_28  and  C_29
REMARK                            x       y       z     vdW  Elec       q    Type
REMARK                         _______ _______ _______ _____ _____    ______ ____
ROOT
ATOM      1  O   UNL     1       8.520  -0.848  22.325  0.00  0.00    -0.270 OA
ATOM      2  C   UNL     1       7.372  -1.040  22.712  0.00  0.00    +0.248 C 
ATOM      3  N   UNL     1       6.458  -0.065  23.061  0.00  0.00    -0.281 N 
ATOM      4  H   UNL     1       5.554  -0.363  23.402  0.00  0.00    +0.155 HD
ENDROOT
BRANCH   3   5
ATOM      5  C   UNL     1       6.725   1.325  23.090  0.00  0.00    +0.037 A 
ATOM      6  C   UNL     1       5.656   2.197  22.847  0.00  0.00    +0.024 A 
ATOM      7  C   UNL     1       5.844   3.583  22.898  0.00  0.00    +0.017 A 
ATOM      8  C   UNL     1       7.111   4.100  23.180  0.00  0.00    +0.064 A 
ATOM      9  C   UNL     1       7.351   5.546  23.247  0.00  0.00    +0.193 A 
ATOM     10  C   UNL     1       8.732   5.977  23.476  0.00  0.00    +0.101 A 
ATOM     11  C   UNL     1       9.698   5.062  23.647  0.00  0.00    +0.180 A 
ATOM     12  O   UNL     1       9.458   3.693  23.655  0.00  0.00    -0.451 OA
ATOM     13  O   UNL     1       6.446   6.359  23.107  0.00  0.00    -0.287 OA
ATOM     14  C   UNL     1       8.184   3.248  23.402  0.00  0.00    +0.141 A 
ATOM     15  C   UNL     1       7.988   1.867  23.363  0.00  0.00    +0.070 A 
BRANCH  11  16
ATOM     16  C   UNL     1      11.077   5.419  23.820  0.00  0.00    +0.239 A 
ATOM     17  N   UNL     1      12.075   4.698  23.209  0.00  0.00    -0.105 NA
ATOM     18  N   UNL     1      13.222   5.286  23.524  0.00  0.00    -0.048 NA
ATOM     19  N   UNL     1      12.870   6.316  24.296  0.00  0.00    -0.176 N 
ATOM     20  H   UNL     1      13.559   6.959  24.683  0.00  0.00    +0.214 HD
ATOM     21  N   UNL     1      11.555   6.461  24.526  0.00  0.00    -0.130 NA
ENDBRANCH  11  16
ENDBRANCH   3   5
BRANCH   2  22
ATOM     22  C   UNL     1       6.957  -2.455  22.865  0.00  0.00    +0.037 A 
ATOM     23  C   UNL     1       7.792  -3.565  22.693  0.00  0.00    +0.016 A 
ATOM     24  C   UNL     1       7.299  -4.850  22.981  0.00  0.00    +0.046 A 
ATOM     25  C   UNL     1       5.984  -5.027  23.435  0.00  0.00    +0.121 A 
ATOM     26  C   UNL     1       5.157  -3.912  23.565  0.00  0.00    +0.046 A 
ATOM     27  C   UNL     1       5.639  -2.642  23.287  0.00  0.00    +0.016 A 
BRANCH  25  28
ATOM     28  O   UNL     1       5.595  -6.308  23.739  0.00  0.00    -0.492 OA
BRANCH  28  29
ATOM     29  C   UNL     1       4.249  -6.416  24.219  0.00  0.00    +0.229 C 
BRANCH  29  30
ATOM     30  C   UNL     1       4.202  -6.975  25.631  0.00  0.00    +0.041 C 
BRANCH  30  31
ATOM     31  C   UNL     1       4.352  -5.869  26.671  0.00  0.00    +0.008 C 
BRANCH  31  32
ATOM     32  C   UNL     1       5.656  -6.025  27.450  0.00  0.00    +0.035 C 
BRANCH  32  33
ATOM     33  C   UNL     1       6.631  -4.943  27.069  0.00  0.00    -0.047 A 
ATOM     34  C   UNL     1       7.950  -5.269  26.728  0.00  0.00    +0.003 A 
ATOM     35  C   UNL     1       8.840  -4.272  26.329  0.00  0.00    +0.000 A 
ATOM     36  C   UNL     1       8.419  -2.946  26.261  0.00  0.00    +0.000 A 
ATOM     37  C   UNL     1       7.106  -2.613  26.592  0.00  0.00    +0.000 A 
ATOM     38  C   UNL     1       6.214  -3.608  26.993  0.00  0.00    +0.003 A 
ENDBRANCH  32  33
ENDBRANCH  31  32
ENDBRANCH  30  31
ENDBRANCH  29  30
ENDBRANCH  28  29
ENDBRANCH  25  28
ENDBRANCH   2  22
TORSDOF 9
ENDMDL
MODEL 5
REMARK VINA RESULT:      -7.4      2.480      3.261
REMARK  Name = 
REMARK  9 active torsions:
REMARK  status: ('A' for Active; 'I' for Inactive)
REMARK    1  A    between atoms: C_2  and  C_20
REMARK    2  A    between atoms: N_3  and  C_4
REMARK    3  A    between atoms: C_13  and  C_15
REMARK    4  A    between atoms: C_23  and  O_24
REMARK    5  A    between atoms: O_24  and  C_25
REMARK    6  A    between atoms: C_25  and  C_26
REMARK    7  A    between atoms: C_26  and  C_27
REMARK    8  A    between atoms: C_27  and  C_28
REMARK    9  A    between atoms: C_28  and  C_29
REMARK                            x       y       z     vdW  Elec       q    Type
REMARK                         _______ _______ _______ _____ _____    ______ ____
ROOT
ATOM      1  O   UNL     1      10.042  -2.334  23.825  0.00  0.00    -0.270 OA
ATOM      2  C   UNL     1       9.252  -1.400  23.724  0.00  0.00    +0.248 C 
ATOM      3  N   UNL     1       7.885  -1.470  23.900  0.00  0.00    -0.281 N 
ATOM      4  H   UNL     1       7.343  -0.629  23.748  0.00  0.00    +0.155 HD
ENDROOT
BRANCH   3   5
ATOM      5  C   UNL     1       7.159  -2.657  24.165  0.00  0.00    +0.037 A 
ATOM      6  C   UNL     1       6.523  -3.283  23.086  0.00  0.00    +0.024 A 
ATOM      7  C   UNL     1       5.820  -4.479  23.273  0.00  0.00    +0.017 A 
ATOM      8  C   UNL     1       5.744  -5.045  24.548  0.00  0.00    +0.064 A 
ATOM      9  C   UNL     1       5.022  -6.300  24.787  0.00  0.00    +0.193 A 
ATOM     10  C   UNL     1       4.941  -6.763  26.174  0.00  0.00    +0.101 A 
ATOM     11  C   UNL     1       5.544  -6.064  27.147  0.00  0.00    +0.180 A 
ATOM     12  O   UNL     1       6.288  -4.914  26.911  0.00  0.00    -0.451 OA
ATOM     13  O   UNL     1       4.498  -6.929  23.875  0.00  0.00    -0.287 OA
ATOM     14  C   UNL     1       6.351  -4.425  25.630  0.00  0.00    +0.141 A 
ATOM     15  C   UNL     1       7.062  -3.239  25.436  0.00  0.00    +0.070 A 
BRANCH  11  16
ATOM     16  C   UNL     1       5.457  -6.434  28.531  0.00  0.00    +0.239 A 
ATOM     17  N   UNL     1       6.550  -6.934  29.199  0.00  0.00    -0.105 NA
ATOM     18  N   UNL     1       6.171  -7.144  30.452  0.00  0.00    -0.048 NA
ATOM     19  N   UNL     1       4.891  -6.767  30.485  0.00  0.00    -0.176 N 
ATOM     20  H   UNL     1       4.338  -6.812  31.339  0.00  0.00    +0.214 HD
ATOM     21  N   UNL     1       4.378  -6.318  29.328  0.00  0.00    -0.130 NA
ENDBRANCH  11  16
ENDBRANCH   3   5
BRANCH   2  22
ATOM     22  C   UNL     1       9.827  -0.094  23.324  0.00  0.00    +0.037 A 
ATOM     23  C   UNL     1       9.645   0.523  22.082  0.00  0.00    +0.016 A 
ATOM     24  C   UNL     1      10.154   1.818  21.874  0.00  0.00    +0.046 A 
ATOM     25  C   UNL     1      10.838   2.490  22.895  0.00  0.00    +0.121 A 
ATOM     26  C   UNL     1      11.041   1.845  24.114  0.00  0.00    +0.046 A 
ATOM     27  C   UNL     1      10.539   0.570  24.327  0.00  0.00    +0.016 A 
BRANCH  25  28
ATOM     28  O   UNL     1      11.261   3.770  22.629  0.00  0.00    -0.492 OA
BRANCH  28  29
ATOM     29  C   UNL     1      11.205   4.655  23.754  0.00  0.00    +0.229 C 
BRANCH  29  30
ATOM     30  C   UNL     1      10.549   5.977  23.391  0.00  0.00    +0.041 C 
BRANCH  30  31
ATOM     31  C   UNL     1       9.111   6.040  23.896  0.00  0.00    +0.008 C 
BRANCH  31  32
ATOM     32  C   UNL     1       8.135   5.571  22.821  0.00  0.00    +0.035 C 
BRANCH  32  33
ATOM     33  C   UNL     1       7.543   4.237  23.191  0.00  0.00    -0.047 A 
ATOM     34  C   UNL     1       6.834   3.490  22.242  0.00  0.00    +0.003 A 
ATOM     35  C   UNL     1       6.327   2.233  22.571  0.00  0.00    +0.000 A 
ATOM     36  C   UNL     1       6.530   1.712  23.846  0.00  0.00    +0.000 A 
ATOM     37  C   UNL     1       7.240   2.444  24.796  0.00  0.00    +0.000 A 
ATOM     38  C   UNL     1       7.746   3.702  24.469  0.00  0.00    +0.003 A 
ENDBRANCH  32  33
ENDBRANCH  31  32
ENDBRANCH  30  31
ENDBRANCH  29  30
ENDBRANCH  28  29
ENDBRANCH  25  28
ENDBRANCH   2  22
TORSDOF 9
ENDMDL
MODEL 6
REMARK VINA RESULT:      -7.3      3.582     10.554
REMARK  Name = 
REMARK  9 active torsions:
REMARK  status: ('A' for Active; 'I' for Inactive)
REMARK    1  A    between atoms: C_2  and  C_20
REMARK    2  A    between atoms: N_3  and  C_4
REMARK    3  A    between atoms: C_13  and  C_15
REMARK    4  A    between atoms: C_23  and  O_24
REMARK    5  A    between atoms: O_24  and  C_25
REMARK    6  A    between atoms: C_25  and  C_26
REMARK    7  A    between atoms: C_26  and  C_27
REMARK    8  A    between atoms: C_27  and  C_28
REMARK    9  A    between atoms: C_28  and  C_29
REMARK                            x       y       z     vdW  Elec       q    Type
REMARK                         _______ _______ _______ _____ _____    ______ ____
ROOT
ATOM      1  O   UNL     1       9.312  -1.008  24.107  0.00  0.00    -0.270 OA
ATOM      2  C   UNL     1       8.146  -1.189  24.445  0.00  0.00    +0.248 C 
ATOM      3  N   UNL     1       7.125  -0.263  24.370  0.00  0.00    -0.281 N 
ATOM      4  H   UNL     1       6.215  -0.531  24.720  0.00  0.00    +0.155 HD
ENDROOT
BRANCH   3   5
ATOM      5  C   UNL     1       7.276   1.080  23.946  0.00  0.00    +0.037 A 
ATOM      6  C   UNL     1       6.280   1.616  23.120  0.00  0.00    +0.024 A 
ATOM      7  C   UNL     1       6.350   2.948  22.696  0.00  0.00    +0.017 A 
ATOM      8  C   UNL     1       7.428   3.745  23.092  0.00  0.00    +0.064 A 
ATOM      9  C   UNL     1       7.537   5.147  22.674  0.00  0.00    +0.193 A 
ATOM     10  C   UNL     1       8.745   5.866  23.084  0.00  0.00    +0.101 A 
ATOM     11  C   UNL     1       9.668   5.248  23.835  0.00  0.00    +0.180 A 
ATOM     12  O   UNL     1       9.531   3.943  24.291  0.00  0.00    -0.451 OA
ATOM     13  O   UNL     1       6.668   5.693  22.004  0.00  0.00    -0.287 OA
ATOM     14  C   UNL     1       8.432   3.221  23.893  0.00  0.00    +0.141 A 
ATOM     15  C   UNL     1       8.351   1.896  24.323  0.00  0.00    +0.070 A 
BRANCH  11  16
ATOM     16  C   UNL     1      10.897   5.880  24.223  0.00  0.00    +0.239 A 
ATOM     17  N   UNL     1      10.948   6.715  25.314  0.00  0.00    -0.105 NA
ATOM     18  N   UNL     1      12.209   7.108  25.438  0.00  0.00    -0.048 NA
ATOM     19  N   UNL     1      12.850   6.503  24.436  0.00  0.00    -0.176 N 
ATOM     20  H   UNL     1      13.851   6.618  24.290  0.00  0.00    +0.214 HD
ATOM     21  N   UNL     1      12.100   5.726  23.639  0.00  0.00    -0.130 NA
ENDBRANCH  11  16
ENDBRANCH   3   5
BRANCH   2  22
ATOM     22  C   UNL     1       7.832  -2.512  25.035  0.00  0.00    +0.037 A 
ATOM     23  C   UNL     1       8.563  -3.686  24.825  0.00  0.00    +0.016 A 
ATOM     24  C   UNL     1       8.221  -4.849  25.538  0.00  0.00    +0.046 A 
ATOM     25  C   UNL     1       7.158  -4.841  26.452  0.00  0.00    +0.121 A 
ATOM     26  C   UNL     1       6.419  -3.671  26.621  0.00  0.00    +0.046 A 
ATOM     27  C   UNL     1       6.754  -2.520  25.924  0.00  0.00    +0.016 A 
BRANCH  25  28
ATOM     28  O   UNL     1       6.919  -6.003  27.143  0.00  0.00    -0.492 OA
BRANCH  28  29
ATOM     29  C   UNL     1       5.587  -6.118  27.660  0.00  0.00    +0.229 C 
BRANCH  29  30
ATOM     30  C   UNL     1       4.718  -6.995  26.774  0.00  0.00    +0.041 C 
BRANCH  30  31
ATOM     31  C   UNL     1       4.119  -6.197  25.621  0.00  0.00    +0.008 C 
BRANCH  31  32
ATOM     32  C   UNL     1       4.522  -6.795  24.276  0.00  0.00    +0.035 C 
BRANCH  32  33
ATOM     33  C   UNL     1       5.139  -5.742  23.393  0.00  0.00    -0.047 A 
ATOM     34  C   UNL     1       4.649  -4.431  23.410  0.00  0.00    +0.003 A 
ATOM     35  C   UNL     1       5.251  -3.445  22.628  0.00  0.00    +0.000 A 
ATOM     36  C   UNL     1       6.349  -3.760  21.831  0.00  0.00    +0.000 A 
ATOM     37  C   UNL     1       6.848  -5.062  21.813  0.00  0.00    +0.000 A 
ATOM     38  C   UNL     1       6.246  -6.050  22.593  0.00  0.00    +0.003 A 
ENDBRANCH  32  33
ENDBRANCH  31  32
ENDBRANCH  30  31
ENDBRANCH  29  30
ENDBRANCH  28  29
ENDBRANCH  25  28
ENDBRANCH   2  22
TORSDOF 9
ENDMDL
MODEL 7
REMARK VINA RESULT:      -7.3      3.604     10.545
REMARK  Name = 
REMARK  9 active torsions:
REMARK  status: ('A' for Active; 'I' for Inactive)
REMARK    1  A    between atoms: C_2  and  C_20
REMARK    2  A    between atoms: N_3  and  C_4
REMARK    3  A    between atoms: C_13  and  C_15
REMARK    4  A    between atoms: C_23  and  O_24
REMARK    5  A    between atoms: O_24  and  C_25
REMARK    6  A    between atoms: C_25  and  C_26
REMARK    7  A    between atoms: C_26  and  C_27
REMARK    8  A    between atoms: C_27  and  C_28
REMARK    9  A    between atoms: C_28  and  C_29
REMARK                            x       y       z     vdW  Elec       q    Type
REMARK                         _______ _______ _______ _____ _____    ______ ____
ROOT
ATOM      1  O   UNL     1       8.886  -0.840  26.834  0.00  0.00    -0.270 OA
ATOM      2  C   UNL     1       8.171  -1.186  25.898  0.00  0.00    +0.248 C 
ATOM      3  N   UNL     1       7.763  -0.386  24.849  0.00  0.00    -0.281 N 
ATOM      4  H   UNL     1       7.139  -0.789  24.161  0.00  0.00    +0.155 HD
ENDROOT
BRANCH   3   5
ATOM      5  C   UNL     1       8.053   0.993  24.718  0.00  0.00    +0.037 A 
ATOM      6  C   UNL     1       7.036   1.904  25.033  0.00  0.00    +0.024 A 
ATOM      7  C   UNL     1       7.270   3.282  24.960  0.00  0.00    +0.017 A 
ATOM      8  C   UNL     1       8.523   3.752  24.558  0.00  0.00    +0.064 A 
ATOM      9  C   UNL     1       8.812   5.188  24.473  0.00  0.00    +0.193 A 
ATOM     10  C   UNL     1      10.133   5.568  23.969  0.00  0.00    +0.101 A 
ATOM     11  C   UNL     1      11.023   4.618  23.645  0.00  0.00    +0.180 A 
ATOM     12  O   UNL     1      10.776   3.259  23.794  0.00  0.00    -0.451 OA
ATOM     13  O   UNL     1       7.986   6.034  24.795  0.00  0.00    -0.287 OA
ATOM     14  C   UNL     1       9.533   2.861  24.223  0.00  0.00    +0.141 A 
ATOM     15  C   UNL     1       9.299   1.488  24.310  0.00  0.00    +0.070 A 
BRANCH  11  16
ATOM     16  C   UNL     1      12.313   4.924  23.095  0.00  0.00    +0.239 A 
ATOM     17  N   UNL     1      12.441   5.378  21.804  0.00  0.00    -0.105 NA
ATOM     18  N   UNL     1      13.732   5.606  21.603  0.00  0.00    -0.048 NA
ATOM     19  N   UNL     1      14.314   5.286  22.761  0.00  0.00    -0.176 N 
ATOM     20  H   UNL     1      15.319   5.372  22.900  0.00  0.00    +0.214 HD
ATOM     21  N   UNL     1      13.496   4.853  23.733  0.00  0.00    -0.130 NA
ENDBRANCH  11  16
ENDBRANCH   3   5
BRANCH   2  22
ATOM     22  C   UNL     1       7.664  -2.578  25.938  0.00  0.00    +0.037 A 
ATOM     23  C   UNL     1       8.411  -3.720  25.627  0.00  0.00    +0.016 A 
ATOM     24  C   UNL     1       7.840  -4.991  25.818  0.00  0.00    +0.046 A 
ATOM     25  C   UNL     1       6.535  -5.122  26.313  0.00  0.00    +0.121 A 
ATOM     26  C   UNL     1       5.794  -3.972  26.583  0.00  0.00    +0.046 A 
ATOM     27  C   UNL     1       6.353  -2.716  26.402  0.00  0.00    +0.016 A 
BRANCH  25  28
ATOM     28  O   UNL     1       6.068  -6.397  26.516  0.00  0.00    -0.492 OA
BRANCH  28  29
ATOM     29  C   UNL     1       4.694  -6.465  26.916  0.00  0.00    +0.229 C 
BRANCH  29  30
ATOM     30  C   UNL     1       3.837  -7.138  25.857  0.00  0.00    +0.041 C 
BRANCH  30  31
ATOM     31  C   UNL     1       4.532  -7.141  24.500  0.00  0.00    +0.008 C 
BRANCH  31  32
ATOM     32  C   UNL     1       3.934  -6.080  23.579  0.00  0.00    +0.035 C 
BRANCH  32  33
ATOM     33  C   UNL     1       5.009  -5.158  23.068  0.00  0.00    -0.047 A 
ATOM     34  C   UNL     1       4.847  -3.770  23.152  0.00  0.00    +0.003 A 
ATOM     35  C   UNL     1       5.863  -2.915  22.724  0.00  0.00    +0.000 A 
ATOM     36  C   UNL     1       7.048  -3.442  22.214  0.00  0.00    +0.000 A 
ATOM     37  C   UNL     1       7.221  -4.823  22.132  0.00  0.00    +0.000 A 
ATOM     38  C   UNL     1       6.205  -5.678  22.559  0.00  0.00    +0.003 A 
ENDBRANCH  32  33
ENDBRANCH  31  32
ENDBRANCH  30  31
ENDBRANCH  29  30
ENDBRANCH  28  29
ENDBRANCH  25  28
ENDBRANCH   2  22
TORSDOF 9
ENDMDL
MODEL 8
REMARK VINA RESULT:      -6.9      3.759     10.454
REMARK  Name = 
REMARK  9 active torsions:
REMARK  status: ('A' for Active; 'I' for Inactive)
REMARK    1  A    between atoms: C_2  and  C_20
REMARK    2  A    between atoms: N_3  and  C_4
REMARK    3  A    between atoms: C_13  and  C_15
REMARK    4  A    between atoms: C_23  and  O_24
REMARK    5  A    between atoms: O_24  and  C_25
REMARK    6  A    between atoms: C_25  and  C_26
REMARK    7  A    between atoms: C_26  and  C_27
REMARK    8  A    between atoms: C_27  and  C_28
REMARK    9  A    between atoms: C_28  and  C_29
REMARK                            x       y       z     vdW  Elec       q    Type
REMARK                         _______ _______ _______ _____ _____    ______ ____
ROOT
ATOM      1  O   UNL     1       7.353   0.475  26.933  0.00  0.00    -0.270 OA
ATOM      2  C   UNL     1       6.871   0.065  25.881  0.00  0.00    +0.248 C 
ATOM      3  N   UNL     1       6.858   0.739  24.676  0.00  0.00    -0.281 N 
ATOM      4  H   UNL     1       6.392   0.301  23.892  0.00  0.00    +0.155 HD
ENDROOT
BRANCH   3   5
ATOM      5  C   UNL     1       7.345   2.054  24.476  0.00  0.00    +0.037 A 
ATOM      6  C   UNL     1       6.433   3.110  24.598  0.00  0.00    +0.024 A 
ATOM      7  C   UNL     1       6.858   4.435  24.449  0.00  0.00    +0.017 A 
ATOM      8  C   UNL     1       8.199   4.705  24.164  0.00  0.00    +0.064 A 
ATOM      9  C   UNL     1       8.686   6.080  24.005  0.00  0.00    +0.193 A 
ATOM     10  C   UNL     1      10.093   6.244  23.633  0.00  0.00    +0.101 A 
ATOM     11  C   UNL     1      10.876   5.164  23.490  0.00  0.00    +0.180 A 
ATOM     12  O   UNL     1      10.433   3.865  23.712  0.00  0.00    -0.451 OA
ATOM     13  O   UNL     1       7.953   7.049  24.161  0.00  0.00    -0.287 OA
ATOM     14  C   UNL     1       9.109   3.668  24.020  0.00  0.00    +0.141 A 
ATOM     15  C   UNL     1       8.683   2.349  24.183  0.00  0.00    +0.070 A 
BRANCH  11  16
ATOM     16  C   UNL     1      12.247   5.254  23.076  0.00  0.00    +0.239 A 
ATOM     17  N   UNL     1      12.595   5.923  21.926  0.00  0.00    -0.105 NA
ATOM     18  N   UNL     1      13.917   5.865  21.834  0.00  0.00    -0.048 NA
ATOM     19  N   UNL     1      14.300   5.178  22.911  0.00  0.00    -0.176 N 
ATOM     20  H   UNL     1      15.281   4.984  23.106  0.00  0.00    +0.214 HD
ATOM     21  N   UNL     1      13.318   4.763  23.727  0.00  0.00    -0.130 NA
ENDBRANCH  11  16
ENDBRANCH   3   5
BRANCH   2  22
ATOM     22  C   UNL     1       6.200  -1.256  25.936  0.00  0.00    +0.037 A 
ATOM     23  C   UNL     1       5.070  -1.619  25.196  0.00  0.00    +0.016 A 
ATOM     24  C   UNL     1       4.602  -2.944  25.258  0.00  0.00    +0.046 A 
ATOM     25  C   UNL     1       5.254  -3.897  26.052  0.00  0.00    +0.121 A 
ATOM     26  C   UNL     1       6.358  -3.507  26.809  0.00  0.00    +0.046 A 
ATOM     27  C   UNL     1       6.827  -2.203  26.749  0.00  0.00    +0.016 A 
BRANCH  25  28
ATOM     28  O   UNL     1       4.764  -5.179  26.020  0.00  0.00    -0.492 OA
BRANCH  28  29
ATOM     29  C   UNL     1       5.537  -6.086  25.224  0.00  0.00    +0.229 C 
BRANCH  29  30
ATOM     30  C   UNL     1       5.129  -6.032  23.761  0.00  0.00    +0.041 C 
BRANCH  30  31
ATOM     31  C   UNL     1       6.334  -5.788  22.858  0.00  0.00    +0.008 C 
BRANCH  31  32
ATOM     32  C   UNL     1       6.337  -4.357  22.327  0.00  0.00    +0.035 C 
BRANCH  32  33
ATOM     33  C   UNL     1       7.479  -3.575  22.920  0.00  0.00    -0.047 A 
ATOM     34  C   UNL     1       8.329  -4.170  23.861  0.00  0.00    +0.003 A 
ATOM     35  C   UNL     1       9.415  -3.462  24.375  0.00  0.00    +0.000 A 
ATOM     36  C   UNL     1       9.663  -2.159  23.949  0.00  0.00    +0.000 A 
ATOM     37  C   UNL     1       8.827  -1.561  23.007  0.00  0.00    +0.000 A 
ATOM     38  C   UNL     1       7.739  -2.267  22.493  0.00  0.00    +0.003 A 
ENDBRANCH  32  33
ENDBRANCH  31  32
ENDBRANCH  30  31
ENDBRANCH  29  30
ENDBRANCH  28  29
ENDBRANCH  25  28
ENDBRANCH   2  22
TORSDOF 9
ENDMDL
MODEL 9
REMARK VINA RESULT:      -6.7      3.749     10.669
REMARK  Name = 
REMARK  9 active torsions:
REMARK  status: ('A' for Active; 'I' for Inactive)
REMARK    1  A    between atoms: C_2  and  C_20
REMARK    2  A    between atoms: N_3  and  C_4
REMARK    3  A    between atoms: C_13  and  C_15
REMARK    4  A    between atoms: C_23  and  O_24
REMARK    5  A    between atoms: O_24  and  C_25
REMARK    6  A    between atoms: C_25  and  C_26
REMARK    7  A    between atoms: C_26  and  C_27
REMARK    8  A    between atoms: C_27  and  C_28
REMARK    9  A    between atoms: C_28  and  C_29
REMARK                            x       y       z     vdW  Elec       q    Type
REMARK                         _______ _______ _______ _____ _____    ______ ____
ROOT
ATOM      1  O   UNL     1       5.193   0.841  25.789  0.00  0.00    -0.270 OA
ATOM      2  C   UNL     1       5.671   0.076  24.957  0.00  0.00    +0.248 C 
ATOM      3  N   UNL     1       6.454   0.435  23.878  0.00  0.00    -0.281 N 
ATOM      4  H   UNL     1       6.751  -0.295  23.244  0.00  0.00    +0.155 HD
ENDROOT
BRANCH   3   5
ATOM      5  C   UNL     1       6.783   1.765  23.519  0.00  0.00    +0.037 A 
ATOM      6  C   UNL     1       5.924   2.430  22.634  0.00  0.00    +0.024 A 
ATOM      7  C   UNL     1       6.171   3.758  22.269  0.00  0.00    +0.017 A 
ATOM      8  C   UNL     1       7.289   4.421  22.781  0.00  0.00    +0.064 A 
ATOM      9  C   UNL     1       7.582   5.815  22.427  0.00  0.00    +0.193 A 
ATOM     10  C   UNL     1       8.820   6.386  22.962  0.00  0.00    +0.101 A 
ATOM     11  C   UNL     1       9.605   5.650  23.763  0.00  0.00    +0.180 A 
ATOM     12  O   UNL     1       9.291   4.354  24.156  0.00  0.00    -0.451 OA
ATOM     13  O   UNL     1       6.837   6.471  21.709  0.00  0.00    -0.287 OA
ATOM     14  C   UNL     1       8.160   3.768  23.642  0.00  0.00    +0.141 A 
ATOM     15  C   UNL     1       7.902   2.448  24.014  0.00  0.00    +0.070 A 
BRANCH  11  16
ATOM     16  C   UNL     1      10.856   6.132  24.274  0.00  0.00    +0.239 A 
ATOM     17  N   UNL     1      10.921   6.783  25.483  0.00  0.00    -0.105 NA
ATOM     18  N   UNL     1      12.198   7.069  25.697  0.00  0.00    -0.048 NA
ATOM     19  N   UNL     1      12.835   6.586  24.628  0.00  0.00    -0.176 N 
ATOM     20  H   UNL     1      13.845   6.658  24.525  0.00  0.00    +0.214 HD
ATOM     21  N   UNL     1      12.066   5.993  23.701  0.00  0.00    -0.130 NA
ENDBRANCH  11  16
ENDBRANCH   3   5
BRANCH   2  22
ATOM     22  C   UNL     1       5.322  -1.357  25.105  0.00  0.00    +0.037 A 
ATOM     23  C   UNL     1       4.701  -1.926  26.222  0.00  0.00    +0.016 A 
ATOM     24  C   UNL     1       4.322  -3.280  26.185  0.00  0.00    +0.046 A 
ATOM     25  C   UNL     1       4.563  -4.060  25.045  0.00  0.00    +0.121 A 
ATOM     26  C   UNL     1       5.215  -3.484  23.956  0.00  0.00    +0.046 A 
ATOM     27  C   UNL     1       5.587  -2.148  23.984  0.00  0.00    +0.016 A 
BRANCH  25  28
ATOM     28  O   UNL     1       4.120  -5.359  25.071  0.00  0.00    -0.492 OA
BRANCH  28  29
ATOM     29  C   UNL     1       5.133  -6.321  25.394  0.00  0.00    +0.229 C 
BRANCH  29  30
ATOM     30  C   UNL     1       5.442  -6.327  26.882  0.00  0.00    +0.041 C 
BRANCH  30  31
ATOM     31  C   UNL     1       6.708  -5.534  27.189  0.00  0.00    +0.008 C 
BRANCH  31  32
ATOM     32  C   UNL     1       7.683  -5.587  26.016  0.00  0.00    +0.035 C 
BRANCH  32  33
ATOM     33  C   UNL     1       8.221  -4.214  25.714  0.00  0.00    -0.047 A 
ATOM     34  C   UNL     1       8.818  -3.946  24.475  0.00  0.00    +0.003 A 
ATOM     35  C   UNL     1       9.272  -2.661  24.176  0.00  0.00    +0.000 A 
ATOM     36  C   UNL     1       9.129  -1.637  25.109  0.00  0.00    +0.000 A 
ATOM     37  C   UNL     1       8.530  -1.892  26.341  0.00  0.00    +0.000 A 
ATOM     38  C   UNL     1       8.076  -3.176  26.642  0.00  0.00    +0.003 A 
ENDBRANCH  32  33
ENDBRANCH  31  32
ENDBRANCH  30  31
ENDBRANCH  29  30
ENDBRANCH  28  29
ENDBRANCH  25  28
ENDBRANCH   2  22
TORSDOF 9
ENDMDL
