MODEL 1
REMARK VINA RESULT:      -6.3      0.000      0.000
REMARK  Name = 
REMARK  3 active torsions:
REMARK  status: ('A' for Active; 'I' for Inactive)
REMARK    1  A    between atoms: O_1  and  C_2
REMARK    2  A    between atoms: C_6  and  C_9
REMARK    3  A    between atoms: C_7  and  O_8
REMARK                            x       y       z     vdW  Elec       q    Type
REMARK                         _______ _______ _______ _____ _____    ______ ____
ROOT
ATOM      1  C   UNL     1       9.819  -0.193  22.154  0.00  0.00    +0.159 A 
ATOM      2  C   UNL     1       9.911   1.202  22.279  0.00  0.00    +0.166 A 
ATOM      3  C   UNL     1      10.322   1.819  23.486  0.00  0.00    +0.029 A 
ATOM      4  C   UNL     1      10.688   0.940  24.525  0.00  0.00    +0.012 A 
ATOM      5  C   UNL     1      10.541  -0.452  24.420  0.00  0.00    +0.004 A 
ATOM      6  C   UNL     1      10.097  -1.020  23.232  0.00  0.00    +0.049 A 
ENDROOT
BRANCH   3   7
ATOM      7  C   UNL     1      10.363   3.305  23.685  0.00  0.00    +0.004 A 
ATOM      8  C   UNL     1      11.565   4.011  23.450  0.00  0.00    +0.010 A 
ATOM      9  C   UNL     1      11.638   5.410  23.503  0.00  0.00    +0.001 A 
ATOM     10  C   UNL     1      10.522   6.153  23.860  0.00  0.00    +0.001 A 
ATOM     11  C   UNL     1       9.336   5.492  24.162  0.00  0.00    +0.020 A 
ATOM     12  C   UNL     1       9.246   4.094  24.059  0.00  0.00    +0.049 A 
ATOM     13 CL   UNL     1       7.659   3.449  24.347  0.00  0.00    -0.083 Cl
ENDBRANCH   3   7
BRANCH   1  14
ATOM     14  O   UNL     1       9.414  -0.732  20.962  0.00  0.00    -0.503 OA
ATOM     15  H   UNL     1       8.786  -1.448  21.138  0.00  0.00    +0.292 HD
ENDBRANCH   1  14
BRANCH   2  16
ATOM     16  O   UNL     1       9.557   1.927  21.168  0.00  0.00    -0.503 OA
ATOM     17  H   UNL     1       9.029   1.350  20.605  0.00  0.00    +0.292 HD
ENDBRANCH   2  16
TORSDOF 3
ENDMDL
MODEL 2
REMARK VINA RESULT:      -6.0      1.543      1.995
REMARK  Name = 
REMARK  3 active torsions:
REMARK  status: ('A' for Active; 'I' for Inactive)
REMARK    1  A    between atoms: O_1  and  C_2
REMARK    2  A    between atoms: C_6  and  C_9
REMARK    3  A    between atoms: C_7  and  O_8
REMARK                            x       y       z     vdW  Elec       q    Type
REMARK                         _______ _______ _______ _____ _____    ______ ____
ROOT
ATOM      1  C   UNL     1       9.869  -0.596  23.472  0.00  0.00    +0.159 A 
ATOM      2  C   UNL     1      10.093   0.715  23.920  0.00  0.00    +0.166 A 
ATOM      3  C   UNL     1       9.967   1.832  23.058  0.00  0.00    +0.029 A 
ATOM      4  C   UNL     1       9.545   1.542  21.745  0.00  0.00    +0.012 A 
ATOM      5  C   UNL     1       9.377   0.229  21.280  0.00  0.00    +0.004 A 
ATOM      6  C   UNL     1       9.547  -0.845  22.146  0.00  0.00    +0.049 A 
ENDROOT
BRANCH   3   7
ATOM      7  C   UNL     1      10.269   3.240  23.477  0.00  0.00    +0.004 A 
ATOM      8  C   UNL     1      11.559   3.777  23.255  0.00  0.00    +0.010 A 
ATOM      9  C   UNL     1      11.868   5.119  23.514  0.00  0.00    +0.001 A 
ATOM     10  C   UNL     1      10.914   5.960  24.070  0.00  0.00    +0.001 A 
ATOM     11  C   UNL     1       9.652   5.453  24.362  0.00  0.00    +0.020 A 
ATOM     12  C   UNL     1       9.323   4.123  24.055  0.00  0.00    +0.049 A 
ATOM     13 CL   UNL     1       7.669   3.697  24.369  0.00  0.00    -0.083 Cl
ENDBRANCH   3   7
BRANCH   1  14
ATOM     14  O   UNL     1      10.007  -1.636  24.351  0.00  0.00    -0.503 OA
ATOM     15  H   UNL     1       9.134  -1.881  24.690  0.00  0.00    +0.292 HD
ENDBRANCH   1  14
BRANCH   2  16
ATOM     16  O   UNL     1      10.462   0.842  25.237  0.00  0.00    -0.503 OA
ATOM     17  H   UNL     1      10.628  -0.045  25.574  0.00  0.00    +0.292 HD
ENDBRANCH   2  16
TORSDOF 3
ENDMDL
MODEL 3
REMARK VINA RESULT:      -5.9      1.410      1.943
REMARK  Name = 
REMARK  3 active torsions:
REMARK  status: ('A' for Active; 'I' for Inactive)
REMARK    1  A    between atoms: O_1  and  C_2
REMARK    2  A    between atoms: C_6  and  C_9
REMARK    3  A    between atoms: C_7  and  O_8
REMARK                            x       y       z     vdW  Elec       q    Type
REMARK                         _______ _______ _______ _____ _____    ______ ____
ROOT
ATOM      1  C   UNL     1       9.874   0.050  22.296  0.00  0.00    +0.159 A 
ATOM      2  C   UNL     1       9.671   1.433  22.419  0.00  0.00    +0.166 A 
ATOM      3  C   UNL     1       9.804   2.101  23.661  0.00  0.00    +0.029 A 
ATOM      4  C   UNL     1      10.212   1.297  24.744  0.00  0.00    +0.012 A 
ATOM      5  C   UNL     1      10.359  -0.095  24.634  0.00  0.00    +0.004 A 
ATOM      6  C   UNL     1      10.181  -0.721  23.407  0.00  0.00    +0.049 A 
ENDROOT
BRANCH   3   7
ATOM      7  C   UNL     1       9.525   3.563  23.850  0.00  0.00    +0.004 A 
ATOM      8  C   UNL     1       8.240   3.984  24.264  0.00  0.00    +0.010 A 
ATOM      9  C   UNL     1       7.951   5.320  24.572  0.00  0.00    +0.001 A 
ATOM     10  C   UNL     1       8.921   6.299  24.411  0.00  0.00    +0.001 A 
ATOM     11  C   UNL     1      10.180   5.935  23.944  0.00  0.00    +0.020 A 
ATOM     12  C   UNL     1      10.489   4.590  23.685  0.00  0.00    +0.049 A 
ATOM     13 CL   UNL     1      12.141   4.302  23.234  0.00  0.00    -0.083 Cl
ENDBRANCH   3   7
BRANCH   1  14
ATOM     14  O   UNL     1       9.728  -0.541  21.070  0.00  0.00    -0.503 OA
ATOM     15  H   UNL     1       9.246   0.062  20.484  0.00  0.00    +0.292 HD
ENDBRANCH   1  14
BRANCH   2  16
ATOM     16  O   UNL     1       9.315   2.090  21.267  0.00  0.00    -0.503 OA
ATOM     17  H   UNL     1       9.796   2.924  21.251  0.00  0.00    +0.292 HD
ENDBRANCH   2  16
TORSDOF 3
ENDMDL
MODEL 4
REMARK VINA RESULT:      -5.8      3.123      4.653
REMARK  Name = 
REMARK  3 active torsions:
REMARK  status: ('A' for Active; 'I' for Inactive)
REMARK    1  A    between atoms: O_1  and  C_2
REMARK    2  A    between atoms: C_6  and  C_9
REMARK    3  A    between atoms: C_7  and  O_8
REMARK                            x       y       z     vdW  Elec       q    Type
REMARK                         _______ _______ _______ _____ _____    ______ ____
ROOT
ATOM      1  C   UNL     1       7.983  -4.160  23.494  0.00  0.00    +0.159 A 
ATOM      2  C   UNL     1       8.741  -2.982  23.569  0.00  0.00    +0.166 A 
ATOM      3  C   UNL     1       8.192  -1.717  23.246  0.00  0.00    +0.029 A 
ATOM      4  C   UNL     1       6.824  -1.716  22.906  0.00  0.00    +0.012 A 
ATOM      5  C   UNL     1       6.081  -2.899  22.775  0.00  0.00    +0.004 A 
ATOM      6  C   UNL     1       6.665  -4.127  23.062  0.00  0.00    +0.049 A 
ENDROOT
BRANCH   3   7
ATOM      7  C   UNL     1       8.987  -0.445  23.243  0.00  0.00    +0.004 A 
ATOM      8  C   UNL     1       9.298   0.184  22.015  0.00  0.00    +0.010 A 
ATOM      9  C   UNL     1       9.933   1.432  21.950  0.00  0.00    +0.001 A 
ATOM     10  C   UNL     1      10.341   2.068  23.114  0.00  0.00    +0.001 A 
ATOM     11  C   UNL     1      10.111   1.452  24.339  0.00  0.00    +0.020 A 
ATOM     12  C   UNL     1       9.429   0.226  24.410  0.00  0.00    +0.049 A 
ATOM     13 CL   UNL     1       9.115  -0.334  26.024  0.00  0.00    -0.083 Cl
ENDBRANCH   3   7
BRANCH   1  14
ATOM     14  O   UNL     1       8.569  -5.355  23.816  0.00  0.00    -0.503 OA
ATOM     15  H   UNL     1       7.970  -6.076  23.572  0.00  0.00    +0.292 HD
ENDBRANCH   1  14
BRANCH   2  16
ATOM     16  O   UNL     1      10.051  -3.138  23.953  0.00  0.00    -0.503 OA
ATOM     17  H   UNL     1      10.058  -3.252  24.909  0.00  0.00    +0.292 HD
ENDBRANCH   2  16
TORSDOF 3
ENDMDL
MODEL 5
REMARK VINA RESULT:      -5.6      4.107      6.654
REMARK  Name = 
REMARK  3 active torsions:
REMARK  status: ('A' for Active; 'I' for Inactive)
REMARK    1  A    between atoms: O_1  and  C_2
REMARK    2  A    between atoms: C_6  and  C_9
REMARK    3  A    between atoms: C_7  and  O_8
REMARK                            x       y       z     vdW  Elec       q    Type
REMARK                         _______ _______ _______ _____ _____    ______ ____
ROOT
ATOM      1  C   UNL     1       7.126   1.019  22.436  0.00  0.00    +0.159 A 
ATOM      2  C   UNL     1       7.195  -0.267  22.992  0.00  0.00    +0.166 A 
ATOM      3  C   UNL     1       8.302  -1.121  22.766  0.00  0.00    +0.029 A 
ATOM      4  C   UNL     1       9.350  -0.570  22.001  0.00  0.00    +0.012 A 
ATOM      5  C   UNL     1       9.257   0.693  21.397  0.00  0.00    +0.004 A 
ATOM      6  C   UNL     1       8.137   1.488  21.609  0.00  0.00    +0.049 A 
ENDROOT
BRANCH   3   7
ATOM      7  C   UNL     1       8.382  -2.528  23.280  0.00  0.00    +0.004 A 
ATOM      8  C   UNL     1       9.314  -2.853  24.293  0.00  0.00    +0.010 A 
ATOM      9  C   UNL     1       9.357  -4.117  24.897  0.00  0.00    +0.001 A 
ATOM     10  C   UNL     1       8.510  -5.126  24.462  0.00  0.00    +0.001 A 
ATOM     11  C   UNL     1       7.622  -4.866  23.424  0.00  0.00    +0.020 A 
ATOM     12  C   UNL     1       7.541  -3.586  22.853  0.00  0.00    +0.049 A 
ATOM     13 CL   UNL     1       6.290  -3.405  21.660  0.00  0.00    -0.083 Cl
ENDBRANCH   3   7
BRANCH   1  14
ATOM     14  O   UNL     1       6.029   1.799  22.687  0.00  0.00    -0.503 OA
ATOM     15  H   UNL     1       5.228   1.274  22.537  0.00  0.00    +0.292 HD
ENDBRANCH   1  14
BRANCH   2  16
ATOM     16  O   UNL     1       6.114  -0.650  23.747  0.00  0.00    -0.503 OA
ATOM     17  H   UNL     1       5.795   0.131  24.210  0.00  0.00    +0.292 HD
ENDBRANCH   2  16
TORSDOF 3
ENDMDL
MODEL 6
REMARK VINA RESULT:      -5.5      4.791      6.669
REMARK  Name = 
REMARK  3 active torsions:
REMARK  status: ('A' for Active; 'I' for Inactive)
REMARK    1  A    between atoms: O_1  and  C_2
REMARK    2  A    between atoms: C_6  and  C_9
REMARK    3  A    between atoms: C_7  and  O_8
REMARK                            x       y       z     vdW  Elec       q    Type
REMARK                         _______ _______ _______ _____ _____    ______ ____
ROOT
ATOM      1  C   UNL     1       7.312  -5.307  26.743  0.00  0.00    +0.159 A 
ATOM      2  C   UNL     1       8.181  -4.270  26.371  0.00  0.00    +0.166 A 
ATOM      3  C   UNL     1       7.848  -3.347  25.349  0.00  0.00    +0.029 A 
ATOM      4  C   UNL     1       6.568  -3.503  24.781  0.00  0.00    +0.012 A 
ATOM      5  C   UNL     1       5.723  -4.574  25.112  0.00  0.00    +0.004 A 
ATOM      6  C   UNL     1       6.100  -5.484  26.092  0.00  0.00    +0.049 A 
ENDROOT
BRANCH   3   7
ATOM      7  C   UNL     1       8.777  -2.271  24.870  0.00  0.00    +0.004 A 
ATOM      8  C   UNL     1       9.432  -2.413  23.625  0.00  0.00    +0.010 A 
ATOM      9  C   UNL     1      10.217  -1.393  23.069  0.00  0.00    +0.001 A 
ATOM     10  C   UNL     1      10.430  -0.216  23.771  0.00  0.00    +0.001 A 
ATOM     11  C   UNL     1       9.855  -0.063  25.028  0.00  0.00    +0.020 A 
ATOM     12  C   UNL     1       9.026  -1.061  25.566  0.00  0.00    +0.049 A 
ATOM     13 CL   UNL     1       8.291  -0.649  27.084  0.00  0.00    -0.083 Cl
ENDBRANCH   3   7
BRANCH   1  14
ATOM     14  O   UNL     1       7.689  -6.171  27.737  0.00  0.00    -0.503 OA
ATOM     15  H   UNL     1       7.044  -6.892  27.789  0.00  0.00    +0.292 HD
ENDBRANCH   1  14
BRANCH   2  16
ATOM     16  O   UNL     1       9.378  -4.223  27.042  0.00  0.00    -0.503 OA
ATOM     17  H   UNL     1       9.318  -3.508  27.684  0.00  0.00    +0.292 HD
ENDBRANCH   2  16
TORSDOF 3
ENDMDL
MODEL 7
REMARK VINA RESULT:      -5.4      3.577      6.471
REMARK  Name = 
REMARK  3 active torsions:
REMARK  status: ('A' for Active; 'I' for Inactive)
REMARK    1  A    between atoms: O_1  and  C_2
REMARK    2  A    between atoms: C_6  and  C_9
REMARK    3  A    between atoms: C_7  and  O_8
REMARK                            x       y       z     vdW  Elec       q    Type
REMARK                         _______ _______ _______ _____ _____    ______ ____
ROOT
ATOM      1  C   UNL     1       8.757   1.179  22.040  0.00  0.00    +0.159 A 
ATOM      2  C   UNL     1       8.894  -0.201  22.253  0.00  0.00    +0.166 A 
ATOM      3  C   UNL     1       7.976  -0.929  23.049  0.00  0.00    +0.029 A 
ATOM      4  C   UNL     1       6.889  -0.189  23.556  0.00  0.00    +0.012 A 
ATOM      5  C   UNL     1       6.783   1.201  23.391  0.00  0.00    +0.004 A 
ATOM      6  C   UNL     1       7.725   1.889  22.636  0.00  0.00    +0.049 A 
ENDROOT
BRANCH   3   7
ATOM      7  C   UNL     1       8.126  -2.388  23.363  0.00  0.00    +0.004 A 
ATOM      8  C   UNL     1       9.092  -2.807  24.307  0.00  0.00    +0.010 A 
ATOM      9  C   UNL     1       9.201  -4.139  24.730  0.00  0.00    +0.001 A 
ATOM     10  C   UNL     1       8.389  -5.116  24.172  0.00  0.00    +0.001 A 
ATOM     11  C   UNL     1       7.470  -4.756  23.193  0.00  0.00    +0.020 A 
ATOM     12  C   UNL     1       7.322  -3.414  22.805  0.00  0.00    +0.049 A 
ATOM     13 CL   UNL     1       6.042  -3.128  21.667  0.00  0.00    -0.083 Cl
ENDBRANCH   3   7
BRANCH   1  14
ATOM     14  O   UNL     1       9.678   1.830  21.263  0.00  0.00    -0.503 OA
ATOM     15  H   UNL     1      10.278   1.178  20.873  0.00  0.00    +0.292 HD
ENDBRANCH   1  14
BRANCH   2  16
ATOM     16  O   UNL     1       9.984  -0.792  21.663  0.00  0.00    -0.503 OA
ATOM     17  H   UNL     1       9.682  -1.196  20.843  0.00  0.00    +0.292 HD
ENDBRANCH   2  16
TORSDOF 3
ENDMDL
MODEL 8
REMARK VINA RESULT:      -5.4      3.779      6.995
REMARK  Name = 
REMARK  3 active torsions:
REMARK  status: ('A' for Active; 'I' for Inactive)
REMARK    1  A    between atoms: O_1  and  C_2
REMARK    2  A    between atoms: C_6  and  C_9
REMARK    3  A    between atoms: C_7  and  O_8
REMARK                            x       y       z     vdW  Elec       q    Type
REMARK                         _______ _______ _______ _____ _____    ______ ____
ROOT
ATOM      1  C   UNL     1       8.835   0.693  22.182  0.00  0.00    +0.159 A 
ATOM      2  C   UNL     1       8.631  -0.690  22.065  0.00  0.00    +0.166 A 
ATOM      3  C   UNL     1       7.592  -1.353  22.763  0.00  0.00    +0.029 A 
ATOM      4  C   UNL     1       6.746  -0.525  23.527  0.00  0.00    +0.012 A 
ATOM      5  C   UNL     1       6.984   0.849  23.689  0.00  0.00    +0.004 A 
ATOM      6  C   UNL     1       8.038   1.459  23.020  0.00  0.00    +0.049 A 
ENDROOT
BRANCH   3   7
ATOM      7  C   UNL     1       7.385  -2.839  22.724  0.00  0.00    +0.004 A 
ATOM      8  C   UNL     1       6.410  -3.388  21.860  0.00  0.00    +0.010 A 
ATOM      9  C   UNL     1       6.250  -4.771  21.691  0.00  0.00    +0.001 A 
ATOM     10  C   UNL     1       7.017  -5.657  22.433  0.00  0.00    +0.001 A 
ATOM     11  C   UNL     1       7.943  -5.156  23.342  0.00  0.00    +0.020 A 
ATOM     12  C   UNL     1       8.142  -3.772  23.476  0.00  0.00    +0.049 A 
ATOM     13 CL   UNL     1       9.425  -3.328  24.559  0.00  0.00    -0.083 Cl
ENDBRANCH   3   7
BRANCH   1  14
ATOM     14  O   UNL     1       9.858   1.279  21.485  0.00  0.00    -0.503 OA
ATOM     15  H   UNL     1       9.489   1.771  20.737  0.00  0.00    +0.292 HD
ENDBRANCH   1  14
BRANCH   2  16
ATOM     16  O   UNL     1       9.514  -1.359  21.254  0.00  0.00    -0.503 OA
ATOM     17  H   UNL     1      10.401  -1.080  21.504  0.00  0.00    +0.292 HD
ENDBRANCH   2  16
TORSDOF 3
ENDMDL
MODEL 9
REMARK VINA RESULT:      -5.4      4.374      6.166
REMARK  Name = 
REMARK  3 active torsions:
REMARK  status: ('A' for Active; 'I' for Inactive)
REMARK    1  A    between atoms: O_1  and  C_2
REMARK    2  A    between atoms: C_6  and  C_9
REMARK    3  A    between atoms: C_7  and  O_8
REMARK                            x       y       z     vdW  Elec       q    Type
REMARK                         _______ _______ _______ _____ _____    ______ ____
ROOT
ATOM      1  C   UNL     1       8.010  -4.680  26.403  0.00  0.00    +0.159 A 
ATOM      2  C   UNL     1       8.643  -3.883  25.436  0.00  0.00    +0.166 A 
ATOM      3  C   UNL     1       8.187  -2.578  25.129  0.00  0.00    +0.029 A 
ATOM      4  C   UNL     1       7.101  -2.115  25.899  0.00  0.00    +0.012 A 
ATOM      5  C   UNL     1       6.433  -2.931  26.824  0.00  0.00    +0.004 A 
ATOM      6  C   UNL     1       6.884  -4.221  27.071  0.00  0.00    +0.049 A 
ENDROOT
BRANCH   3   7
ATOM      7  C   UNL     1       8.788  -1.722  24.053  0.00  0.00    +0.004 A 
ATOM      8  C   UNL     1       9.760  -0.751  24.389  0.00  0.00    +0.010 A 
ATOM      9  C   UNL     1      10.443  -0.005  23.419  0.00  0.00    +0.001 A 
ATOM     10  C   UNL     1      10.130  -0.156  22.076  0.00  0.00    +0.001 A 
ATOM     11  C   UNL     1       9.135  -1.054  21.708  0.00  0.00    +0.020 A 
ATOM     12  C   UNL     1       8.485  -1.841  22.673  0.00  0.00    +0.049 A 
ATOM     13 CL   UNL     1       7.364  -2.999  22.025  0.00  0.00    -0.083 Cl
ENDBRANCH   3   7
BRANCH   1  14
ATOM     14  O   UNL     1       8.494  -5.935  26.656  0.00  0.00    -0.503 OA
ATOM     15  H   UNL     1       8.242  -6.523  25.928  0.00  0.00    +0.292 HD
ENDBRANCH   1  14
BRANCH   2  16
ATOM     16  O   UNL     1       9.713  -4.458  24.795  0.00  0.00    -0.503 OA
ATOM     17  H   UNL     1      10.388  -3.778  24.699  0.00  0.00    +0.292 HD
ENDBRANCH   2  16
TORSDOF 3
ENDMDL
