MODEL 1
REMARK VINA RESULT:      -6.4      0.000      0.000
REMARK  Name = 
REMARK  5 active torsions:
REMARK  status: ('A' for Active; 'I' for Inactive)
REMARK    1  A    between atoms: C_1  and  C_2
REMARK    2  A    between atoms: N_6  and  C_7
REMARK    3  A    between atoms: C_7  and  C_8
REMARK    4  A    between atoms: C_8  and  C_9
REMARK    5  A    between atoms: C_16  and  C_18
REMARK                            x       y       z     vdW  Elec       q    Type
REMARK                         _______ _______ _______ _____ _____    ______ ____
ROOT
ATOM      1  C   UNL     1       3.751  -3.647  25.267  0.00  0.00    +0.067 C 
ATOM      2  C   UNL     1       5.012  -2.922  24.907  0.00  0.00    +0.062 A 
ATOM      3  N   UNL     1       4.922  -1.575  24.975  0.00  0.00    -0.230 NA
ATOM      4  C   UNL     1       6.017  -0.845  24.676  0.00  0.00    +0.180 A 
ATOM      5  N   UNL     1       7.208  -1.384  24.331  0.00  0.00    -0.210 NA
ATOM      6  C   UNL     1       7.289  -2.729  24.266  0.00  0.00    +0.141 A 
ATOM      7  N   UNL     1       8.490  -3.324  23.814  0.00  0.00    -0.327 N 
ATOM      8  H   UNL     1       8.552  -4.267  24.196  0.00  0.00    +0.148 HD
ATOM      9  C   UNL     1       6.186  -3.551  24.532  0.00  0.00    +0.102 A 
ATOM     10 CL   UNL     1       6.337  -5.273  24.454  0.00  0.00    -0.078 Cl
ENDROOT
BRANCH   4  11
ATOM     11  C   UNL     1       5.894   0.638  24.713  0.00  0.00    +0.108 A 
ATOM     12  C   UNL     1       6.903   1.480  24.237  0.00  0.00    +0.031 A 
ATOM     13  C   UNL     1       6.729   2.865  24.293  0.00  0.00    +0.004 A 
ATOM     14  C   UNL     1       5.558   3.385  24.820  0.00  0.00    +0.020 A 
ATOM     15  C   UNL     1       4.600   2.499  25.273  0.00  0.00    +0.111 A 
ATOM     16  N   UNL     1       4.741   1.157  25.233  0.00  0.00    -0.252 NA
ENDBRANCH   4  11
BRANCH   7  17
ATOM     17  C   UNL     1       9.713  -2.558  24.058  0.00  0.00    +0.107 C 
BRANCH  17  18
ATOM     18  C   UNL     1      10.139  -1.879  22.747  0.00  0.00    +0.054 C 
BRANCH  18  19
ATOM     19  C   UNL     1      10.183  -0.375  22.851  0.00  0.00    -0.046 A 
ATOM     20  C   UNL     1       9.764   0.423  21.779  0.00  0.00    +0.004 A 
ATOM     21  C   UNL     1       9.811   1.815  21.873  0.00  0.00    +0.000 A 
ATOM     22  C   UNL     1      10.274   2.421  23.041  0.00  0.00    +0.000 A 
ATOM     23  C   UNL     1      10.689   1.636  24.113  0.00  0.00    +0.000 A 
ATOM     24  C   UNL     1      10.643   0.244  24.021  0.00  0.00    +0.004 A 
ENDBRANCH  18  19
ENDBRANCH  17  18
ENDBRANCH   7  17
TORSDOF 4
ENDMDL
MODEL 2
REMARK VINA RESULT:      -6.3      0.759      1.278
REMARK  Name = 
REMARK  5 active torsions:
REMARK  status: ('A' for Active; 'I' for Inactive)
REMARK    1  A    between atoms: C_1  and  C_2
REMARK    2  A    between atoms: N_6  and  C_7
REMARK    3  A    between atoms: C_7  and  C_8
REMARK    4  A    between atoms: C_8  and  C_9
REMARK    5  A    between atoms: C_16  and  C_18
REMARK                            x       y       z     vdW  Elec       q    Type
REMARK                         _______ _______ _______ _____ _____    ______ ____
ROOT
ATOM      1  C   UNL     1       3.902  -4.318  24.184  0.00  0.00    +0.067 C 
ATOM      2  C   UNL     1       5.119  -3.444  24.147  0.00  0.00    +0.062 A 
ATOM      3  N   UNL     1       4.913  -2.180  24.576  0.00  0.00    -0.230 NA
ATOM      4  C   UNL     1       5.959  -1.328  24.585  0.00  0.00    +0.180 A 
ATOM      5  N   UNL     1       7.211  -1.673  24.208  0.00  0.00    -0.210 NA
ATOM      6  C   UNL     1       7.408  -2.937  23.781  0.00  0.00    +0.141 A 
ATOM      7  N   UNL     1       8.682  -3.305  23.287  0.00  0.00    -0.327 N 
ATOM      8  H   UNL     1       8.797  -4.311  23.397  0.00  0.00    +0.148 HD
ATOM      9  C   UNL     1       6.363  -3.867  23.715  0.00  0.00    +0.102 A 
ATOM     10 CL   UNL     1       6.663  -5.485  23.177  0.00  0.00    -0.078 Cl
ENDROOT
BRANCH   4  11
ATOM     11  C   UNL     1       5.711   0.074  25.020  0.00  0.00    +0.108 A 
ATOM     12  C   UNL     1       6.498   1.140  24.578  0.00  0.00    +0.031 A 
ATOM     13  C   UNL     1       6.214   2.436  25.016  0.00  0.00    +0.004 A 
ATOM     14  C   UNL     1       5.154   2.646  25.883  0.00  0.00    +0.020 A 
ATOM     15  C   UNL     1       4.413   1.549  26.281  0.00  0.00    +0.111 A 
ATOM     16  N   UNL     1       4.666   0.287  25.876  0.00  0.00    -0.252 NA
ENDBRANCH   4  11
BRANCH   7  17
ATOM     17  C   UNL     1       9.818  -2.564  23.836  0.00  0.00    +0.107 C 
BRANCH  17  18
ATOM     18  C   UNL     1      10.437  -1.710  22.718  0.00  0.00    +0.054 C 
BRANCH  18  19
ATOM     19  C   UNL     1      10.200  -0.233  22.906  0.00  0.00    -0.046 A 
ATOM     20  C   UNL     1      10.403   0.366  24.156  0.00  0.00    +0.004 A 
ATOM     21  C   UNL     1      10.178   1.732  24.331  0.00  0.00    +0.000 A 
ATOM     22  C   UNL     1       9.752   2.512  23.257  0.00  0.00    +0.000 A 
ATOM     23  C   UNL     1       9.551   1.928  22.009  0.00  0.00    +0.000 A 
ATOM     24  C   UNL     1       9.776   0.562  21.832  0.00  0.00    +0.004 A 
ENDBRANCH  18  19
ENDBRANCH  17  18
ENDBRANCH   7  17
TORSDOF 4
ENDMDL
MODEL 3
REMARK VINA RESULT:      -6.2      3.396      6.019
REMARK  Name = 
REMARK  5 active torsions:
REMARK  status: ('A' for Active; 'I' for Inactive)
REMARK    1  A    between atoms: C_1  and  C_2
REMARK    2  A    between atoms: N_6  and  C_7
REMARK    3  A    between atoms: C_7  and  C_8
REMARK    4  A    between atoms: C_8  and  C_9
REMARK    5  A    between atoms: C_16  and  C_18
REMARK                            x       y       z     vdW  Elec       q    Type
REMARK                         _______ _______ _______ _____ _____    ______ ____
ROOT
ATOM      1  C   UNL     1       6.209  -5.884  28.176  0.00  0.00    +0.067 C 
ATOM      2  C   UNL     1       6.102  -5.801  26.684  0.00  0.00    +0.062 A 
ATOM      3  N   UNL     1       4.966  -6.324  26.173  0.00  0.00    -0.230 NA
ATOM      4  C   UNL     1       4.785  -6.281  24.837  0.00  0.00    +0.180 A 
ATOM      5  N   UNL     1       5.667  -5.724  23.978  0.00  0.00    -0.210 NA
ATOM      6  C   UNL     1       6.798  -5.202  24.495  0.00  0.00    +0.141 A 
ATOM      7  N   UNL     1       7.787  -4.700  23.617  0.00  0.00    -0.327 N 
ATOM      8  H   UNL     1       8.343  -4.005  24.115  0.00  0.00    +0.148 HD
ATOM      9  C   UNL     1       7.069  -5.240  25.869  0.00  0.00    +0.102 A 
ATOM     10 CL   UNL     1       8.525  -4.544  26.493  0.00  0.00    -0.078 Cl
ENDROOT
BRANCH   4  11
ATOM     11  C   UNL     1       3.548  -6.899  24.283  0.00  0.00    +0.108 A 
ATOM     12  C   UNL     1       2.859  -6.342  23.202  0.00  0.00    +0.031 A 
ATOM     13  C   UNL     1       1.708  -6.970  22.722  0.00  0.00    +0.004 A 
ATOM     14  C   UNL     1       1.264  -8.138  23.323  0.00  0.00    +0.020 A 
ATOM     15  C   UNL     1       1.993  -8.637  24.387  0.00  0.00    +0.111 A 
ATOM     16  N   UNL     1       3.107  -8.051  24.873  0.00  0.00    -0.252 NA
ENDBRANCH   4  11
BRANCH   7  17
ATOM     17  C   UNL     1       7.302  -4.190  22.334  0.00  0.00    +0.107 C 
BRANCH  17  18
ATOM     18  C   UNL     1       6.944  -2.705  22.496  0.00  0.00    +0.054 C 
BRANCH  18  19
ATOM     19  C   UNL     1       8.129  -1.852  22.873  0.00  0.00    -0.046 A 
ATOM     20  C   UNL     1       9.145  -1.595  21.943  0.00  0.00    +0.004 A 
ATOM     21  C   UNL     1      10.244  -0.810  22.295  0.00  0.00    +0.000 A 
ATOM     22  C   UNL     1      10.335  -0.271  23.577  0.00  0.00    +0.000 A 
ATOM     23  C   UNL     1       9.329  -0.516  24.508  0.00  0.00    +0.000 A 
ATOM     24  C   UNL     1       8.229  -1.301  24.158  0.00  0.00    +0.004 A 
ENDBRANCH  18  19
ENDBRANCH  17  18
ENDBRANCH   7  17
TORSDOF 4
ENDMDL
MODEL 4
REMARK VINA RESULT:      -6.1      2.530      5.574
REMARK  Name = 
REMARK  5 active torsions:
REMARK  status: ('A' for Active; 'I' for Inactive)
REMARK    1  A    between atoms: C_1  and  C_2
REMARK    2  A    between atoms: N_6  and  C_7
REMARK    3  A    between atoms: C_7  and  C_8
REMARK    4  A    between atoms: C_8  and  C_9
REMARK    5  A    between atoms: C_16  and  C_18
REMARK                            x       y       z     vdW  Elec       q    Type
REMARK                         _______ _______ _______ _____ _____    ______ ____
ROOT
ATOM      1  C   UNL     1      10.232  -5.245  25.606  0.00  0.00    +0.067 C 
ATOM      2  C   UNL     1       9.179  -4.203  25.380  0.00  0.00    +0.062 A 
ATOM      3  N   UNL     1       9.563  -3.183  24.582  0.00  0.00    -0.230 NA
ATOM      4  C   UNL     1       8.672  -2.205  24.319  0.00  0.00    +0.180 A 
ATOM      5  N   UNL     1       7.405  -2.197  24.791  0.00  0.00    -0.210 NA
ATOM      6  C   UNL     1       7.029  -3.220  25.586  0.00  0.00    +0.141 A 
ATOM      7  N   UNL     1       5.744  -3.194  26.177  0.00  0.00    -0.327 N 
ATOM      8  H   UNL     1       5.459  -4.151  26.382  0.00  0.00    +0.148 HD
ATOM      9  C   UNL     1       7.910  -4.253  25.929  0.00  0.00    +0.102 A 
ATOM     10 CL   UNL     1       7.382  -5.555  26.939  0.00  0.00    -0.078 Cl
ENDROOT
BRANCH   4  11
ATOM     11  C   UNL     1       9.120  -1.065  23.472  0.00  0.00    +0.108 A 
ATOM     12  C   UNL     1       8.907  -1.035  22.092  0.00  0.00    +0.031 A 
ATOM     13  C   UNL     1       9.345   0.064  21.350  0.00  0.00    +0.004 A 
ATOM     14  C   UNL     1       9.985   1.112  21.994  0.00  0.00    +0.020 A 
ATOM     15  C   UNL     1      10.163   1.021  23.361  0.00  0.00    +0.111 A 
ATOM     16  N   UNL     1       9.752  -0.029  24.103  0.00  0.00    -0.252 NA
ENDBRANCH   4  11
BRANCH   7  17
ATOM     17  C   UNL     1       4.714  -2.468  25.434  0.00  0.00    +0.107 C 
BRANCH  17  18
ATOM     18  C   UNL     1       3.915  -3.471  24.588  0.00  0.00    +0.054 C 
BRANCH  18  19
ATOM     19  C   UNL     1       4.742  -4.119  23.506  0.00  0.00    -0.046 A 
ATOM     20  C   UNL     1       4.975  -5.500  23.521  0.00  0.00    +0.004 A 
ATOM     21  C   UNL     1       5.746  -6.098  22.522  0.00  0.00    +0.000 A 
ATOM     22  C   UNL     1       6.287  -5.321  21.499  0.00  0.00    +0.000 A 
ATOM     23  C   UNL     1       6.058  -3.948  21.473  0.00  0.00    +0.000 A 
ATOM     24  C   UNL     1       5.288  -3.348  22.470  0.00  0.00    +0.004 A 
ENDBRANCH  18  19
ENDBRANCH  17  18
ENDBRANCH   7  17
TORSDOF 4
ENDMDL
MODEL 5
REMARK VINA RESULT:      -6.1      2.116      2.602
REMARK  Name = 
REMARK  5 active torsions:
REMARK  status: ('A' for Active; 'I' for Inactive)
REMARK    1  A    between atoms: C_1  and  C_2
REMARK    2  A    between atoms: N_6  and  C_7
REMARK    3  A    between atoms: C_7  and  C_8
REMARK    4  A    between atoms: C_8  and  C_9
REMARK    5  A    between atoms: C_16  and  C_18
REMARK                            x       y       z     vdW  Elec       q    Type
REMARK                         _______ _______ _______ _____ _____    ______ ____
ROOT
ATOM      1  C   UNL     1       6.850  -4.238  26.843  0.00  0.00    +0.067 C 
ATOM      2  C   UNL     1       7.440  -3.097  26.070  0.00  0.00    +0.062 A 
ATOM      3  N   UNL     1       7.235  -1.881  26.623  0.00  0.00    -0.230 NA
ATOM      4  C   UNL     1       7.741  -0.799  25.995  0.00  0.00    +0.180 A 
ATOM      5  N   UNL     1       8.462  -0.863  24.853  0.00  0.00    -0.210 NA
ATOM      6  C   UNL     1       8.663  -2.080  24.308  0.00  0.00    +0.141 A 
ATOM      7  N   UNL     1       9.327  -2.175  23.063  0.00  0.00    -0.327 N 
ATOM      8  H   UNL     1       9.754  -3.097  22.990  0.00  0.00    +0.148 HD
ATOM      9  C   UNL     1       8.140  -3.245  24.886  0.00  0.00    +0.102 A 
ATOM     10 CL   UNL     1       8.435  -4.789  24.163  0.00  0.00    -0.078 Cl
ENDROOT
BRANCH   4  11
ATOM     11  C   UNL     1       7.473   0.538  26.591  0.00  0.00    +0.108 A 
ATOM     12  C   UNL     1       7.518   1.712  25.834  0.00  0.00    +0.031 A 
ATOM     13  C   UNL     1       7.253   2.939  26.447  0.00  0.00    +0.004 A 
ATOM     14  C   UNL     1       6.947   2.975  27.798  0.00  0.00    +0.020 A 
ATOM     15  C   UNL     1       6.918   1.779  28.489  0.00  0.00    +0.111 A 
ATOM     16  N   UNL     1       7.172   0.580  27.924  0.00  0.00    -0.252 NA
ENDBRANCH   4  11
BRANCH   7  17
ATOM     17  C   UNL     1      10.283  -1.108  22.767  0.00  0.00    +0.107 C 
BRANCH  17  18
ATOM     18  C   UNL     1       9.715  -0.237  21.636  0.00  0.00    +0.054 C 
BRANCH  18  19
ATOM     19  C   UNL     1       9.306   1.138  22.101  0.00  0.00    -0.046 A 
ATOM     20  C   UNL     1      10.146   1.884  22.938  0.00  0.00    +0.004 A 
ATOM     21  C   UNL     1       9.763   3.154  23.373  0.00  0.00    +0.000 A 
ATOM     22  C   UNL     1       8.541   3.691  22.971  0.00  0.00    +0.000 A 
ATOM     23  C   UNL     1       7.701   2.960  22.135  0.00  0.00    +0.000 A 
ATOM     24  C   UNL     1       8.081   1.689  21.700  0.00  0.00    +0.004 A 
ENDBRANCH  18  19
ENDBRANCH  17  18
ENDBRANCH   7  17
TORSDOF 4
ENDMDL
MODEL 6
REMARK VINA RESULT:      -6.0      2.483      4.627
REMARK  Name = 
REMARK  5 active torsions:
REMARK  status: ('A' for Active; 'I' for Inactive)
REMARK    1  A    between atoms: C_1  and  C_2
REMARK    2  A    between atoms: N_6  and  C_7
REMARK    3  A    between atoms: C_7  and  C_8
REMARK    4  A    between atoms: C_8  and  C_9
REMARK    5  A    between atoms: C_16  and  C_18
REMARK                            x       y       z     vdW  Elec       q    Type
REMARK                         _______ _______ _______ _____ _____    ______ ____
ROOT
ATOM      1  C   UNL     1       4.606  -0.476  26.488  0.00  0.00    +0.067 C 
ATOM      2  C   UNL     1       5.924  -0.810  25.857  0.00  0.00    +0.062 A 
ATOM      3  N   UNL     1       5.882  -1.840  24.984  0.00  0.00    -0.230 NA
ATOM      4  C   UNL     1       7.024  -2.200  24.363  0.00  0.00    +0.180 A 
ATOM      5  N   UNL     1       8.208  -1.575  24.547  0.00  0.00    -0.210 NA
ATOM      6  C   UNL     1       8.242  -0.547  25.420  0.00  0.00    +0.141 A 
ATOM      7  N   UNL     1       9.483   0.066  25.712  0.00  0.00    -0.327 N 
ATOM      8  H   UNL     1       9.310   1.021  26.025  0.00  0.00    +0.148 HD
ATOM      9  C   UNL     1       7.103  -0.138  26.126  0.00  0.00    +0.102 A 
ATOM     10 CL   UNL     1       7.186   1.197  27.224  0.00  0.00    -0.078 Cl
ENDROOT
BRANCH   4  11
ATOM     11  C   UNL     1       6.974  -3.363  23.435  0.00  0.00    +0.108 A 
ATOM     12  C   UNL     1       7.687  -4.540  23.678  0.00  0.00    +0.031 A 
ATOM     13  C   UNL     1       7.597  -5.601  22.774  0.00  0.00    +0.004 A 
ATOM     14  C   UNL     1       6.799  -5.473  21.648  0.00  0.00    +0.020 A 
ATOM     15  C   UNL     1       6.119  -4.283  21.467  0.00  0.00    +0.111 A 
ATOM     16  N   UNL     1       6.188  -3.242  22.322  0.00  0.00    -0.252 NA
ENDBRANCH   4  11
BRANCH   7  17
ATOM     17  C   UNL     1      10.485   0.017  24.647  0.00  0.00    +0.107 C 
BRANCH  17  18
ATOM     18  C   UNL     1      10.757   1.447  24.158  0.00  0.00    +0.054 C 
BRANCH  18  19
ATOM     19  C   UNL     1       9.599   2.039  23.395  0.00  0.00    -0.046 A 
ATOM     20  C   UNL     1       9.083   1.386  22.268  0.00  0.00    +0.004 A 
ATOM     21  C   UNL     1       8.015   1.937  21.559  0.00  0.00    +0.000 A 
ATOM     22  C   UNL     1       7.451   3.143  21.971  0.00  0.00    +0.000 A 
ATOM     23  C   UNL     1       7.953   3.798  23.093  0.00  0.00    +0.000 A 
ATOM     24  C   UNL     1       9.022   3.249  23.804  0.00  0.00    +0.004 A 
ENDBRANCH  18  19
ENDBRANCH  17  18
ENDBRANCH   7  17
TORSDOF 4
ENDMDL
MODEL 7
REMARK VINA RESULT:      -5.9      2.190      4.810
REMARK  Name = 
REMARK  5 active torsions:
REMARK  status: ('A' for Active; 'I' for Inactive)
REMARK    1  A    between atoms: C_1  and  C_2
REMARK    2  A    between atoms: N_6  and  C_7
REMARK    3  A    between atoms: C_7  and  C_8
REMARK    4  A    between atoms: C_8  and  C_9
REMARK    5  A    between atoms: C_16  and  C_18
REMARK                            x       y       z     vdW  Elec       q    Type
REMARK                         _______ _______ _______ _____ _____    ______ ____
ROOT
ATOM      1  C   UNL     1       5.005  -0.360  26.876  0.00  0.00    +0.067 C 
ATOM      2  C   UNL     1       5.636  -0.780  25.583  0.00  0.00    +0.062 A 
ATOM      3  N   UNL     1       6.650   0.012  25.171  0.00  0.00    -0.230 NA
ATOM      4  C   UNL     1       7.280  -0.301  24.020  0.00  0.00    +0.180 A 
ATOM      5  N   UNL     1       6.968  -1.377  23.262  0.00  0.00    -0.210 NA
ATOM      6  C   UNL     1       5.955  -2.163  23.681  0.00  0.00    +0.141 A 
ATOM      7  N   UNL     1       5.538  -3.239  22.863  0.00  0.00    -0.327 N 
ATOM      8  H   UNL     1       5.096  -3.944  23.452  0.00  0.00    +0.148 HD
ATOM      9  C   UNL     1       5.235  -1.882  24.849  0.00  0.00    +0.102 A 
ATOM     10 CL   UNL     1       3.952  -2.926  25.359  0.00  0.00    -0.078 Cl
ENDROOT
BRANCH   4  11
ATOM     11  C   UNL     1       8.367   0.603  23.554  0.00  0.00    +0.108 A 
ATOM     12  C   UNL     1       8.785   0.639  22.221  0.00  0.00    +0.031 A 
ATOM     13  C   UNL     1       9.807   1.512  21.842  0.00  0.00    +0.004 A 
ATOM     14  C   UNL     1      10.394   2.331  22.794  0.00  0.00    +0.020 A 
ATOM     15  C   UNL     1       9.934   2.247  24.095  0.00  0.00    +0.111 A 
ATOM     16  N   UNL     1       8.950   1.413  24.490  0.00  0.00    -0.252 NA
ENDBRANCH   4  11
BRANCH   7  17
ATOM     17  C   UNL     1       6.566  -3.820  21.999  0.00  0.00    +0.107 C 
BRANCH  17  18
ATOM     18  C   UNL     1       6.960  -5.196  22.557  0.00  0.00    +0.054 C 
BRANCH  18  19
ATOM     19  C   UNL     1       7.299  -5.161  24.026  0.00  0.00    -0.046 A 
ATOM     20  C   UNL     1       8.558  -4.720  24.454  0.00  0.00    +0.004 A 
ATOM     21  C   UNL     1       8.873  -4.694  25.813  0.00  0.00    +0.000 A 
ATOM     22  C   UNL     1       7.932  -5.103  26.756  0.00  0.00    +0.000 A 
ATOM     23  C   UNL     1       6.676  -5.539  26.342  0.00  0.00    +0.000 A 
ATOM     24  C   UNL     1       6.359  -5.566  24.983  0.00  0.00    +0.004 A 
ENDBRANCH  18  19
ENDBRANCH  17  18
ENDBRANCH   7  17
TORSDOF 4
ENDMDL
MODEL 8
REMARK VINA RESULT:      -5.8      2.403      3.157
REMARK  Name = 
REMARK  5 active torsions:
REMARK  status: ('A' for Active; 'I' for Inactive)
REMARK    1  A    between atoms: C_1  and  C_2
REMARK    2  A    between atoms: N_6  and  C_7
REMARK    3  A    between atoms: C_7  and  C_8
REMARK    4  A    between atoms: C_8  and  C_9
REMARK    5  A    between atoms: C_16  and  C_18
REMARK                            x       y       z     vdW  Elec       q    Type
REMARK                         _______ _______ _______ _____ _____    ______ ____
ROOT
ATOM      1  C   UNL     1       4.660  -6.604  23.870  0.00  0.00    +0.067 C 
ATOM      2  C   UNL     1       5.458  -5.381  24.206  0.00  0.00    +0.062 A 
ATOM      3  N   UNL     1       4.997  -4.686  25.269  0.00  0.00    -0.230 NA
ATOM      4  C   UNL     1       5.664  -3.575  25.645  0.00  0.00    +0.180 A 
ATOM      5  N   UNL     1       6.782  -3.128  25.033  0.00  0.00    -0.210 NA
ATOM      6  C   UNL     1       7.237  -3.828  23.974  0.00  0.00    +0.141 A 
ATOM      7  N   UNL     1       8.347  -3.334  23.249  0.00  0.00    -0.327 N 
ATOM      8  H   UNL     1       8.808  -4.116  22.785  0.00  0.00    +0.148 HD
ATOM      9  C   UNL     1       6.579  -4.972  23.506  0.00  0.00    +0.102 A 
ATOM     10 CL   UNL     1       7.205  -5.851  22.153  0.00  0.00    -0.078 Cl
ENDROOT
BRANCH   4  11
ATOM     11  C   UNL     1       5.122  -2.794  26.791  0.00  0.00    +0.108 A 
ATOM     12  C   UNL     1       5.219  -1.402  26.854  0.00  0.00    +0.031 A 
ATOM     13  C   UNL     1       4.687  -0.722  27.952  0.00  0.00    +0.004 A 
ATOM     14  C   UNL     1       4.068  -1.438  28.965  0.00  0.00    +0.020 A 
ATOM     15  C   UNL     1       4.004  -2.813  28.841  0.00  0.00    +0.111 A 
ATOM     16  N   UNL     1       4.511  -3.497  27.793  0.00  0.00    -0.252 NA
ENDBRANCH   4  11
BRANCH   7  17
ATOM     17  C   UNL     1       9.294  -2.518  24.009  0.00  0.00    +0.107 C 
BRANCH  17  18
ATOM     18  C   UNL     1      10.312  -1.906  23.034  0.00  0.00    +0.054 C 
BRANCH  18  19
ATOM     19  C   UNL     1      10.262  -0.399  23.000  0.00  0.00    -0.046 A 
ATOM     20  C   UNL     1       9.766   0.270  21.874  0.00  0.00    +0.004 A 
ATOM     21  C   UNL     1       9.726   1.665  21.841  0.00  0.00    +0.000 A 
ATOM     22  C   UNL     1      10.177   2.402  22.934  0.00  0.00    +0.000 A 
ATOM     23  C   UNL     1      10.668   1.747  24.061  0.00  0.00    +0.000 A 
ATOM     24  C   UNL     1      10.709   0.352  24.096  0.00  0.00    +0.004 A 
ENDBRANCH  18  19
ENDBRANCH  17  18
ENDBRANCH   7  17
TORSDOF 4
ENDMDL
MODEL 9
REMARK VINA RESULT:      -5.7      2.804      5.222
REMARK  Name = 
REMARK  5 active torsions:
REMARK  status: ('A' for Active; 'I' for Inactive)
REMARK    1  A    between atoms: C_1  and  C_2
REMARK    2  A    between atoms: N_6  and  C_7
REMARK    3  A    between atoms: C_7  and  C_8
REMARK    4  A    between atoms: C_8  and  C_9
REMARK    5  A    between atoms: C_16  and  C_18
REMARK                            x       y       z     vdW  Elec       q    Type
REMARK                         _______ _______ _______ _____ _____    ______ ____
ROOT
ATOM      1  C   UNL     1       7.064  -5.448  21.880  0.00  0.00    +0.067 C 
ATOM      2  C   UNL     1       7.088  -4.662  23.155  0.00  0.00    +0.062 A 
ATOM      3  N   UNL     1       6.676  -5.348  24.244  0.00  0.00    -0.230 NA
ATOM      4  C   UNL     1       6.675  -4.716  25.436  0.00  0.00    +0.180 A 
ATOM      5  N   UNL     1       7.084  -3.440  25.610  0.00  0.00    -0.210 NA
ATOM      6  C   UNL     1       7.495  -2.762  24.518  0.00  0.00    +0.141 A 
ATOM      7  N   UNL     1       7.836  -1.395  24.646  0.00  0.00    -0.327 N 
ATOM      8  H   UNL     1       8.484  -1.149  23.899  0.00  0.00    +0.148 HD
ATOM      9  C   UNL     1       7.492  -3.342  23.243  0.00  0.00    +0.102 A 
ATOM     10 CL   UNL     1       8.043  -2.442  21.871  0.00  0.00    -0.078 Cl
ENDROOT
BRANCH   4  11
ATOM     11  C   UNL     1       6.179  -5.469  26.621  0.00  0.00    +0.108 A 
ATOM     12  C   UNL     1       5.119  -6.375  26.536  0.00  0.00    +0.031 A 
ATOM     13  C   UNL     1       4.701  -7.057  27.681  0.00  0.00    +0.004 A 
ATOM     14  C   UNL     1       5.344  -6.826  28.887  0.00  0.00    +0.020 A 
ATOM     15  C   UNL     1       6.387  -5.919  28.903  0.00  0.00    +0.111 A 
ATOM     16  N   UNL     1       6.811  -5.245  27.813  0.00  0.00    -0.252 NA
ENDBRANCH   4  11
BRANCH   7  17
ATOM     17  C   UNL     1       8.336  -0.982  25.958  0.00  0.00    +0.107 C 
BRANCH  17  18
ATOM     18  C   UNL     1       9.620  -0.162  25.761  0.00  0.00    +0.054 C 
BRANCH  18  19
ATOM     19  C   UNL     1       9.575   0.718  24.537  0.00  0.00    -0.046 A 
ATOM     20  C   UNL     1      10.145   0.289  23.332  0.00  0.00    +0.004 A 
ATOM     21  C   UNL     1      10.107   1.107  22.201  0.00  0.00    +0.000 A 
ATOM     22  C   UNL     1       9.497   2.358  22.264  0.00  0.00    +0.000 A 
ATOM     23  C   UNL     1       8.924   2.793  23.457  0.00  0.00    +0.000 A 
ATOM     24  C   UNL     1       8.960   1.977  24.589  0.00  0.00    +0.004 A 
ENDBRANCH  18  19
ENDBRANCH  17  18
ENDBRANCH   7  17
TORSDOF 4
ENDMDL
