MODEL 1
REMARK VINA RESULT:      -3.9      0.000      0.000
REMARK  Name = 
REMARK  8 active torsions:
REMARK  status: ('A' for Active; 'I' for Inactive)
REMARK    1  A    between atoms: C_2  and  C_3
REMARK    2  A    between atoms: C_2  and  C_5
REMARK    3  A    between atoms: C_2  and  C_9
REMARK    4  A    between atoms: C_3  and  S_4
REMARK    5  A    between atoms: C_5  and  C_6
REMARK    6  A    between atoms: C_6  and  C_7
REMARK    7  A    between atoms: C_6  and  C_8
REMARK    8  A    between atoms: C_9  and  O_10
REMARK                            x       y       z     vdW  Elec       q    Type
REMARK                         _______ _______ _______ _____ _____    ______ ____
ROOT
ATOM      1  C   UNL     1       9.308  -0.657  23.643  0.00  0.00    +0.107 C 
ENDROOT
BRANCH   1   2
ATOM      2  C   UNL     1      10.053  -1.870  23.119  0.00  0.00    +0.309 C 
ATOM      3  O   UNL     1      10.230  -2.894  23.760  0.00  0.00    -0.251 OA
BRANCH   2   4
ATOM      4  O   UNL     1      10.507  -1.726  21.854  0.00  0.00    -0.480 OA
ATOM      5  H   UNL     1       9.858  -1.363  21.224  0.00  0.00    +0.295 HD
ENDBRANCH   2   4
ENDBRANCH   1   2
BRANCH   1   6
ATOM      6  C   UNL     1       8.253  -1.111  24.661  0.00  0.00    +0.080 C 
BRANCH   6   7
ATOM      7  S   UNL     1       8.760  -0.783  26.381  0.00  0.00    -0.177 S 
ATOM      8  H   UNL     1       9.157  -2.036  26.666  0.00  0.00    +0.102 HD
ENDBRANCH   6   7
ENDBRANCH   1   6
BRANCH   1   9
ATOM      9  C   UNL     1      10.307   0.306  24.317  0.00  0.00    +0.018 C 
BRANCH   9  10
ATOM     10  C   UNL     1      10.304   1.749  23.767  0.00  0.00    -0.016 C 
ATOM     11  C   UNL     1       9.210   2.562  24.469  0.00  0.00    +0.007 C 
ATOM     12  C   UNL     1      10.092   1.796  22.253  0.00  0.00    +0.007 C 
ENDBRANCH   9  10
ENDBRANCH   1   9
TORSDOF 6
ENDMDL
MODEL 2
REMARK VINA RESULT:      -3.8      2.372      2.651
REMARK  Name = 
REMARK  8 active torsions:
REMARK  status: ('A' for Active; 'I' for Inactive)
REMARK    1  A    between atoms: C_2  and  C_3
REMARK    2  A    between atoms: C_2  and  C_5
REMARK    3  A    between atoms: C_2  and  C_9
REMARK    4  A    between atoms: C_3  and  S_4
REMARK    5  A    between atoms: C_5  and  C_6
REMARK    6  A    between atoms: C_6  and  C_7
REMARK    7  A    between atoms: C_6  and  C_8
REMARK    8  A    between atoms: C_9  and  O_10
REMARK                            x       y       z     vdW  Elec       q    Type
REMARK                         _______ _______ _______ _____ _____    ______ ____
ROOT
ATOM      1  C   UNL     1       8.787   0.367  21.732  0.00  0.00    +0.107 C 
ENDROOT
BRANCH   1   2
ATOM      2  C   UNL     1       9.046  -1.123  21.850  0.00  0.00    +0.309 C 
ATOM      3  O   UNL     1       8.212  -1.936  22.213  0.00  0.00    -0.251 OA
BRANCH   2   4
ATOM      4  O   UNL     1      10.301  -1.487  21.504  0.00  0.00    -0.480 OA
ATOM      5  H   UNL     1      10.878  -0.753  21.222  0.00  0.00    +0.295 HD
ENDBRANCH   2   4
ENDBRANCH   1   2
BRANCH   1   6
ATOM      6  C   UNL     1       7.675   0.767  22.711  0.00  0.00    +0.080 C 
BRANCH   6   7
ATOM      7  S   UNL     1       6.816   2.291  22.203  0.00  0.00    -0.177 S 
ATOM      8  H   UNL     1       7.839   2.821  21.510  0.00  0.00    +0.102 HD
ENDBRANCH   6   7
ENDBRANCH   1   6
BRANCH   1   9
ATOM      9  C   UNL     1      10.080   1.140  22.061  0.00  0.00    +0.018 C 
BRANCH   9  10
ATOM     10  C   UNL     1      10.177   1.679  23.504  0.00  0.00    -0.016 C 
ATOM     11  C   UNL     1      10.776   3.089  23.486  0.00  0.00    +0.007 C 
ATOM     12  C   UNL     1      11.013   0.773  24.410  0.00  0.00    +0.007 C 
ENDBRANCH   9  10
ENDBRANCH   1   9
TORSDOF 6
ENDMDL
MODEL 3
REMARK VINA RESULT:      -3.8      4.432      6.340
REMARK  Name = 
REMARK  8 active torsions:
REMARK  status: ('A' for Active; 'I' for Inactive)
REMARK    1  A    between atoms: C_2  and  C_3
REMARK    2  A    between atoms: C_2  and  C_5
REMARK    3  A    between atoms: C_2  and  C_9
REMARK    4  A    between atoms: C_3  and  S_4
REMARK    5  A    between atoms: C_5  and  C_6
REMARK    6  A    between atoms: C_6  and  C_7
REMARK    7  A    between atoms: C_6  and  C_8
REMARK    8  A    between atoms: C_9  and  O_10
REMARK                            x       y       z     vdW  Elec       q    Type
REMARK                         _______ _______ _______ _____ _____    ______ ____
ROOT
ATOM      1  C   UNL     1       7.579  -4.797  24.376  0.00  0.00    +0.107 C 
ENDROOT
BRANCH   1   2
ATOM      2  C   UNL     1       8.769  -5.255  25.198  0.00  0.00    +0.309 C 
ATOM      3  O   UNL     1       9.932  -5.086  24.869  0.00  0.00    -0.251 OA
BRANCH   2   4
ATOM      4  O   UNL     1       8.431  -5.870  26.353  0.00  0.00    -0.480 OA
ATOM      5  H   UNL     1       8.844  -6.743  26.489  0.00  0.00    +0.295 HD
ENDBRANCH   2   4
ENDBRANCH   1   2
BRANCH   1   6
ATOM      6  C   UNL     1       7.535  -3.264  24.357  0.00  0.00    +0.080 C 
BRANCH   6   7
ATOM      7  S   UNL     1       7.977  -2.576  22.729  0.00  0.00    -0.177 S 
ATOM      8  H   UNL     1       9.283  -2.895  22.776  0.00  0.00    +0.102 HD
ENDBRANCH   6   7
ENDBRANCH   1   6
BRANCH   1   9
ATOM      9  C   UNL     1       7.712  -5.337  22.937  0.00  0.00    +0.018 C 
BRANCH   9  10
ATOM     10  C   UNL     1       6.500  -6.143  22.421  0.00  0.00    -0.016 C 
ATOM     11  C   UNL     1       6.210  -5.757  20.967  0.00  0.00    +0.007 C 
ATOM     12  C   UNL     1       5.249  -5.926  23.274  0.00  0.00    +0.007 C 
ENDBRANCH   9  10
ENDBRANCH   1   9
TORSDOF 6
ENDMDL
MODEL 4
REMARK VINA RESULT:      -3.6      4.744      5.685
REMARK  Name = 
REMARK  8 active torsions:
REMARK  status: ('A' for Active; 'I' for Inactive)
REMARK    1  A    between atoms: C_2  and  C_3
REMARK    2  A    between atoms: C_2  and  C_5
REMARK    3  A    between atoms: C_2  and  C_9
REMARK    4  A    between atoms: C_3  and  S_4
REMARK    5  A    between atoms: C_5  and  C_6
REMARK    6  A    between atoms: C_6  and  C_7
REMARK    7  A    between atoms: C_6  and  C_8
REMARK    8  A    between atoms: C_9  and  O_10
REMARK                            x       y       z     vdW  Elec       q    Type
REMARK                         _______ _______ _______ _____ _____    ______ ____
ROOT
ATOM      1  C   UNL     1       8.068  -5.163  24.729  0.00  0.00    +0.107 C 
ENDROOT
BRANCH   1   2
ATOM      2  C   UNL     1       9.513  -4.744  24.928  0.00  0.00    +0.309 C 
ATOM      3  O   UNL     1      10.025  -3.778  24.387  0.00  0.00    -0.251 OA
BRANCH   2   4
ATOM      4  O   UNL     1      10.199  -5.540  25.778  0.00  0.00    -0.480 OA
ATOM      5  H   UNL     1      10.267  -5.202  26.691  0.00  0.00    +0.295 HD
ENDBRANCH   2   4
ENDBRANCH   1   2
BRANCH   1   6
ATOM      6  C   UNL     1       7.393  -5.321  26.097  0.00  0.00    +0.080 C 
BRANCH   6   7
ATOM      7  S   UNL     1       6.799  -3.734  26.767  0.00  0.00    -0.177 S 
ATOM      8  H   UNL     1       7.092  -3.991  28.054  0.00  0.00    +0.102 HD
ENDBRANCH   6   7
ENDBRANCH   1   6
BRANCH   1   9
ATOM      9  C   UNL     1       7.333  -4.089  23.901  0.00  0.00    +0.018 C 
BRANCH   9  10
ATOM     10  C   UNL     1       6.650  -4.602  22.615  0.00  0.00    -0.016 C 
ATOM     11  C   UNL     1       5.147  -4.769  22.864  0.00  0.00    +0.007 C 
ATOM     12  C   UNL     1       7.244  -5.923  22.125  0.00  0.00    +0.007 C 
ENDBRANCH   9  10
ENDBRANCH   1   9
TORSDOF 6
ENDMDL
MODEL 5
REMARK VINA RESULT:      -3.6      2.951      3.817
REMARK  Name = 
REMARK  8 active torsions:
REMARK  status: ('A' for Active; 'I' for Inactive)
REMARK    1  A    between atoms: C_2  and  C_3
REMARK    2  A    between atoms: C_2  and  C_5
REMARK    3  A    between atoms: C_2  and  C_9
REMARK    4  A    between atoms: C_3  and  S_4
REMARK    5  A    between atoms: C_5  and  C_6
REMARK    6  A    between atoms: C_6  and  C_7
REMARK    7  A    between atoms: C_6  and  C_8
REMARK    8  A    between atoms: C_9  and  O_10
REMARK                            x       y       z     vdW  Elec       q    Type
REMARK                         _______ _______ _______ _____ _____    ______ ____
ROOT
ATOM      1  C   UNL     1       8.932  -3.504  24.373  0.00  0.00    +0.107 C 
ENDROOT
BRANCH   1   2
ATOM      2  C   UNL     1       9.390  -4.505  25.417  0.00  0.00    +0.309 C 
ATOM      3  O   UNL     1       8.923  -4.583  26.541  0.00  0.00    -0.251 OA
BRANCH   2   4
ATOM      4  O   UNL     1      10.373  -5.328  24.988  0.00  0.00    -0.480 OA
ATOM      5  H   UNL     1      10.232  -6.273  25.185  0.00  0.00    +0.295 HD
ENDBRANCH   2   4
ENDBRANCH   1   2
BRANCH   1   6
ATOM      6  C   UNL     1       7.483  -3.814  23.974  0.00  0.00    +0.080 C 
BRANCH   6   7
ATOM      7  S   UNL     1       7.355  -5.292  22.915  0.00  0.00    -0.177 S 
ATOM      8  H   UNL     1       8.676  -5.491  22.769  0.00  0.00    +0.102 HD
ENDBRANCH   6   7
ENDBRANCH   1   6
BRANCH   1   9
ATOM      9  C   UNL     1       9.022  -2.079  24.956  0.00  0.00    +0.018 C 
BRANCH   9  10
ATOM     10  C   UNL     1       9.510  -0.994  23.973  0.00  0.00    -0.016 C 
ATOM     11  C   UNL     1      10.277  -1.653  22.821  0.00  0.00    +0.007 C 
ATOM     12  C   UNL     1      10.395   0.054  24.650  0.00  0.00    +0.007 C 
ENDBRANCH   9  10
ENDBRANCH   1   9
TORSDOF 6
ENDMDL
MODEL 6
REMARK VINA RESULT:      -3.5      2.159      3.397
REMARK  Name = 
REMARK  8 active torsions:
REMARK  status: ('A' for Active; 'I' for Inactive)
REMARK    1  A    between atoms: C_2  and  C_3
REMARK    2  A    between atoms: C_2  and  C_5
REMARK    3  A    between atoms: C_2  and  C_9
REMARK    4  A    between atoms: C_3  and  S_4
REMARK    5  A    between atoms: C_5  and  C_6
REMARK    6  A    between atoms: C_6  and  C_7
REMARK    7  A    between atoms: C_6  and  C_8
REMARK    8  A    between atoms: C_9  and  O_10
REMARK                            x       y       z     vdW  Elec       q    Type
REMARK                         _______ _______ _______ _____ _____    ______ ____
ROOT
ATOM      1  C   UNL     1       9.786   1.437  23.818  0.00  0.00    +0.107 C 
ENDROOT
BRANCH   1   2
ATOM      2  C   UNL     1      10.036   1.152  22.349  0.00  0.00    +0.309 C 
ATOM      3  O   UNL     1      10.060   0.032  21.865  0.00  0.00    -0.251 OA
BRANCH   2   4
ATOM      4  O   UNL     1      10.225   2.262  21.602  0.00  0.00    -0.480 OA
ATOM      5  H   UNL     1       9.735   2.277  20.759  0.00  0.00    +0.295 HD
ENDBRANCH   2   4
ENDBRANCH   1   2
BRANCH   1   6
ATOM      6  C   UNL     1       8.299   1.752  24.027  0.00  0.00    +0.080 C 
BRANCH   6   7
ATOM      7  S   UNL     1       8.038   3.153  25.163  0.00  0.00    -0.177 S 
ATOM      8  H   UNL     1       7.402   2.456  26.122  0.00  0.00    +0.102 HD
ENDBRANCH   6   7
ENDBRANCH   1   6
BRANCH   1   9
ATOM      9  C   UNL     1      10.184   0.204  24.654  0.00  0.00    +0.018 C 
BRANCH   9  10
ATOM     10  C   UNL     1       9.015  -0.710  25.079  0.00  0.00    -0.016 C 
ATOM     11  C   UNL     1       8.921  -0.747  26.608  0.00  0.00    +0.007 C 
ATOM     12  C   UNL     1       9.159  -2.133  24.535  0.00  0.00    +0.007 C 
ENDBRANCH   9  10
ENDBRANCH   1   9
TORSDOF 6
ENDMDL
MODEL 7
REMARK VINA RESULT:      -3.5      2.755      3.814
REMARK  Name = 
REMARK  8 active torsions:
REMARK  status: ('A' for Active; 'I' for Inactive)
REMARK    1  A    between atoms: C_2  and  C_3
REMARK    2  A    between atoms: C_2  and  C_5
REMARK    3  A    between atoms: C_2  and  C_9
REMARK    4  A    between atoms: C_3  and  S_4
REMARK    5  A    between atoms: C_5  and  C_6
REMARK    6  A    between atoms: C_6  and  C_7
REMARK    7  A    between atoms: C_6  and  C_8
REMARK    8  A    between atoms: C_9  and  O_10
REMARK                            x       y       z     vdW  Elec       q    Type
REMARK                         _______ _______ _______ _____ _____    ______ ____
ROOT
ATOM      1  C   UNL     1       8.449   0.903  22.905  0.00  0.00    +0.107 C 
ENDROOT
BRANCH   1   2
ATOM      2  C   UNL     1       8.645   2.136  22.043  0.00  0.00    +0.309 C 
ATOM      3  O   UNL     1       7.790   2.989  21.867  0.00  0.00    -0.251 OA
BRANCH   2   4
ATOM      4  O   UNL     1       9.872   2.220  21.482  0.00  0.00    -0.480 OA
ATOM      5  H   UNL     1       9.891   2.086  20.516  0.00  0.00    +0.295 HD
ENDBRANCH   2   4
ENDBRANCH   1   2
BRANCH   1   6
ATOM      6  C   UNL     1       6.980   0.465  22.838  0.00  0.00    +0.080 C 
BRANCH   6   7
ATOM      7  S   UNL     1       6.393  -0.243  24.411  0.00  0.00    -0.177 S 
ATOM      8  H   UNL     1       5.313  -0.865  23.905  0.00  0.00    +0.102 HD
ENDBRANCH   6   7
ENDBRANCH   1   6
BRANCH   1   9
ATOM      9  C   UNL     1       9.360  -0.231  22.391  0.00  0.00    +0.018 C 
BRANCH   9  10
ATOM     10  C   UNL     1      10.310  -0.841  23.443  0.00  0.00    -0.016 C 
ATOM     11  C   UNL     1       9.843  -2.258  23.797  0.00  0.00    +0.007 C 
ATOM     12  C   UNL     1      10.397   0.007  24.713  0.00  0.00    +0.007 C 
ENDBRANCH   9  10
ENDBRANCH   1   9
TORSDOF 6
ENDMDL
MODEL 8
REMARK VINA RESULT:      -3.5      2.854      3.538
REMARK  Name = 
REMARK  8 active torsions:
REMARK  status: ('A' for Active; 'I' for Inactive)
REMARK    1  A    between atoms: C_2  and  C_3
REMARK    2  A    between atoms: C_2  and  C_5
REMARK    3  A    between atoms: C_2  and  C_9
REMARK    4  A    between atoms: C_3  and  S_4
REMARK    5  A    between atoms: C_5  and  C_6
REMARK    6  A    between atoms: C_6  and  C_7
REMARK    7  A    between atoms: C_6  and  C_8
REMARK    8  A    between atoms: C_9  and  O_10
REMARK                            x       y       z     vdW  Elec       q    Type
REMARK                         _______ _______ _______ _____ _____    ______ ____
ROOT
ATOM      1  C   UNL     1       9.281   1.042  23.370  0.00  0.00    +0.107 C 
ENDROOT
BRANCH   1   2
ATOM      2  C   UNL     1       9.153   1.694  22.005  0.00  0.00    +0.309 C 
ATOM      3  O   UNL     1       8.135   1.675  21.332  0.00  0.00    -0.251 OA
BRANCH   2   4
ATOM      4  O   UNL     1      10.278   2.317  21.591  0.00  0.00    -0.480 OA
ATOM      5  H   UNL     1      10.369   3.241  21.891  0.00  0.00    +0.295 HD
ENDBRANCH   2   4
ENDBRANCH   1   2
BRANCH   1   6
ATOM      6  C   UNL     1      10.444   0.042  23.347  0.00  0.00    +0.080 C 
BRANCH   6   7
ATOM      7  S   UNL     1      10.016  -1.504  22.482  0.00  0.00    -0.177 S 
ATOM      8  H   UNL     1       8.693  -1.278  22.411  0.00  0.00    +0.102 HD
ENDBRANCH   6   7
ENDBRANCH   1   6
BRANCH   1   9
ATOM      9  C   UNL     1       9.542   2.128  24.433  0.00  0.00    +0.018 C 
BRANCH   9  10
ATOM     10  C   UNL     1       8.482   3.247  24.507  0.00  0.00    -0.016 C 
ATOM     11  C   UNL     1       9.167   4.612  24.381  0.00  0.00    +0.007 C 
ATOM     12  C   UNL     1       7.667   3.195  25.801  0.00  0.00    +0.007 C 
ENDBRANCH   9  10
ENDBRANCH   1   9
TORSDOF 6
ENDMDL
MODEL 9
REMARK VINA RESULT:      -3.5      2.046      2.412
REMARK  Name = 
REMARK  8 active torsions:
REMARK  status: ('A' for Active; 'I' for Inactive)
REMARK    1  A    between atoms: C_2  and  C_3
REMARK    2  A    between atoms: C_2  and  C_5
REMARK    3  A    between atoms: C_2  and  C_9
REMARK    4  A    between atoms: C_3  and  S_4
REMARK    5  A    between atoms: C_5  and  C_6
REMARK    6  A    between atoms: C_6  and  C_7
REMARK    7  A    between atoms: C_6  and  C_8
REMARK    8  A    between atoms: C_9  and  O_10
REMARK                            x       y       z     vdW  Elec       q    Type
REMARK                         _______ _______ _______ _____ _____    ______ ____
ROOT
ATOM      1  C   UNL     1       9.220  -2.021  22.974  0.00  0.00    +0.107 C 
ENDROOT
BRANCH   1   2
ATOM      2  C   UNL     1       9.451  -2.749  24.285  0.00  0.00    +0.309 C 
ATOM      3  O   UNL     1       9.965  -3.852  24.372  0.00  0.00    -0.251 OA
BRANCH   2   4
ATOM      4  O   UNL     1       9.041  -2.058  25.372  0.00  0.00    -0.480 OA
ATOM      5  H   UNL     1       8.235  -1.526  25.240  0.00  0.00    +0.295 HD
ENDBRANCH   2   4
ENDBRANCH   1   2
BRANCH   1   6
ATOM      6  C   UNL     1       7.971  -2.592  22.290  0.00  0.00    +0.080 C 
BRANCH   6   7
ATOM      7  S   UNL     1       6.426  -1.989  23.047  0.00  0.00    -0.177 S 
ATOM      8  H   UNL     1       5.750  -3.148  22.960  0.00  0.00    +0.102 HD
ENDBRANCH   6   7
ENDBRANCH   1   6
BRANCH   1   9
ATOM      9  C   UNL     1       9.025  -0.516  23.251  0.00  0.00    +0.018 C 
BRANCH   9  10
ATOM     10  C   UNL     1      10.264   0.368  22.992  0.00  0.00    -0.016 C 
ATOM     11  C   UNL     1      10.811   0.889  24.325  0.00  0.00    +0.007 C 
ATOM     12  C   UNL     1       9.958   1.544  22.063  0.00  0.00    +0.007 C 
ENDBRANCH   9  10
ENDBRANCH   1   9
TORSDOF 6
ENDMDL
