MODEL 1
REMARK VINA RESULT:      -7.3      0.000      0.000
REMARK  Name = 
REMARK  10 active torsions:
REMARK  status: ('A' for Active; 'I' for Inactive)
REMARK    1  A    between atoms: C_1  and  N_2
REMARK    2  A    between atoms: N_2  and  C_3
REMARK    3  A    between atoms: N_2  and  C_4
REMARK    4  A    between atoms: C_4  and  C_5
REMARK    5  A    between atoms: C_6  and  C_7
REMARK    6  A    between atoms: C_13  and  S_14
REMARK    7  A    between atoms: S_14  and  N_17
REMARK    8  A    between atoms: N_17  and  C_18
REMARK    9  A    between atoms: C_27  and  C_28
REMARK   10  A    between atoms: C_28  and  O_29
REMARK                            x       y       z     vdW  Elec       q    Type
REMARK                         _______ _______ _______ _____ _____    ______ ____
ROOT
ATOM      1  S   UNL     1       8.741  -1.860  24.035  0.00  0.00    +0.073 S 
ATOM      2  O   UNL     1      10.134  -2.006  23.659  0.00  0.00    -0.150 OA
ATOM      3  O   UNL     1       8.394  -1.635  25.417  0.00  0.00    -0.150 OA
ENDROOT
BRANCH   1   5
ATOM      4  C   UNL     1       8.067  -4.580  23.748  0.00  0.00    +0.004 A 
ATOM      5  C   UNL     1       7.851  -3.243  23.355  0.00  0.00    +0.116 A 
ATOM      6  C   UNL     1       6.942  -2.942  22.313  0.00  0.00    +0.032 A 
ATOM      7  C   UNL     1       6.227  -3.952  21.674  0.00  0.00    +0.040 A 
ATOM      8  C   UNL     1       6.394  -5.257  22.094  0.00  0.00    +0.124 A 
ATOM      9  F   UNL     1       5.721  -6.243  21.490  0.00  0.00    -0.205 F 
ATOM     10  C   UNL     1       7.268  -5.564  23.130  0.00  0.00    +0.048 A 
BRANCH   4  12
ATOM     11  C   UNL     1       8.769  -5.110  26.128  0.00  0.00    -0.011 C 
ATOM     12  C   UNL     1       9.005  -5.022  24.802  0.00  0.00    +0.007 C 
BRANCH  11  13
ATOM     13  C   UNL     1       7.476  -4.836  26.849  0.00  0.00    +0.111 C 
BRANCH  13  15
ATOM     14  C   UNL     1       6.268  -5.998  28.547  0.00  0.00    +0.104 C 
ATOM     15  N   UNL     1       6.647  -6.018  27.127  0.00  0.00    -0.305 NA
ATOM     16  C   UNL     1       5.438  -6.051  26.302  0.00  0.00    +0.104 C 
ENDBRANCH  13  15
ENDBRANCH  11  13
ENDBRANCH   4  12
ENDBRANCH   1   5
BRANCH   1  17
ATOM     17  N   UNL     1       8.202  -0.519  23.104  0.00  0.00    -0.215 N 
ATOM     18  H   UNL     1       8.348  -0.797  22.126  0.00  0.00    +0.174 HD
BRANCH  17  19
ATOM     19  C   UNL     1       8.729   0.784  23.431  0.00  0.00    +0.062 A 
ATOM     20  C   UNL     1       8.036   1.685  24.271  0.00  0.00    +0.085 A 
ATOM     21  C   UNL     1       8.556   2.997  24.473  0.00  0.00    -0.028 A 
ATOM     22  C   UNL     1       9.722   3.392  23.775  0.00  0.00    -0.043 A 
ATOM     23  C   UNL     1      10.282   4.796  23.858  0.00  0.00    +0.035 C 
ATOM     24  C   UNL     1       9.272   5.814  24.371  0.00  0.00    +0.005 C 
ATOM     25  C   UNL     1       8.632   5.286  25.640  0.00  0.00    +0.005 C 
ATOM     26  C   UNL     1      10.413   2.460  22.989  0.00  0.00    +0.006 A 
ATOM     27  C   UNL     1       7.838   4.011  25.349  0.00  0.00    +0.036 C 
ATOM     28  C   UNL     1       9.923   1.170  22.818  0.00  0.00    +0.025 A 
BRANCH  20  29
ATOM     29  C   UNL     1       6.739   1.285  24.910  0.00  0.00    +0.339 C 
ATOM     30  O   UNL     1       5.657   1.315  24.349  0.00  0.00    -0.245 OA
BRANCH  29  31
ATOM     31  O   UNL     1       6.864   0.820  26.174  0.00  0.00    -0.477 OA
ATOM     32  H   UNL     1       6.004   0.714  26.629  0.00  0.00    +0.295 HD
ENDBRANCH  29  31
ENDBRANCH  20  29
ENDBRANCH  17  19
ENDBRANCH   1  17
TORSDOF 8
ENDMDL
MODEL 2
REMARK VINA RESULT:      -7.2      2.906      4.344
REMARK  Name = 
REMARK  10 active torsions:
REMARK  status: ('A' for Active; 'I' for Inactive)
REMARK    1  A    between atoms: C_1  and  N_2
REMARK    2  A    between atoms: N_2  and  C_3
REMARK    3  A    between atoms: N_2  and  C_4
REMARK    4  A    between atoms: C_4  and  C_5
REMARK    5  A    between atoms: C_6  and  C_7
REMARK    6  A    between atoms: C_13  and  S_14
REMARK    7  A    between atoms: S_14  and  N_17
REMARK    8  A    between atoms: N_17  and  C_18
REMARK    9  A    between atoms: C_27  and  C_28
REMARK   10  A    between atoms: C_28  and  O_29
REMARK                            x       y       z     vdW  Elec       q    Type
REMARK                         _______ _______ _______ _____ _____    ______ ____
ROOT
ATOM      1  S   UNL     1       7.677  -4.465  24.134  0.00  0.00    +0.073 S 
ATOM      2  O   UNL     1       6.818  -3.470  23.520  0.00  0.00    -0.150 OA
ATOM      3  O   UNL     1       8.334  -5.448  23.307  0.00  0.00    -0.150 OA
ENDROOT
BRANCH   1   5
ATOM      4  C   UNL     1       5.630  -6.048  25.248  0.00  0.00    +0.004 A 
ATOM      5  C   UNL     1       6.759  -5.229  25.454  0.00  0.00    +0.116 A 
ATOM      6  C   UNL     1       7.179  -4.907  26.766  0.00  0.00    +0.032 A 
ATOM      7  C   UNL     1       6.505  -5.408  27.876  0.00  0.00    +0.040 A 
ATOM      8  C   UNL     1       5.432  -6.256  27.679  0.00  0.00    +0.124 A 
ATOM      9  F   UNL     1       4.766  -6.745  28.731  0.00  0.00    -0.205 F 
ATOM     10  C   UNL     1       5.022  -6.597  26.395  0.00  0.00    +0.048 A 
BRANCH   4  12
ATOM     11  C   UNL     1       4.055  -5.859  23.268  0.00  0.00    -0.011 C 
ATOM     12  C   UNL     1       5.080  -6.434  23.930  0.00  0.00    +0.007 C 
BRANCH  11  13
ATOM     13  C   UNL     1       3.258  -4.651  23.684  0.00  0.00    +0.111 C 
BRANCH  13  15
ATOM     14  C   UNL     1       1.348  -5.818  22.856  0.00  0.00    +0.104 C 
ATOM     15  N   UNL     1       1.821  -4.884  23.888  0.00  0.00    -0.305 NA
ATOM     16  C   UNL     1       1.533  -5.436  25.212  0.00  0.00    +0.104 C 
ENDBRANCH  13  15
ENDBRANCH  11  13
ENDBRANCH   4  12
ENDBRANCH   1   5
BRANCH   1  17
ATOM     17  N   UNL     1       8.874  -3.533  24.942  0.00  0.00    -0.215 N 
ATOM     18  H   UNL     1       8.546  -3.463  25.913  0.00  0.00    +0.174 HD
BRANCH  17  19
ATOM     19  C   UNL     1       9.256  -2.271  24.356  0.00  0.00    +0.062 A 
ATOM     20  C   UNL     1       8.926  -1.034  24.955  0.00  0.00    +0.085 A 
ATOM     21  C   UNL     1       9.239   0.180  24.276  0.00  0.00    -0.028 A 
ATOM     22  C   UNL     1       9.815   0.118  22.984  0.00  0.00    -0.043 A 
ATOM     23  C   UNL     1      10.087   1.357  22.157  0.00  0.00    +0.035 C 
ATOM     24  C   UNL     1       9.304   2.576  22.629  0.00  0.00    +0.005 C 
ATOM     25  C   UNL     1       9.482   2.734  24.127  0.00  0.00    +0.005 C 
ATOM     26  C   UNL     1      10.176  -1.121  22.440  0.00  0.00    +0.006 A 
ATOM     27  C   UNL     1       8.885   1.535  24.867  0.00  0.00    +0.036 C 
ATOM     28  C   UNL     1       9.900  -2.304  23.118  0.00  0.00    +0.025 A 
BRANCH  20  29
ATOM     29  C   UNL     1       8.209  -0.994  26.273  0.00  0.00    +0.339 C 
ATOM     30  O   UNL     1       7.044  -1.312  26.433  0.00  0.00    -0.245 OA
BRANCH  29  31
ATOM     31  O   UNL     1       8.987  -0.622  27.315  0.00  0.00    -0.477 OA
ATOM     32  H   UNL     1       8.613  -0.881  28.182  0.00  0.00    +0.295 HD
ENDBRANCH  29  31
ENDBRANCH  20  29
ENDBRANCH  17  19
ENDBRANCH   1  17
TORSDOF 8
ENDMDL
MODEL 3
REMARK VINA RESULT:      -7.1      2.297      3.807
REMARK  Name = 
REMARK  10 active torsions:
REMARK  status: ('A' for Active; 'I' for Inactive)
REMARK    1  A    between atoms: C_1  and  N_2
REMARK    2  A    between atoms: N_2  and  C_3
REMARK    3  A    between atoms: N_2  and  C_4
REMARK    4  A    between atoms: C_4  and  C_5
REMARK    5  A    between atoms: C_6  and  C_7
REMARK    6  A    between atoms: C_13  and  S_14
REMARK    7  A    between atoms: S_14  and  N_17
REMARK    8  A    between atoms: N_17  and  C_18
REMARK    9  A    between atoms: C_27  and  C_28
REMARK   10  A    between atoms: C_28  and  O_29
REMARK                            x       y       z     vdW  Elec       q    Type
REMARK                         _______ _______ _______ _____ _____    ______ ____
ROOT
ATOM      1  S   UNL     1       7.021  -0.286  24.092  0.00  0.00    +0.073 S 
ATOM      2  O   UNL     1       5.621  -0.365  24.461  0.00  0.00    -0.150 OA
ATOM      3  O   UNL     1       7.388   0.186  22.779  0.00  0.00    -0.150 OA
ENDROOT
BRANCH   1   5
ATOM      4  C   UNL     1       7.685  -2.977  23.590  0.00  0.00    +0.004 A 
ATOM      5  C   UNL     1       7.762  -1.864  24.452  0.00  0.00    +0.116 A 
ATOM      6  C   UNL     1       8.390  -1.979  25.715  0.00  0.00    +0.032 A 
ATOM      7  C   UNL     1       8.961  -3.182  26.123  0.00  0.00    +0.040 A 
ATOM      8  C   UNL     1       8.936  -4.259  25.259  0.00  0.00    +0.124 A 
ATOM      9  F   UNL     1       9.473  -5.426  25.633  0.00  0.00    -0.205 F 
ATOM     10  C   UNL     1       8.341  -4.153  24.007  0.00  0.00    +0.048 A 
BRANCH   4  12
ATOM     11  C   UNL     1       5.771  -3.355  21.968  0.00  0.00    -0.011 C 
ATOM     12  C   UNL     1       7.036  -2.989  22.261  0.00  0.00    +0.007 C 
BRANCH  11  13
ATOM     13  C   UNL     1       4.696  -3.786  22.930  0.00  0.00    +0.111 C 
BRANCH  13  15
ATOM     14  C   UNL     1       5.190  -6.108  23.172  0.00  0.00    +0.104 C 
ATOM     15  N   UNL     1       4.174  -5.145  22.724  0.00  0.00    -0.305 NA
ATOM     16  C   UNL     1       2.928  -5.375  23.457  0.00  0.00    +0.104 C 
ENDBRANCH  13  15
ENDBRANCH  11  13
ENDBRANCH   4  12
ENDBRANCH   1   5
BRANCH   1  17
ATOM     17  N   UNL     1       7.697   0.770  25.268  0.00  0.00    -0.215 N 
ATOM     18  H   UNL     1       6.971   0.868  25.988  0.00  0.00    +0.174 HD
BRANCH  17  19
ATOM     19  C   UNL     1       8.247   2.024  24.813  0.00  0.00    +0.062 A 
ATOM     20  C   UNL     1       9.567   2.128  24.317  0.00  0.00    +0.085 A 
ATOM     21  C   UNL     1      10.090   3.412  23.981  0.00  0.00    -0.028 A 
ATOM     22  C   UNL     1       9.297   4.562  24.211  0.00  0.00    -0.043 A 
ATOM     23  C   UNL     1       9.813   5.964  23.972  0.00  0.00    +0.035 C 
ATOM     24  C   UNL     1      11.333   6.040  23.902  0.00  0.00    +0.005 C 
ATOM     25  C   UNL     1      11.842   4.980  22.943  0.00  0.00    +0.005 C 
ATOM     26  C   UNL     1       7.976   4.420  24.655  0.00  0.00    +0.006 A 
ATOM     27  C   UNL     1      11.510   3.581  23.465  0.00  0.00    +0.036 C 
ATOM     28  C   UNL     1       7.455   3.165  24.952  0.00  0.00    +0.025 A 
BRANCH  20  29
ATOM     29  C   UNL     1      10.431   0.909  24.191  0.00  0.00    +0.339 C 
ATOM     30  O   UNL     1      11.062   0.414  25.109  0.00  0.00    -0.245 OA
BRANCH  29  31
ATOM     31  O   UNL     1      10.416   0.344  22.962  0.00  0.00    -0.477 OA
ATOM     32  H   UNL     1      10.693   0.962  22.255  0.00  0.00    +0.295 HD
ENDBRANCH  29  31
ENDBRANCH  20  29
ENDBRANCH  17  19
ENDBRANCH   1  17
TORSDOF 8
ENDMDL
MODEL 4
REMARK VINA RESULT:      -7.0      3.472      7.592
REMARK  Name = 
REMARK  10 active torsions:
REMARK  status: ('A' for Active; 'I' for Inactive)
REMARK    1  A    between atoms: C_1  and  N_2
REMARK    2  A    between atoms: N_2  and  C_3
REMARK    3  A    between atoms: N_2  and  C_4
REMARK    4  A    between atoms: C_4  and  C_5
REMARK    5  A    between atoms: C_6  and  C_7
REMARK    6  A    between atoms: C_13  and  S_14
REMARK    7  A    between atoms: S_14  and  N_17
REMARK    8  A    between atoms: N_17  and  C_18
REMARK    9  A    between atoms: C_27  and  C_28
REMARK   10  A    between atoms: C_28  and  O_29
REMARK                            x       y       z     vdW  Elec       q    Type
REMARK                         _______ _______ _______ _____ _____    ______ ____
ROOT
ATOM      1  S   UNL     1       8.680  -3.231  23.769  0.00  0.00    +0.073 S 
ATOM      2  O   UNL     1       9.770  -3.836  24.510  0.00  0.00    -0.150 OA
ATOM      3  O   UNL     1       8.059  -3.961  22.690  0.00  0.00    -0.150 OA
ENDROOT
BRANCH   1   5
ATOM      4  C   UNL     1       9.578  -0.586  24.134  0.00  0.00    +0.004 A 
ATOM      5  C   UNL     1       9.217  -1.618  23.243  0.00  0.00    +0.116 A 
ATOM      6  C   UNL     1       9.194  -1.382  21.848  0.00  0.00    +0.032 A 
ATOM      7  C   UNL     1       9.547  -0.140  21.326  0.00  0.00    +0.040 A 
ATOM      8  C   UNL     1       9.955   0.856  22.192  0.00  0.00    +0.124 A 
ATOM      9  F   UNL     1      10.293   2.058  21.712  0.00  0.00    -0.205 F 
ATOM     10  C   UNL     1      10.002   0.631  23.563  0.00  0.00    +0.048 A 
BRANCH   4  12
ATOM     11  C   UNL     1       8.755  -0.164  26.496  0.00  0.00    -0.011 C 
ATOM     12  C   UNL     1       9.617  -0.702  25.608  0.00  0.00    +0.007 C 
BRANCH  11  13
ATOM     13  C   UNL     1       7.514   0.636  26.201  0.00  0.00    +0.111 C 
BRANCH  13  15
ATOM     14  C   UNL     1       5.261  -0.128  26.379  0.00  0.00    +0.104 C 
ATOM     15  N   UNL     1       6.444  -0.095  25.507  0.00  0.00    -0.305 NA
ATOM     16  C   UNL     1       6.090   0.525  24.230  0.00  0.00    +0.104 C 
ENDBRANCH  13  15
ENDBRANCH  11  13
ENDBRANCH   4  12
ENDBRANCH   1   5
BRANCH   1  17
ATOM     17  N   UNL     1       7.496  -2.905  24.971  0.00  0.00    -0.215 N 
ATOM     18  H   UNL     1       7.998  -2.969  25.865  0.00  0.00    +0.174 HD
BRANCH  17  19
ATOM     19  C   UNL     1       6.267  -3.661  24.930  0.00  0.00    +0.062 A 
ATOM     20  C   UNL     1       6.062  -4.806  25.734  0.00  0.00    +0.085 A 
ATOM     21  C   UNL     1       4.870  -5.571  25.572  0.00  0.00    -0.028 A 
ATOM     22  C   UNL     1       3.946  -5.204  24.564  0.00  0.00    -0.043 A 
ATOM     23  C   UNL     1       2.706  -6.020  24.264  0.00  0.00    +0.035 C 
ATOM     24  C   UNL     1       2.778  -7.442  24.807  0.00  0.00    +0.005 C 
ATOM     25  C   UNL     1       3.201  -7.399  26.263  0.00  0.00    +0.005 C 
ATOM     26  C   UNL     1       4.153  -4.036  23.819  0.00  0.00    +0.006 A 
ATOM     27  C   UNL     1       4.611  -6.823  26.395  0.00  0.00    +0.036 C 
ATOM     28  C   UNL     1       5.301  -3.272  24.000  0.00  0.00    +0.025 A 
BRANCH  20  29
ATOM     29  C   UNL     1       7.108  -5.244  26.715  0.00  0.00    +0.339 C 
ATOM     30  O   UNL     1       7.014  -5.121  27.923  0.00  0.00    -0.245 OA
BRANCH  29  31
ATOM     31  O   UNL     1       8.174  -5.857  26.150  0.00  0.00    -0.477 OA
ATOM     32  H   UNL     1       8.772  -5.236  25.689  0.00  0.00    +0.295 HD
ENDBRANCH  29  31
ENDBRANCH  20  29
ENDBRANCH  17  19
ENDBRANCH   1  17
TORSDOF 8
ENDMDL
MODEL 5
REMARK VINA RESULT:      -6.9      2.020      3.102
REMARK  Name = 
REMARK  10 active torsions:
REMARK  status: ('A' for Active; 'I' for Inactive)
REMARK    1  A    between atoms: C_1  and  N_2
REMARK    2  A    between atoms: N_2  and  C_3
REMARK    3  A    between atoms: N_2  and  C_4
REMARK    4  A    between atoms: C_4  and  C_5
REMARK    5  A    between atoms: C_6  and  C_7
REMARK    6  A    between atoms: C_13  and  S_14
REMARK    7  A    between atoms: S_14  and  N_17
REMARK    8  A    between atoms: N_17  and  C_18
REMARK    9  A    between atoms: C_27  and  C_28
REMARK   10  A    between atoms: C_28  and  O_29
REMARK                            x       y       z     vdW  Elec       q    Type
REMARK                         _______ _______ _______ _____ _____    ______ ____
ROOT
ATOM      1  S   UNL     1       9.367  -1.864  23.609  0.00  0.00    +0.073 S 
ATOM      2  O   UNL     1       8.277  -1.095  23.038  0.00  0.00    -0.150 OA
ATOM      3  O   UNL     1      10.419  -2.355  22.752  0.00  0.00    -0.150 OA
ENDROOT
BRANCH   1   5
ATOM      4  C   UNL     1       7.901  -4.232  24.034  0.00  0.00    +0.004 A 
ATOM      5  C   UNL     1       8.651  -3.171  24.582  0.00  0.00    +0.116 A 
ATOM      6  C   UNL     1       8.808  -3.056  25.984  0.00  0.00    +0.032 A 
ATOM      7  C   UNL     1       8.249  -3.995  26.846  0.00  0.00    +0.040 A 
ATOM      8  C   UNL     1       7.560  -5.066  26.310  0.00  0.00    +0.124 A 
ATOM      9  F   UNL     1       7.009  -5.977  27.120  0.00  0.00    -0.205 F 
ATOM     10  C   UNL     1       7.416  -5.202  24.934  0.00  0.00    +0.048 A 
BRANCH   4  12
ATOM     11  C   UNL     1       6.530  -4.133  21.902  0.00  0.00    -0.011 C 
ATOM     12  C   UNL     1       7.646  -4.445  22.593  0.00  0.00    +0.007 C 
BRANCH  11  13
ATOM     13  C   UNL     1       5.296  -3.439  22.417  0.00  0.00    +0.111 C 
BRANCH  13  15
ATOM     14  C   UNL     1       4.630  -5.720  22.637  0.00  0.00    +0.104 C 
ATOM     15  N   UNL     1       4.214  -4.328  22.863  0.00  0.00    -0.305 NA
ATOM     16  C   UNL     1       3.893  -4.141  24.279  0.00  0.00    +0.104 C 
ENDBRANCH  13  15
ENDBRANCH  11  13
ENDBRANCH   4  12
ENDBRANCH   1   5
BRANCH   1  17
ATOM     17  N   UNL     1      10.052  -0.803  24.775  0.00  0.00    -0.215 N 
ATOM     18  H   UNL     1       9.779  -1.193  25.684  0.00  0.00    +0.174 HD
BRANCH  17  19
ATOM     19  C   UNL     1       9.792   0.610  24.637  0.00  0.00    +0.062 A 
ATOM     20  C   UNL     1       8.690   1.235  25.263  0.00  0.00    +0.085 A 
ATOM     21  C   UNL     1       8.425   2.612  25.004  0.00  0.00    -0.028 A 
ATOM     22  C   UNL     1       9.235   3.308  24.074  0.00  0.00    -0.043 A 
ATOM     23  C   UNL     1       8.960   4.741  23.672  0.00  0.00    +0.035 C 
ATOM     24  C   UNL     1       7.542   5.193  23.995  0.00  0.00    +0.005 C 
ATOM     25  C   UNL     1       7.222   4.842  25.436  0.00  0.00    +0.005 C 
ATOM     26  C   UNL     1      10.349   2.674  23.509  0.00  0.00    +0.006 A 
ATOM     27  C   UNL     1       7.240   3.325  25.635  0.00  0.00    +0.036 C 
ATOM     28  C   UNL     1      10.626   1.340  23.787  0.00  0.00    +0.025 A 
BRANCH  20  29
ATOM     29  C   UNL     1       7.775   0.449  26.154  0.00  0.00    +0.339 C 
ATOM     30  O   UNL     1       6.689   0.013  25.815  0.00  0.00    -0.245 OA
BRANCH  29  31
ATOM     31  O   UNL     1       8.280   0.200  27.384  0.00  0.00    -0.477 OA
ATOM     32  H   UNL     1       8.671   0.992  27.805  0.00  0.00    +0.295 HD
ENDBRANCH  29  31
ENDBRANCH  20  29
ENDBRANCH  17  19
ENDBRANCH   1  17
TORSDOF 8
ENDMDL
MODEL 6
REMARK VINA RESULT:      -6.8      2.856      8.079
REMARK  Name = 
REMARK  10 active torsions:
REMARK  status: ('A' for Active; 'I' for Inactive)
REMARK    1  A    between atoms: C_1  and  N_2
REMARK    2  A    between atoms: N_2  and  C_3
REMARK    3  A    between atoms: N_2  and  C_4
REMARK    4  A    between atoms: C_4  and  C_5
REMARK    5  A    between atoms: C_6  and  C_7
REMARK    6  A    between atoms: C_13  and  S_14
REMARK    7  A    between atoms: S_14  and  N_17
REMARK    8  A    between atoms: N_17  and  C_18
REMARK    9  A    between atoms: C_27  and  C_28
REMARK   10  A    between atoms: C_28  and  O_29
REMARK                            x       y       z     vdW  Elec       q    Type
REMARK                         _______ _______ _______ _____ _____    ______ ____
ROOT
ATOM      1  S   UNL     1       7.828  -0.312  26.199  0.00  0.00    +0.073 S 
ATOM      2  O   UNL     1       6.598  -0.514  25.458  0.00  0.00    -0.150 OA
ATOM      3  O   UNL     1       7.770  -0.005  27.608  0.00  0.00    -0.150 OA
ENDROOT
BRANCH   1   5
ATOM      4  C   UNL     1       8.403   2.218  25.100  0.00  0.00    +0.004 A 
ATOM      5  C   UNL     1       8.803   0.882  25.309  0.00  0.00    +0.116 A 
ATOM      6  C   UNL     1      10.004   0.397  24.737  0.00  0.00    +0.032 A 
ATOM      7  C   UNL     1      10.822   1.230  23.978  0.00  0.00    +0.040 A 
ATOM      8  C   UNL     1      10.461   2.554  23.817  0.00  0.00    +0.124 A 
ATOM      9  F   UNL     1      11.229   3.370  23.087  0.00  0.00    -0.205 F 
ATOM     10  C   UNL     1       9.295   3.048  24.391  0.00  0.00    +0.048 A 
BRANCH   4  12
ATOM     11  C   UNL     1       5.957   2.887  25.019  0.00  0.00    -0.011 C 
ATOM     12  C   UNL     1       7.163   2.832  25.622  0.00  0.00    +0.007 C 
BRANCH  11  13
ATOM     13  C   UNL     1       5.566   2.287  23.695  0.00  0.00    +0.111 C 
BRANCH  13  15
ATOM     14  C   UNL     1       5.001   4.523  23.086  0.00  0.00    +0.104 C 
ATOM     15  N   UNL     1       5.485   3.234  22.573  0.00  0.00    -0.305 NA
ATOM     16  C   UNL     1       6.780   3.426  21.919  0.00  0.00    +0.104 C 
ENDBRANCH  13  15
ENDBRANCH  11  13
ENDBRANCH   4  12
ENDBRANCH   1   5
BRANCH   1  17
ATOM     17  N   UNL     1       8.682  -1.789  25.989  0.00  0.00    -0.215 N 
ATOM     18  H   UNL     1       9.517  -1.539  25.445  0.00  0.00    +0.174 HD
BRANCH  17  19
ATOM     19  C   UNL     1       7.955  -2.920  25.466  0.00  0.00    +0.062 A 
ATOM     20  C   UNL     1       8.008  -3.281  24.100  0.00  0.00    +0.085 A 
ATOM     21  C   UNL     1       7.185  -4.344  23.623  0.00  0.00    -0.028 A 
ATOM     22  C   UNL     1       6.285  -4.973  24.516  0.00  0.00    -0.043 A 
ATOM     23  C   UNL     1       5.310  -6.040  24.067  0.00  0.00    +0.035 C 
ATOM     24  C   UNL     1       5.083  -6.050  22.561  0.00  0.00    +0.005 C 
ATOM     25  C   UNL     1       6.426  -6.046  21.854  0.00  0.00    +0.005 C 
ATOM     26  C   UNL     1       6.292  -4.626  25.874  0.00  0.00    +0.006 A 
ATOM     27  C   UNL     1       7.189  -4.756  22.161  0.00  0.00    +0.036 C 
ATOM     28  C   UNL     1       7.118  -3.611  26.344  0.00  0.00    +0.025 A 
BRANCH  20  29
ATOM     29  C   UNL     1       8.884  -2.524  23.147  0.00  0.00    +0.339 C 
ATOM     30  O   UNL     1       8.480  -1.700  22.346  0.00  0.00    -0.245 OA
BRANCH  29  31
ATOM     31  O   UNL     1      10.205  -2.786  23.281  0.00  0.00    -0.477 OA
ATOM     32  H   UNL     1      10.594  -3.203  22.486  0.00  0.00    +0.295 HD
ENDBRANCH  29  31
ENDBRANCH  20  29
ENDBRANCH  17  19
ENDBRANCH   1  17
TORSDOF 8
ENDMDL
MODEL 7
REMARK VINA RESULT:      -6.7      2.500      3.891
REMARK  Name = 
REMARK  10 active torsions:
REMARK  status: ('A' for Active; 'I' for Inactive)
REMARK    1  A    between atoms: C_1  and  N_2
REMARK    2  A    between atoms: N_2  and  C_3
REMARK    3  A    between atoms: N_2  and  C_4
REMARK    4  A    between atoms: C_4  and  C_5
REMARK    5  A    between atoms: C_6  and  C_7
REMARK    6  A    between atoms: C_13  and  S_14
REMARK    7  A    between atoms: S_14  and  N_17
REMARK    8  A    between atoms: N_17  and  C_18
REMARK    9  A    between atoms: C_27  and  C_28
REMARK   10  A    between atoms: C_28  and  O_29
REMARK                            x       y       z     vdW  Elec       q    Type
REMARK                         _______ _______ _______ _____ _____    ______ ____
ROOT
ATOM      1  S   UNL     1       9.241  -1.895  23.156  0.00  0.00    +0.073 S 
ATOM      2  O   UNL     1       8.171  -1.631  22.213  0.00  0.00    -0.150 OA
ATOM      3  O   UNL     1      10.555  -2.236  22.666  0.00  0.00    -0.150 OA
ENDROOT
BRANCH   1   5
ATOM      4  C   UNL     1       7.934  -4.258  23.957  0.00  0.00    +0.004 A 
ATOM      5  C   UNL     1       8.645  -3.098  24.324  0.00  0.00    +0.116 A 
ATOM      6  C   UNL     1       8.857  -2.791  25.690  0.00  0.00    +0.032 A 
ATOM      7  C   UNL     1       8.391  -3.636  26.693  0.00  0.00    +0.040 A 
ATOM      8  C   UNL     1       7.742  -4.802  26.335  0.00  0.00    +0.124 A 
ATOM      9  F   UNL     1       7.280  -5.626  27.284  0.00  0.00    -0.205 F 
ATOM     10  C   UNL     1       7.545  -5.125  24.998  0.00  0.00    +0.048 A 
BRANCH   4  12
ATOM     11  C   UNL     1       6.500  -4.426  21.870  0.00  0.00    -0.011 C 
ATOM     12  C   UNL     1       7.627  -4.672  22.570  0.00  0.00    +0.007 C 
BRANCH  11  13
ATOM     13  C   UNL     1       5.305  -3.624  22.310  0.00  0.00    +0.111 C 
BRANCH  13  15
ATOM     14  C   UNL     1       4.519  -5.829  22.769  0.00  0.00    +0.104 C 
ATOM     15  N   UNL     1       4.214  -4.399  22.919  0.00  0.00    -0.305 NA
ATOM     16  C   UNL     1       4.039  -4.086  24.337  0.00  0.00    +0.104 C 
ENDBRANCH  13  15
ENDBRANCH  11  13
ENDBRANCH   4  12
ENDBRANCH   1   5
BRANCH   1  17
ATOM     17  N   UNL     1       9.351  -0.443  24.070  0.00  0.00    -0.215 N 
ATOM     18  H   UNL     1       9.515  -0.748  25.036  0.00  0.00    +0.174 HD
BRANCH  17  19
ATOM     19  C   UNL     1       8.290   0.524  23.929  0.00  0.00    +0.062 A 
ATOM     20  C   UNL     1       8.506   1.798  23.355  0.00  0.00    +0.085 A 
ATOM     21  C   UNL     1       7.444   2.749  23.339  0.00  0.00    -0.028 A 
ATOM     22  C   UNL     1       6.213   2.420  23.956  0.00  0.00    -0.043 A 
ATOM     23  C   UNL     1       5.071   3.407  24.068  0.00  0.00    +0.035 C 
ATOM     24  C   UNL     1       5.508   4.854  23.873  0.00  0.00    +0.005 C 
ATOM     25  C   UNL     1       6.345   4.956  22.612  0.00  0.00    +0.005 C 
ATOM     26  C   UNL     1       6.014   1.132  24.471  0.00  0.00    +0.006 A 
ATOM     27  C   UNL     1       7.631   4.140  22.754  0.00  0.00    +0.036 C 
ATOM     28  C   UNL     1       7.041   0.194  24.457  0.00  0.00    +0.025 A 
BRANCH  20  29
ATOM     29  C   UNL     1       9.854   2.168  22.811  0.00  0.00    +0.339 C 
ATOM     30  O   UNL     1      10.804   2.507  23.495  0.00  0.00    -0.245 OA
BRANCH  29  31
ATOM     31  O   UNL     1       9.962   2.041  21.468  0.00  0.00    -0.477 OA
ATOM     32  H   UNL     1      10.627   1.375  21.200  0.00  0.00    +0.295 HD
ENDBRANCH  29  31
ENDBRANCH  20  29
ENDBRANCH  17  19
ENDBRANCH   1  17
TORSDOF 8
ENDMDL
MODEL 8
REMARK VINA RESULT:      -6.6      3.877      6.626
REMARK  Name = 
REMARK  10 active torsions:
REMARK  status: ('A' for Active; 'I' for Inactive)
REMARK    1  A    between atoms: C_1  and  N_2
REMARK    2  A    between atoms: N_2  and  C_3
REMARK    3  A    between atoms: N_2  and  C_4
REMARK    4  A    between atoms: C_4  and  C_5
REMARK    5  A    between atoms: C_6  and  C_7
REMARK    6  A    between atoms: C_13  and  S_14
REMARK    7  A    between atoms: S_14  and  N_17
REMARK    8  A    between atoms: N_17  and  C_18
REMARK    9  A    between atoms: C_27  and  C_28
REMARK   10  A    between atoms: C_28  and  O_29
REMARK                            x       y       z     vdW  Elec       q    Type
REMARK                         _______ _______ _______ _____ _____    ______ ____
ROOT
ATOM      1  S   UNL     1       8.743  -4.111  24.739  0.00  0.00    +0.073 S 
ATOM      2  O   UNL     1      10.043  -4.754  24.736  0.00  0.00    -0.150 OA
ATOM      3  O   UNL     1       7.568  -4.876  24.399  0.00  0.00    -0.150 OA
ENDROOT
BRANCH   1   5
ATOM      4  C   UNL     1       7.757  -1.943  23.235  0.00  0.00    +0.004 A 
ATOM      5  C   UNL     1       8.871  -2.634  23.753  0.00  0.00    +0.116 A 
ATOM      6  C   UNL     1      10.185  -2.213  23.438  0.00  0.00    +0.032 A 
ATOM      7  C   UNL     1      10.404  -1.098  22.633  0.00  0.00    +0.040 A 
ATOM      8  C   UNL     1       9.316  -0.385  22.169  0.00  0.00    +0.124 A 
ATOM      9  F   UNL     1       9.504   0.685  21.389  0.00  0.00    -0.205 F 
ATOM     10  C   UNL     1       8.021  -0.777  22.488  0.00  0.00    +0.048 A 
BRANCH   4  12
ATOM     11  C   UNL     1       5.547  -3.064  22.692  0.00  0.00    -0.011 C 
ATOM     12  C   UNL     1       6.341  -2.300  23.470  0.00  0.00    +0.007 C 
BRANCH  11  13
ATOM     13  C   UNL     1       5.924  -3.785  21.425  0.00  0.00    +0.111 C 
BRANCH  13  15
ATOM     14  C   UNL     1       6.867  -5.974  21.328  0.00  0.00    +0.104 C 
ATOM     15  N   UNL     1       5.607  -5.220  21.398  0.00  0.00    -0.305 NA
ATOM     16  C   UNL     1       4.854  -5.641  22.580  0.00  0.00    +0.104 C 
ENDBRANCH  13  15
ENDBRANCH  11  13
ENDBRANCH   4  12
ENDBRANCH   1   5
BRANCH   1  17
ATOM     17  N   UNL     1       8.577  -3.526  26.347  0.00  0.00    -0.215 N 
ATOM     18  H   UNL     1       9.005  -4.248  26.939  0.00  0.00    +0.174 HD
BRANCH  17  19
ATOM     19  C   UNL     1       7.266  -3.109  26.781  0.00  0.00    +0.062 A 
ATOM     20  C   UNL     1       6.294  -4.032  27.230  0.00  0.00    +0.085 A 
ATOM     21  C   UNL     1       4.982  -3.571  27.546  0.00  0.00    -0.028 A 
ATOM     22  C   UNL     1       4.662  -2.208  27.341  0.00  0.00    -0.043 A 
ATOM     23  C   UNL     1       3.268  -1.660  27.559  0.00  0.00    +0.035 C 
ATOM     24  C   UNL     1       2.195  -2.741  27.576  0.00  0.00    +0.005 C 
ATOM     25  C   UNL     1       2.620  -3.851  28.519  0.00  0.00    +0.005 C 
ATOM     26  C   UNL     1       5.661  -1.309  26.943  0.00  0.00    +0.006 A 
ATOM     27  C   UNL     1       3.895  -4.526  28.011  0.00  0.00    +0.036 C 
ATOM     28  C   UNL     1       6.949  -1.754  26.666  0.00  0.00    +0.025 A 
BRANCH  20  29
ATOM     29  C   UNL     1       6.621  -5.493  27.328  0.00  0.00    +0.339 C 
ATOM     30  O   UNL     1       7.265  -5.996  28.232  0.00  0.00    -0.245 OA
BRANCH  29  31
ATOM     31  O   UNL     1       6.085  -6.247  26.342  0.00  0.00    -0.477 OA
ATOM     32  H   UNL     1       5.498  -6.955  26.678  0.00  0.00    +0.295 HD
ENDBRANCH  29  31
ENDBRANCH  20  29
ENDBRANCH  17  19
ENDBRANCH   1  17
TORSDOF 8
ENDMDL
MODEL 9
REMARK VINA RESULT:      -6.6      2.868      4.696
REMARK  Name = 
REMARK  10 active torsions:
REMARK  status: ('A' for Active; 'I' for Inactive)
REMARK    1  A    between atoms: C_1  and  N_2
REMARK    2  A    between atoms: N_2  and  C_3
REMARK    3  A    between atoms: N_2  and  C_4
REMARK    4  A    between atoms: C_4  and  C_5
REMARK    5  A    between atoms: C_6  and  C_7
REMARK    6  A    between atoms: C_13  and  S_14
REMARK    7  A    between atoms: S_14  and  N_17
REMARK    8  A    between atoms: N_17  and  C_18
REMARK    9  A    between atoms: C_27  and  C_28
REMARK   10  A    between atoms: C_28  and  O_29
REMARK                            x       y       z     vdW  Elec       q    Type
REMARK                         _______ _______ _______ _____ _____    ______ ____
ROOT
ATOM      1  S   UNL     1       7.252  -4.057  24.461  0.00  0.00    +0.073 S 
ATOM      2  O   UNL     1       6.286  -3.112  23.936  0.00  0.00    -0.150 OA
ATOM      3  O   UNL     1       8.040  -4.852  23.551  0.00  0.00    -0.150 OA
ENDROOT
BRANCH   1   5
ATOM      4  C   UNL     1       5.420  -6.013  25.329  0.00  0.00    +0.004 A 
ATOM      5  C   UNL     1       6.416  -5.072  25.661  0.00  0.00    +0.116 A 
ATOM      6  C   UNL     1       6.750  -4.831  27.015  0.00  0.00    +0.032 A 
ATOM      7  C   UNL     1       6.123  -5.533  28.041  0.00  0.00    +0.040 A 
ATOM      8  C   UNL     1       5.187  -6.495  27.717  0.00  0.00    +0.124 A 
ATOM      9  F   UNL     1       4.568  -7.176  28.688  0.00  0.00    -0.205 F 
ATOM     10  C   UNL     1       4.864  -6.756  26.390  0.00  0.00    +0.048 A 
BRANCH   4  12
ATOM     11  C   UNL     1       3.902  -5.822  23.305  0.00  0.00    -0.011 C 
ATOM     12  C   UNL     1       4.967  -6.333  23.957  0.00  0.00    +0.007 C 
BRANCH  11  13
ATOM     13  C   UNL     1       2.952  -4.760  23.791  0.00  0.00    +0.111 C 
BRANCH  13  15
ATOM     14  C   UNL     1       1.216  -6.034  22.762  0.00  0.00    +0.104 C 
ATOM     15  N   UNL     1       1.548  -5.179  23.912  0.00  0.00    -0.305 NA
ATOM     16  C   UNL     1       1.294  -5.912  25.152  0.00  0.00    +0.104 C 
ENDBRANCH  13  15
ENDBRANCH  11  13
ENDBRANCH   4  12
ENDBRANCH   1   5
BRANCH   1  17
ATOM     17  N   UNL     1       8.310  -3.083  25.403  0.00  0.00    -0.215 N 
ATOM     18  H   UNL     1       8.115  -3.343  26.377  0.00  0.00    +0.174 HD
BRANCH  17  19
ATOM     19  C   UNL     1       8.311  -1.660  25.162  0.00  0.00    +0.062 A 
ATOM     20  C   UNL     1       8.914  -1.094  24.016  0.00  0.00    +0.085 A 
ATOM     21  C   UNL     1       8.975   0.325  23.885  0.00  0.00    -0.028 A 
ATOM     22  C   UNL     1       8.488   1.137  24.937  0.00  0.00    -0.043 A 
ATOM     23  C   UNL     1       8.606   2.646  24.919  0.00  0.00    +0.035 C 
ATOM     24  C   UNL     1       9.648   3.154  23.931  0.00  0.00    +0.005 C 
ATOM     25  C   UNL     1       9.421   2.496  22.583  0.00  0.00    +0.005 C 
ATOM     26  C   UNL     1       7.852   0.546  26.036  0.00  0.00    +0.006 A 
ATOM     27  C   UNL     1       9.632   0.984  22.683  0.00  0.00    +0.036 C 
ATOM     28  C   UNL     1       7.763  -0.838  26.148  0.00  0.00    +0.025 A 
BRANCH  20  29
ATOM     29  C   UNL     1       9.529  -1.972  22.967  0.00  0.00    +0.339 C 
ATOM     30  O   UNL     1      10.632  -2.480  23.054  0.00  0.00    -0.245 OA
BRANCH  29  31
ATOM     31  O   UNL     1       8.723  -2.215  21.907  0.00  0.00    -0.477 OA
ATOM     32  H   UNL     1       9.216  -2.313  21.067  0.00  0.00    +0.295 HD
ENDBRANCH  29  31
ENDBRANCH  20  29
ENDBRANCH  17  19
ENDBRANCH   1  17
TORSDOF 8
ENDMDL
