MODEL 1
REMARK VINA RESULT:      -4.6      0.000      0.000
REMARK  Name = 
REMARK  47 active torsions:
REMARK  status: ('A' for Active; 'I' for Inactive)
REMARK    1  A    between atoms: C_1  and  O_2
REMARK    2  A    between atoms: O_2  and  C_3
REMARK    3  A    between atoms: C_3  and  C_4
REMARK    4  A    between atoms: C_4  and  N_6
REMARK    5  A    between atoms: C_4  and  C_9
REMARK    6  A    between atoms: N_6  and  C_7
REMARK    7  A    between atoms: N_6  and  C_8
REMARK    8  A    between atoms: C_9  and  O_11
REMARK    9  A    between atoms: C_9  and  C_12
REMARK   10  A    between atoms: C_12  and  O_14
REMARK   11  A    between atoms: C_12  and  C_15
REMARK   12  A    between atoms: N_17  and  C_18
REMARK   13  A    between atoms: C_18  and  C_19
REMARK   14  A    between atoms: C_19  and  C_20
REMARK   15  A    between atoms: C_20  and  C_22
REMARK   16  A    between atoms: C_20  and  C_23
REMARK   17  A    between atoms: C_25  and  C_28
REMARK   18  A    between atoms: C_29  and  C_30
REMARK   19  A    between atoms: C_30  and  C_31
REMARK   20  A    between atoms: C_36  and  C_38
REMARK   21  A    between atoms: C_38  and  O_40
REMARK   22  A    between atoms: C_38  and  C_42
REMARK   23  A    between atoms: O_40  and  C_41
REMARK   24  A    between atoms: C_42  and  C_43
REMARK   25  A    between atoms: C_43  and  O_45
REMARK   26  A    between atoms: C_43  and  C_46
REMARK   27  A    between atoms: C_46  and  C_48
REMARK   28  A    between atoms: C_46  and  C_49
REMARK   29  A    between atoms: C_49  and  O_51
REMARK   30  A    between atoms: C_49  and  C_52
REMARK   31  A    between atoms: C_52  and  C_54
REMARK   32  A    between atoms: C_52  and  C_55
REMARK   33  A    between atoms: C_56  and  C_57
REMARK   34  A    between atoms: C_56  and  C_58
REMARK   35  A    between atoms: C_58  and  C_59
REMARK   36  A    between atoms: C_60  and  C_61
REMARK   37  A    between atoms: C_62  and  C_63
REMARK   38  A    between atoms: C_63  and  C_64
REMARK   39  A    between atoms: C_65  and  C_66
REMARK   40  A    between atoms: C_68  and  O_70
REMARK   41  A    between atoms: O_70  and  P_71
REMARK   42  A    between atoms: P_71  and  O_72
REMARK   43  A    between atoms: P_71  and  O_73
REMARK   44  A    between atoms: C_75  and  C_76
REMARK   45  A    between atoms: C_75  and  C_77
REMARK   46  A    between atoms: C_79  and  O_81
REMARK   47  A    between atoms: C_82  and  C_84
REMARK                            x       y       z     vdW  Elec       q    Type
REMARK                         _______ _______ _______ _____ _____    ______ ____
ROOT
ATOM      1  C   UNL     1       6.219  -3.469  22.131  0.00  0.00    +0.131 C 
ATOM      2  C   UNL     1       6.779  -4.830  21.634  0.00  0.00    +0.044 C 
ATOM      3  C   UNL     1       6.068  -5.200  20.327  0.00  0.00    +0.013 C 
ATOM      4  C   UNL     1       6.618  -5.987  22.616  0.00  0.00    +0.125 C 
ATOM      5  C   UNL     1       5.261  -6.000  23.309  0.00  0.00    +0.097 C 
ATOM      6  C   UNL     1       4.725  -4.628  23.773  0.00  0.00    +0.181 C 
ATOM      7  C   UNL     1       5.187  -4.128  25.154  0.00  0.00    +0.048 C 
ATOM      8  C   UNL     1       5.338  -2.588  25.331  0.00  0.00    +0.019 C 
ATOM      9  C   UNL     1       6.495  -4.721  25.699  0.00  0.00    +0.019 C 
ATOM     10  C   UNL     1       3.970  -4.440  25.992  0.00  0.00    +0.172 C 
ATOM     11  C   UNL     1       2.901  -5.228  25.293  0.00  0.00    +0.180 C 
ATOM     12  O   UNL     1       3.225  -4.883  23.914  0.00  0.00    -0.340 OA
ATOM     13  O   UNL     1       4.942  -3.602  22.789  0.00  0.00    -0.344 OA
ENDROOT
BRANCH   4  14
ATOM     14  O   UNL     1       7.713  -5.999  23.521  0.00  0.00    -0.391 OA
ATOM     15  H   UNL     1       7.401  -6.373  24.365  0.00  0.00    +0.210 HD
ENDBRANCH   4  14
BRANCH   1  16
ATOM     16  C   UNL     1       7.334  -2.559  22.764  0.00  0.00    +0.059 C 
BRANCH  16  18
ATOM     17  C   UNL     1       8.192  -0.126  22.300  0.00  0.00    +0.027 C 
ATOM     18  C   UNL     1       7.265  -1.023  22.701  0.00  0.00    -0.022 C 
BRANCH  17  22
ATOM     19  C   UNL     1       8.112   3.294  23.118  0.00  0.00    +0.199 A 
ATOM     20  O   UNL     1       7.562   3.418  21.866  0.00  0.00    -0.447 OA
ATOM     21  C   UNL     1       7.549   2.149  21.370  0.00  0.00    +0.225 A 
ATOM     22  C   UNL     1       8.065   1.306  22.325  0.00  0.00    +0.102 A 
ATOM     23  N   UNL     1       8.444   2.049  23.431  0.00  0.00    -0.214 NA
BRANCH  19  24
ATOM     24  C   UNL     1       8.318   4.571  23.900  0.00  0.00    +0.073 C 
ATOM     25  C   UNL     1       8.013   5.812  23.039  0.00  0.00    +0.017 C 
BRANCH  24  26
ATOM     26  C   UNL     1       7.465   4.663  25.184  0.00  0.00    +0.031 C 
BRANCH  26  27
ATOM     27  C   UNL     1       6.109   5.341  25.007  0.00  0.00    +0.105 C 
BRANCH  27  29
ATOM     28  C   UNL     1       4.496   4.120  23.563  0.00  0.00    +0.244 C 
ATOM     29  N   UNL     1       5.036   4.374  24.810  0.00  0.00    -0.313 N 
ATOM     30  H   UNL     1       4.595   3.951  25.619  0.00  0.00    +0.149 HD
ATOM     31  O   UNL     1       4.805   4.770  22.565  0.00  0.00    -0.273 OA
BRANCH  28  32
ATOM     32  C   UNL     1       3.396   3.029  23.531  0.00  0.00    +0.230 C 
BRANCH  32  33
ATOM     33  O   UNL     1       3.071   2.577  24.855  0.00  0.00    -0.380 OA
ATOM     34  H   UNL     1       3.823   2.025  25.144  0.00  0.00    +0.211 HD
ENDBRANCH  32  33
BRANCH  32  35
ATOM     35  C   UNL     1       2.108   3.511  22.813  0.00  0.00    +0.171 C 
BRANCH  35  36
ATOM     36  O   UNL     1       1.096   2.499  22.949  0.00  0.00    -0.387 OA
ATOM     37  H   UNL     1       0.242   2.945  23.127  0.00  0.00    +0.210 HD
ENDBRANCH  35  36
BRANCH  35  38
ATOM     38  C   UNL     1       1.609   4.922  23.293  0.00  0.00    +0.113 C 
BRANCH  38  39
ATOM     39  N   UNL     1       1.259   5.807  22.143  0.00  0.00    -0.301 NA
ATOM     40  C   UNL     1       1.476   5.158  20.850  0.00  0.00    +0.105 C 
ATOM     41  C   UNL     1       1.940   7.108  22.173  0.00  0.00    +0.105 C 
ENDBRANCH  38  39
BRANCH  38  42
ATOM     42  C   UNL     1       0.495   4.802  24.380  0.00  0.00    +0.181 C 
BRANCH  42  44
ATOM     43  C   UNL     1       1.855   5.885  25.990  0.00  0.00    +0.194 C 
ATOM     44  O   UNL     1       1.077   4.733  25.688  0.00  0.00    -0.381 OA
ENDBRANCH  42  44
ENDBRANCH  38  42
ENDBRANCH  35  38
ENDBRANCH  32  35
ENDBRANCH  28  32
ENDBRANCH  27  29
ENDBRANCH  26  27
ENDBRANCH  24  26
ENDBRANCH  19  24
ENDBRANCH  17  22
ENDBRANCH  16  18
ENDBRANCH   1  16
BRANCH  10  45
ATOM     45  O   UNL     1       4.306  -4.615  27.286  0.00  0.00    -0.280 OA
BRANCH  45  46
ATOM     46  P   UNL     1       4.483  -5.933  28.392  0.00  0.00    +0.473 P 
ATOM     47  O   UNL     1       4.641  -7.113  29.382  0.00  0.00    -0.228 OA
BRANCH  46  48
ATOM     48  O   UNL     1       5.745  -5.146  29.063  0.00  0.00    -0.303 OA
ATOM     49  H   UNL     1       6.484  -5.780  28.953  0.00  0.00    +0.222 HD
ENDBRANCH  46  48
BRANCH  46  50
ATOM     50  O   UNL     1       3.298  -5.220  29.260  0.00  0.00    -0.303 OA
ATOM     51  H   UNL     1       3.631  -4.449  29.752  0.00  0.00    +0.222 HD
ENDBRANCH  46  50
ENDBRANCH  45  46
ENDBRANCH  10  45
BRANCH  11  52
ATOM     52  C   UNL     1       1.516  -4.727  25.953  0.00  0.00    +0.152 C 
BRANCH  52  53
ATOM     53  O   UNL     1       0.640  -5.849  26.299  0.00  0.00    -0.377 OA
ATOM     54  C   UNL     1       1.273  -7.098  26.567  0.00  0.00    +0.194 C 
ENDBRANCH  52  53
BRANCH  52  55
ATOM     55  C   UNL     1       1.302  -3.696  27.078  0.00  0.00    +0.066 C 
BRANCH  55  56
ATOM     56  C   UNL     1       0.483  -2.385  27.026  0.00  0.00    +0.122 C 
BRANCH  56  57
ATOM     57  C   UNL     1       0.763  -1.087  27.897  0.00  0.00    +0.044 C 
ATOM     58  C   UNL     1       1.384  -1.588  29.242  0.00  0.00    +0.013 C 
BRANCH  57  59
ATOM     59  C   UNL     1       1.693  -0.004  27.281  0.00  0.00    +0.126 C 
BRANCH  59  60
ATOM     60  C   UNL     1       2.222   1.105  28.295  0.00  0.00    +0.038 C 
ATOM     61  C   UNL     1       1.480   2.451  28.261  0.00  0.00    +0.014 C 
BRANCH  60  62
ATOM     62  C   UNL     1       3.709   1.328  28.126  0.00  0.00    -0.018 C 
ATOM     63  C   UNL     1       4.608   1.642  29.077  0.00  0.00    -0.051 C 
ATOM     64  C   UNL     1       4.320   2.085  30.485  0.00  0.00    +0.044 C 
BRANCH  63  65
ATOM     65  C   UNL     1       6.002   1.252  28.853  0.00  0.00    -0.048 C 
ATOM     66  C   UNL     1       6.306   0.826  27.604  0.00  0.00    +0.003 C 
ATOM     67  C   UNL     1       6.925   1.188  30.031  0.00  0.00    +0.044 C 
BRANCH  66  68
ATOM     68  C   UNL     1       7.403  -0.037  27.316  0.00  0.00    +0.001 C 
ATOM     69  C   UNL     1       8.181   0.081  26.240  0.00  0.00    +0.004 C 
BRANCH  69  70
ATOM     70  C   UNL     1       8.969  -1.046  25.787  0.00  0.00    -0.040 C 
ATOM     71  C   UNL     1       8.688  -2.312  26.139  0.00  0.00    +0.092 C 
ATOM     72  C   UNL     1      10.154  -0.721  24.881  0.00  0.00    +0.044 C 
BRANCH  71  73
ATOM     73  C   UNL     1       9.466  -3.383  25.394  0.00  0.00    +0.092 C 
ATOM     74  N   UNL     1      10.112  -4.273  24.777  0.00  0.00    -0.191 NA
ENDBRANCH  71  73
ENDBRANCH  69  70
ENDBRANCH  66  68
ENDBRANCH  63  65
ENDBRANCH  60  62
ENDBRANCH  59  60
BRANCH  59  75
ATOM     75  O   UNL     1       2.835  -0.663  26.701  0.00  0.00    -0.391 OA
ATOM     76  H   UNL     1       3.656  -0.386  27.130  0.00  0.00    +0.210 HD
ENDBRANCH  59  75
ENDBRANCH  57  59
ENDBRANCH  56  57
BRANCH  56  77
ATOM     77  O   UNL     1       0.735  -1.970  25.652  0.00  0.00    -0.391 OA
ATOM     78  H   UNL     1       0.742  -2.744  25.067  0.00  0.00    +0.210 HD
ENDBRANCH  56  77
ENDBRANCH  55  56
ENDBRANCH  52  55
ENDBRANCH  11  52
TORSDOF 34
ENDMDL
MODEL 2
REMARK VINA RESULT:      -3.7      2.390      4.989
REMARK  Name = 
REMARK  47 active torsions:
REMARK  status: ('A' for Active; 'I' for Inactive)
REMARK    1  A    between atoms: C_1  and  O_2
REMARK    2  A    between atoms: O_2  and  C_3
REMARK    3  A    between atoms: C_3  and  C_4
REMARK    4  A    between atoms: C_4  and  N_6
REMARK    5  A    between atoms: C_4  and  C_9
REMARK    6  A    between atoms: N_6  and  C_7
REMARK    7  A    between atoms: N_6  and  C_8
REMARK    8  A    between atoms: C_9  and  O_11
REMARK    9  A    between atoms: C_9  and  C_12
REMARK   10  A    between atoms: C_12  and  O_14
REMARK   11  A    between atoms: C_12  and  C_15
REMARK   12  A    between atoms: N_17  and  C_18
REMARK   13  A    between atoms: C_18  and  C_19
REMARK   14  A    between atoms: C_19  and  C_20
REMARK   15  A    between atoms: C_20  and  C_22
REMARK   16  A    between atoms: C_20  and  C_23
REMARK   17  A    between atoms: C_25  and  C_28
REMARK   18  A    between atoms: C_29  and  C_30
REMARK   19  A    between atoms: C_30  and  C_31
REMARK   20  A    between atoms: C_36  and  C_38
REMARK   21  A    between atoms: C_38  and  O_40
REMARK   22  A    between atoms: C_38  and  C_42
REMARK   23  A    between atoms: O_40  and  C_41
REMARK   24  A    between atoms: C_42  and  C_43
REMARK   25  A    between atoms: C_43  and  O_45
REMARK   26  A    between atoms: C_43  and  C_46
REMARK   27  A    between atoms: C_46  and  C_48
REMARK   28  A    between atoms: C_46  and  C_49
REMARK   29  A    between atoms: C_49  and  O_51
REMARK   30  A    between atoms: C_49  and  C_52
REMARK   31  A    between atoms: C_52  and  C_54
REMARK   32  A    between atoms: C_52  and  C_55
REMARK   33  A    between atoms: C_56  and  C_57
REMARK   34  A    between atoms: C_56  and  C_58
REMARK   35  A    between atoms: C_58  and  C_59
REMARK   36  A    between atoms: C_60  and  C_61
REMARK   37  A    between atoms: C_62  and  C_63
REMARK   38  A    between atoms: C_63  and  C_64
REMARK   39  A    between atoms: C_65  and  C_66
REMARK   40  A    between atoms: C_68  and  O_70
REMARK   41  A    between atoms: O_70  and  P_71
REMARK   42  A    between atoms: P_71  and  O_72
REMARK   43  A    between atoms: P_71  and  O_73
REMARK   44  A    between atoms: C_75  and  C_76
REMARK   45  A    between atoms: C_75  and  C_77
REMARK   46  A    between atoms: C_79  and  O_81
REMARK   47  A    between atoms: C_82  and  C_84
REMARK                            x       y       z     vdW  Elec       q    Type
REMARK                         _______ _______ _______ _____ _____    ______ ____
ROOT
ATOM      1  C   UNL     1       7.574  -2.435  23.495  0.00  0.00    +0.131 C 
ATOM      2  C   UNL     1       7.888  -3.700  22.651  0.00  0.00    +0.044 C 
ATOM      3  C   UNL     1       7.084  -3.627  21.348  0.00  0.00    +0.013 C 
ATOM      4  C   UNL     1       7.573  -5.026  23.339  0.00  0.00    +0.125 C 
ATOM      5  C   UNL     1       6.255  -5.004  24.104  0.00  0.00    +0.097 C 
ATOM      6  C   UNL     1       5.965  -3.723  24.917  0.00  0.00    +0.181 C 
ATOM      7  C   UNL     1       6.547  -3.654  26.341  0.00  0.00    +0.048 C 
ATOM      8  C   UNL     1       6.953  -2.246  26.868  0.00  0.00    +0.019 C 
ATOM      9  C   UNL     1       7.758  -4.552  26.636  0.00  0.00    +0.019 C 
ATOM     10  C   UNL     1       5.324  -3.975  27.165  0.00  0.00    +0.172 C 
ATOM     11  C   UNL     1       4.118  -4.398  26.377  0.00  0.00    +0.180 C 
ATOM     12  O   UNL     1       4.449  -3.777  25.100  0.00  0.00    -0.340 OA
ATOM     13  O   UNL     1       6.314  -2.532  24.193  0.00  0.00    -0.344 OA
ENDROOT
BRANCH   4  14
ATOM     14  O   UNL     1       8.680  -5.424  24.134  0.00  0.00    -0.391 OA
ATOM     15  H   UNL     1       8.394  -6.168  24.695  0.00  0.00    +0.210 HD
ENDBRANCH   4  14
BRANCH   1  16
ATOM     16  C   UNL     1       8.842  -1.886  24.246  0.00  0.00    +0.059 C 
BRANCH  16  18
ATOM     17  C   UNL     1       8.670   0.658  23.641  0.00  0.00    +0.027 C 
ATOM     18  C   UNL     1       9.333  -0.439  24.066  0.00  0.00    -0.022 C 
BRANCH  17  22
ATOM     19  C   UNL     1      10.658   3.558  23.528  0.00  0.00    +0.199 A 
ATOM     20  O   UNL     1       9.506   4.137  23.055  0.00  0.00    -0.447 OA
ATOM     21  C   UNL     1       8.606   3.115  23.000  0.00  0.00    +0.225 A 
ATOM     22  C   UNL     1       9.223   1.972  23.447  0.00  0.00    +0.102 A 
ATOM     23  N   UNL     1      10.541   2.258  23.762  0.00  0.00    -0.214 NA
BRANCH  19  24
ATOM     24  C   UNL     1      11.873   4.450  23.635  0.00  0.00    +0.073 C 
ATOM     25  C   UNL     1      12.358   4.909  22.246  0.00  0.00    +0.017 C 
BRANCH  24  26
ATOM     26  C   UNL     1      11.649   5.710  24.500  0.00  0.00    +0.031 C 
BRANCH  26  27
ATOM     27  C   UNL     1      10.460   6.571  24.083  0.00  0.00    +0.105 C 
BRANCH  27  29
ATOM     28  C   UNL     1       8.106   6.823  24.841  0.00  0.00    +0.244 C 
ATOM     29  N   UNL     1       9.446   6.647  25.129  0.00  0.00    -0.313 N 
ATOM     30  H   UNL     1       9.737   6.679  26.100  0.00  0.00    +0.149 HD
ATOM     31  O   UNL     1       7.698   7.040  23.700  0.00  0.00    -0.273 OA
BRANCH  28  32
ATOM     32  C   UNL     1       7.164   6.834  26.071  0.00  0.00    +0.230 C 
BRANCH  32  33
ATOM     33  O   UNL     1       5.788   6.712  25.676  0.00  0.00    -0.380 OA
ATOM     34  H   UNL     1       5.385   7.588  25.829  0.00  0.00    +0.211 HD
ENDBRANCH  32  33
BRANCH  32  35
ATOM     35  C   UNL     1       7.515   5.720  27.093  0.00  0.00    +0.171 C 
BRANCH  35  36
ATOM     36  O   UNL     1       8.351   6.280  28.119  0.00  0.00    -0.387 OA
ATOM     37  H   UNL     1       8.962   5.581  28.430  0.00  0.00    +0.210 HD
ENDBRANCH  35  36
BRANCH  35  38
ATOM     38  C   UNL     1       6.256   4.988  27.683  0.00  0.00    +0.113 C 
BRANCH  38  39
ATOM     39  N   UNL     1       6.084   3.624  27.099  0.00  0.00    -0.301 NA
ATOM     40  C   UNL     1       7.311   3.121  26.480  0.00  0.00    +0.105 C 
ATOM     41  C   UNL     1       4.966   3.526  26.152  0.00  0.00    +0.105 C 
ENDBRANCH  38  39
BRANCH  38  42
ATOM     42  C   UNL     1       6.240   5.031  29.243  0.00  0.00    +0.181 C 
BRANCH  42  44
ATOM     43  C   UNL     1       7.378   3.364  30.484  0.00  0.00    +0.194 C 
ATOM     44  O   UNL     1       6.190   3.703  29.780  0.00  0.00    -0.381 OA
ENDBRANCH  42  44
ENDBRANCH  38  42
ENDBRANCH  35  38
ENDBRANCH  32  35
ENDBRANCH  28  32
ENDBRANCH  27  29
ENDBRANCH  26  27
ENDBRANCH  24  26
ENDBRANCH  19  24
ENDBRANCH  17  22
ENDBRANCH  16  18
ENDBRANCH   1  16
BRANCH  10  45
ATOM     45  O   UNL     1       5.668  -4.512  28.353  0.00  0.00    -0.280 OA
BRANCH  45  46
ATOM     46  P   UNL     1       5.235  -5.889  29.306  0.00  0.00    +0.473 P 
ATOM     47  O   UNL     1       4.848  -7.122  30.159  0.00  0.00    -0.228 OA
BRANCH  46  48
ATOM     48  O   UNL     1       6.423  -6.725  28.562  0.00  0.00    -0.303 OA
ATOM     49  H   UNL     1       7.218  -6.492  29.084  0.00  0.00    +0.222 HD
ENDBRANCH  46  48
BRANCH  46  50
ATOM     50  O   UNL     1       6.147  -5.223  30.485  0.00  0.00    -0.303 OA
ATOM     51  H   UNL     1       6.935  -5.762  30.674  0.00  0.00    +0.222 HD
ENDBRANCH  46  50
ENDBRANCH  45  46
ENDBRANCH  10  45
BRANCH  11  52
ATOM     52  C   UNL     1       2.856  -3.872  27.235  0.00  0.00    +0.152 C 
BRANCH  52  53
ATOM     53  O   UNL     1       2.089  -4.980  27.811  0.00  0.00    -0.377 OA
ATOM     54  C   UNL     1       2.130  -6.221  27.109  0.00  0.00    +0.194 C 
ENDBRANCH  52  53
BRANCH  52  55
ATOM     55  C   UNL     1       2.810  -2.762  28.302  0.00  0.00    +0.066 C 
BRANCH  55  56
ATOM     56  C   UNL     1       2.786  -1.231  28.084  0.00  0.00    +0.122 C 
BRANCH  56  57
ATOM     57  C   UNL     1       4.064  -0.297  27.957  0.00  0.00    +0.044 C 
ATOM     58  C   UNL     1       4.206   0.047  26.438  0.00  0.00    +0.013 C 
BRANCH  57  59
ATOM     59  C   UNL     1       4.066   1.022  28.779  0.00  0.00    +0.126 C 
BRANCH  59  60
ATOM     60  C   UNL     1       2.671   1.427  29.433  0.00  0.00    +0.038 C 
ATOM     61  C   UNL     1       1.892   0.286  30.108  0.00  0.00    +0.014 C 
BRANCH  60  62
ATOM     62  C   UNL     1       1.788   2.135  28.429  0.00  0.00    -0.018 C 
ATOM     63  C   UNL     1       1.804   3.439  28.094  0.00  0.00    -0.051 C 
ATOM     64  C   UNL     1       2.529   4.548  28.805  0.00  0.00    +0.044 C 
BRANCH  63  65
ATOM     65  C   UNL     1       1.322   3.806  26.760  0.00  0.00    -0.048 C 
ATOM     66  C   UNL     1       1.268   2.803  25.852  0.00  0.00    +0.003 C 
ATOM     67  C   UNL     1       1.096   5.255  26.455  0.00  0.00    +0.044 C 
BRANCH  66  68
ATOM     68  C   UNL     1       1.323   3.018  24.444  0.00  0.00    +0.001 C 
ATOM     69  C   UNL     1       2.453   3.043  23.737  0.00  0.00    +0.004 C 
BRANCH  69  70
ATOM     70  C   UNL     1       2.482   3.681  22.438  0.00  0.00    -0.040 C 
ATOM     71  C   UNL     1       2.040   3.072  21.325  0.00  0.00    +0.092 C 
ATOM     72  C   UNL     1       3.051   5.097  22.393  0.00  0.00    +0.044 C 
BRANCH  71  73
ATOM     73  C   UNL     1       1.927   3.961  20.097  0.00  0.00    +0.092 C 
ATOM     74  N   UNL     1       1.833   4.697  19.078  0.00  0.00    -0.191 NA
ENDBRANCH  71  73
ENDBRANCH  69  70
ENDBRANCH  66  68
ENDBRANCH  63  65
ENDBRANCH  60  62
ENDBRANCH  59  60
BRANCH  59  75
ATOM     75  O   UNL     1       5.038   0.898  29.835  0.00  0.00    -0.391 OA
ATOM     76  H   UNL     1       5.770   1.519  29.713  0.00  0.00    +0.210 HD
ENDBRANCH  59  75
ENDBRANCH  57  59
ENDBRANCH  56  57
BRANCH  56  77
ATOM     77  O   UNL     1       2.144  -1.159  26.778  0.00  0.00    -0.391 OA
ATOM     78  H   UNL     1       1.878  -0.246  26.588  0.00  0.00    +0.210 HD
ENDBRANCH  56  77
ENDBRANCH  55  56
ENDBRANCH  52  55
ENDBRANCH  11  52
TORSDOF 34
ENDMDL
MODEL 3
REMARK VINA RESULT:      -3.5      1.404      2.137
REMARK  Name = 
REMARK  47 active torsions:
REMARK  status: ('A' for Active; 'I' for Inactive)
REMARK    1  A    between atoms: C_1  and  O_2
REMARK    2  A    between atoms: O_2  and  C_3
REMARK    3  A    between atoms: C_3  and  C_4
REMARK    4  A    between atoms: C_4  and  N_6
REMARK    5  A    between atoms: C_4  and  C_9
REMARK    6  A    between atoms: N_6  and  C_7
REMARK    7  A    between atoms: N_6  and  C_8
REMARK    8  A    between atoms: C_9  and  O_11
REMARK    9  A    between atoms: C_9  and  C_12
REMARK   10  A    between atoms: C_12  and  O_14
REMARK   11  A    between atoms: C_12  and  C_15
REMARK   12  A    between atoms: N_17  and  C_18
REMARK   13  A    between atoms: C_18  and  C_19
REMARK   14  A    between atoms: C_19  and  C_20
REMARK   15  A    between atoms: C_20  and  C_22
REMARK   16  A    between atoms: C_20  and  C_23
REMARK   17  A    between atoms: C_25  and  C_28
REMARK   18  A    between atoms: C_29  and  C_30
REMARK   19  A    between atoms: C_30  and  C_31
REMARK   20  A    between atoms: C_36  and  C_38
REMARK   21  A    between atoms: C_38  and  O_40
REMARK   22  A    between atoms: C_38  and  C_42
REMARK   23  A    between atoms: O_40  and  C_41
REMARK   24  A    between atoms: C_42  and  C_43
REMARK   25  A    between atoms: C_43  and  O_45
REMARK   26  A    between atoms: C_43  and  C_46
REMARK   27  A    between atoms: C_46  and  C_48
REMARK   28  A    between atoms: C_46  and  C_49
REMARK   29  A    between atoms: C_49  and  O_51
REMARK   30  A    between atoms: C_49  and  C_52
REMARK   31  A    between atoms: C_52  and  C_54
REMARK   32  A    between atoms: C_52  and  C_55
REMARK   33  A    between atoms: C_56  and  C_57
REMARK   34  A    between atoms: C_56  and  C_58
REMARK   35  A    between atoms: C_58  and  C_59
REMARK   36  A    between atoms: C_60  and  C_61
REMARK   37  A    between atoms: C_62  and  C_63
REMARK   38  A    between atoms: C_63  and  C_64
REMARK   39  A    between atoms: C_65  and  C_66
REMARK   40  A    between atoms: C_68  and  O_70
REMARK   41  A    between atoms: O_70  and  P_71
REMARK   42  A    between atoms: P_71  and  O_72
REMARK   43  A    between atoms: P_71  and  O_73
REMARK   44  A    between atoms: C_75  and  C_76
REMARK   45  A    between atoms: C_75  and  C_77
REMARK   46  A    between atoms: C_79  and  O_81
REMARK   47  A    between atoms: C_82  and  C_84
REMARK                            x       y       z     vdW  Elec       q    Type
REMARK                         _______ _______ _______ _____ _____    ______ ____
ROOT
ATOM      1  C   UNL     1       5.947  -3.131  22.103  0.00  0.00    +0.131 C 
ATOM      2  C   UNL     1       6.476  -4.252  21.167  0.00  0.00    +0.044 C 
ATOM      3  C   UNL     1       5.706  -4.183  19.844  0.00  0.00    +0.013 C 
ATOM      4  C   UNL     1       6.352  -5.667  21.726  0.00  0.00    +0.125 C 
ATOM      5  C   UNL     1       5.026  -5.915  22.436  0.00  0.00    +0.097 C 
ATOM      6  C   UNL     1       4.520  -4.773  23.344  0.00  0.00    +0.181 C 
ATOM      7  C   UNL     1       5.047  -4.745  24.791  0.00  0.00    +0.048 C 
ATOM      8  C   UNL     1       5.215  -3.345  25.452  0.00  0.00    +0.019 C 
ATOM      9  C   UNL     1       6.374  -5.472  25.056  0.00  0.00    +0.019 C 
ATOM     10  C   UNL     1       3.866  -5.322  25.534  0.00  0.00    +0.172 C 
ATOM     11  C   UNL     1       2.762  -5.850  24.665  0.00  0.00    +0.180 C 
ATOM     12  O   UNL     1       3.026  -5.073  23.460  0.00  0.00    -0.340 OA
ATOM     13  O   UNL     1       4.700  -3.481  22.739  0.00  0.00    -0.344 OA
ENDROOT
BRANCH   4  14
ATOM     14  O   UNL     1       7.486  -5.963  22.528  0.00  0.00    -0.391 OA
ATOM     15  H   UNL     1       7.962  -5.128  22.694  0.00  0.00    +0.210 HD
ENDBRANCH   4  14
BRANCH   1  16
ATOM     16  C   UNL     1       7.095  -2.466  22.949  0.00  0.00    +0.059 C 
BRANCH  16  18
ATOM     17  C   UNL     1       7.437   0.033  22.236  0.00  0.00    +0.027 C 
ATOM     18  C   UNL     1       7.190  -0.943  23.138  0.00  0.00    -0.022 C 
BRANCH  17  22
ATOM     19  C   UNL     1       8.264   3.226  23.457  0.00  0.00    +0.199 A 
ATOM     20  O   UNL     1       7.260   3.634  22.615  0.00  0.00    -0.447 OA
ATOM     21  C   UNL     1       6.832   2.489  22.012  0.00  0.00    +0.225 A 
ATOM     22  C   UNL     1       7.565   1.439  22.509  0.00  0.00    +0.102 A 
ATOM     23  N   UNL     1       8.494   1.921  23.416  0.00  0.00    -0.214 NA
BRANCH  19  24
ATOM     24  C   UNL     1       8.987   4.308  24.226  0.00  0.00    +0.073 C 
ATOM     25  C   UNL     1       9.239   5.549  23.349  0.00  0.00    +0.017 C 
BRANCH  24  26
ATOM     26  C   UNL     1       8.246   4.770  25.501  0.00  0.00    +0.031 C 
BRANCH  26  27
ATOM     27  C   UNL     1       7.950   6.265  25.565  0.00  0.00    +0.105 C 
BRANCH  27  29
ATOM     28  C   UNL     1       5.717   6.658  24.547  0.00  0.00    +0.244 C 
ATOM     29  N   UNL     1       6.521   6.537  25.664  0.00  0.00    -0.313 N 
ATOM     30  H   UNL     1       6.119   6.750  26.571  0.00  0.00    +0.149 HD
ATOM     31  O   UNL     1       6.171   6.659  23.403  0.00  0.00    -0.273 OA
BRANCH  28  32
ATOM     32  C   UNL     1       4.215   6.900  24.839  0.00  0.00    +0.230 C 
BRANCH  32  33
ATOM     33  O   UNL     1       3.420   6.741  23.653  0.00  0.00    -0.380 OA
ATOM     34  H   UNL     1       3.923   6.140  23.071  0.00  0.00    +0.211 HD
ENDBRANCH  32  33
BRANCH  32  35
ATOM     35  C   UNL     1       3.675   5.972  25.959  0.00  0.00    +0.171 C 
BRANCH  35  36
ATOM     36  O   UNL     1       2.616   6.652  26.654  0.00  0.00    -0.387 OA
ATOM     37  H   UNL     1       1.954   5.985  26.928  0.00  0.00    +0.210 HD
ENDBRANCH  35  36
BRANCH  35  38
ATOM     38  C   UNL     1       3.235   4.554  25.443  0.00  0.00    +0.113 C 
BRANCH  38  39
ATOM     39  N   UNL     1       4.020   3.461  26.090  0.00  0.00    -0.301 NA
ATOM     40  C   UNL     1       4.906   3.956  27.144  0.00  0.00    +0.105 C 
ATOM     41  C   UNL     1       4.781   2.640  25.139  0.00  0.00    +0.105 C 
ENDBRANCH  38  39
BRANCH  38  42
ATOM     42  C   UNL     1       1.686   4.367  25.514  0.00  0.00    +0.181 C 
BRANCH  42  44
ATOM     43  C   UNL     1       0.641   3.162  23.763  0.00  0.00    +0.194 C 
ATOM     44  O   UNL     1       1.315   3.078  25.013  0.00  0.00    -0.381 OA
ENDBRANCH  42  44
ENDBRANCH  38  42
ENDBRANCH  35  38
ENDBRANCH  32  35
ENDBRANCH  28  32
ENDBRANCH  27  29
ENDBRANCH  26  27
ENDBRANCH  24  26
ENDBRANCH  19  24
ENDBRANCH  17  22
ENDBRANCH  16  18
ENDBRANCH   1  16
BRANCH  10  45
ATOM     45  O   UNL     1       4.258  -5.906  26.685  0.00  0.00    -0.280 OA
BRANCH  45  46
ATOM     46  P   UNL     1       5.081  -5.446  28.135  0.00  0.00    +0.473 P 
ATOM     47  O   UNL     1       5.818  -5.034  29.433  0.00  0.00    -0.228 OA
BRANCH  46  48
ATOM     48  O   UNL     1       3.917  -6.208  28.988  0.00  0.00    -0.303 OA
ATOM     49  H   UNL     1       3.437  -5.469  29.415  0.00  0.00    +0.222 HD
ENDBRANCH  46  48
BRANCH  46  50
ATOM     50  O   UNL     1       6.039  -6.741  27.872  0.00  0.00    -0.303 OA
ATOM     51  H   UNL     1       5.617  -7.381  27.273  0.00  0.00    +0.222 HD
ENDBRANCH  46  50
ENDBRANCH  45  46
ENDBRANCH  10  45
BRANCH  11  52
ATOM     52  C   UNL     1       1.411  -5.603  25.513  0.00  0.00    +0.152 C 
BRANCH  52  53
ATOM     53  O   UNL     1       0.703  -6.855  25.787  0.00  0.00    -0.377 OA
ATOM     54  C   UNL     1       1.307  -7.741  26.728  0.00  0.00    +0.194 C 
ENDBRANCH  52  53
BRANCH  52  55
ATOM     55  C   UNL     1       1.210  -4.749  26.780  0.00  0.00    +0.066 C 
BRANCH  55  56
ATOM     56  C   UNL     1       0.444  -3.412  26.917  0.00  0.00    +0.122 C 
BRANCH  56  57
ATOM     57  C   UNL     1       0.827  -2.226  27.900  0.00  0.00    +0.044 C 
ATOM     58  C   UNL     1       1.965  -2.773  28.823  0.00  0.00    +0.013 C 
BRANCH  57  59
ATOM     59  C   UNL     1       1.293  -0.890  27.256  0.00  0.00    +0.126 C 
BRANCH  59  60
ATOM     60  C   UNL     1       1.714   0.256  28.279  0.00  0.00    +0.038 C 
ATOM     61  C   UNL     1       0.825   1.511  28.281  0.00  0.00    +0.014 C 
BRANCH  60  62
ATOM     62  C   UNL     1       3.163   0.648  28.086  0.00  0.00    -0.018 C 
ATOM     63  C   UNL     1       4.060   0.977  29.034  0.00  0.00    -0.051 C 
ATOM     64  C   UNL     1       3.780   1.274  30.481  0.00  0.00    +0.044 C 
BRANCH  63  65
ATOM     65  C   UNL     1       5.477   0.757  28.738  0.00  0.00    -0.048 C 
ATOM     66  C   UNL     1       5.749   0.131  27.568  0.00  0.00    +0.003 C 
ATOM     67  C   UNL     1       6.487   1.071  29.799  0.00  0.00    +0.044 C 
BRANCH  66  68
ATOM     68  C   UNL     1       6.947  -0.604  27.332  0.00  0.00    +0.001 C 
ATOM     69  C   UNL     1       7.778  -0.370  26.316  0.00  0.00    +0.004 C 
BRANCH  69  70
ATOM     70  C   UNL     1       8.708  -1.393  25.888  0.00  0.00    -0.040 C 
ATOM     71  C   UNL     1       8.513  -2.698  26.144  0.00  0.00    +0.092 C 
ATOM     72  C   UNL     1       9.938  -0.911  25.124  0.00  0.00    +0.044 C 
BRANCH  71  73
ATOM     73  C   UNL     1       9.457  -3.650  25.428  0.00  0.00    +0.092 C 
ATOM     74  N   UNL     1      10.239  -4.440  24.832  0.00  0.00    -0.191 NA
ENDBRANCH  71  73
ENDBRANCH  69  70
ENDBRANCH  66  68
ENDBRANCH  63  65
ENDBRANCH  60  62
ENDBRANCH  59  60
BRANCH  59  75
ATOM     75  O   UNL     1       2.420  -1.168  26.403  0.00  0.00    -0.391 OA
ATOM     76  H   UNL     1       2.393  -2.076  26.069  0.00  0.00    +0.210 HD
ENDBRANCH  59  75
ENDBRANCH  57  59
ENDBRANCH  56  57
BRANCH  56  77
ATOM     77  O   UNL     1       0.631  -2.862  25.581  0.00  0.00    -0.391 OA
ATOM     78  H   UNL     1       0.823  -3.574  24.952  0.00  0.00    +0.210 HD
ENDBRANCH  56  77
ENDBRANCH  55  56
ENDBRANCH  52  55
ENDBRANCH  11  52
TORSDOF 34
ENDMDL
MODEL 4
REMARK VINA RESULT:      -3.4      2.247      5.012
REMARK  Name = 
REMARK  47 active torsions:
REMARK  status: ('A' for Active; 'I' for Inactive)
REMARK    1  A    between atoms: C_1  and  O_2
REMARK    2  A    between atoms: O_2  and  C_3
REMARK    3  A    between atoms: C_3  and  C_4
REMARK    4  A    between atoms: C_4  and  N_6
REMARK    5  A    between atoms: C_4  and  C_9
REMARK    6  A    between atoms: N_6  and  C_7
REMARK    7  A    between atoms: N_6  and  C_8
REMARK    8  A    between atoms: C_9  and  O_11
REMARK    9  A    between atoms: C_9  and  C_12
REMARK   10  A    between atoms: C_12  and  O_14
REMARK   11  A    between atoms: C_12  and  C_15
REMARK   12  A    between atoms: N_17  and  C_18
REMARK   13  A    between atoms: C_18  and  C_19
REMARK   14  A    between atoms: C_19  and  C_20
REMARK   15  A    between atoms: C_20  and  C_22
REMARK   16  A    between atoms: C_20  and  C_23
REMARK   17  A    between atoms: C_25  and  C_28
REMARK   18  A    between atoms: C_29  and  C_30
REMARK   19  A    between atoms: C_30  and  C_31
REMARK   20  A    between atoms: C_36  and  C_38
REMARK   21  A    between atoms: C_38  and  O_40
REMARK   22  A    between atoms: C_38  and  C_42
REMARK   23  A    between atoms: O_40  and  C_41
REMARK   24  A    between atoms: C_42  and  C_43
REMARK   25  A    between atoms: C_43  and  O_45
REMARK   26  A    between atoms: C_43  and  C_46
REMARK   27  A    between atoms: C_46  and  C_48
REMARK   28  A    between atoms: C_46  and  C_49
REMARK   29  A    between atoms: C_49  and  O_51
REMARK   30  A    between atoms: C_49  and  C_52
REMARK   31  A    between atoms: C_52  and  C_54
REMARK   32  A    between atoms: C_52  and  C_55
REMARK   33  A    between atoms: C_56  and  C_57
REMARK   34  A    between atoms: C_56  and  C_58
REMARK   35  A    between atoms: C_58  and  C_59
REMARK   36  A    between atoms: C_60  and  C_61
REMARK   37  A    between atoms: C_62  and  C_63
REMARK   38  A    between atoms: C_63  and  C_64
REMARK   39  A    between atoms: C_65  and  C_66
REMARK   40  A    between atoms: C_68  and  O_70
REMARK   41  A    between atoms: O_70  and  P_71
REMARK   42  A    between atoms: P_71  and  O_72
REMARK   43  A    between atoms: P_71  and  O_73
REMARK   44  A    between atoms: C_75  and  C_76
REMARK   45  A    between atoms: C_75  and  C_77
REMARK   46  A    between atoms: C_79  and  O_81
REMARK   47  A    between atoms: C_82  and  C_84
REMARK                            x       y       z     vdW  Elec       q    Type
REMARK                         _______ _______ _______ _____ _____    ______ ____
ROOT
ATOM      1  C   UNL     1       6.558  -2.763  22.784  0.00  0.00    +0.131 C 
ATOM      2  C   UNL     1       7.188  -3.998  22.085  0.00  0.00    +0.044 C 
ATOM      3  C   UNL     1       6.525  -4.170  20.713  0.00  0.00    +0.013 C 
ATOM      4  C   UNL     1       7.055  -5.310  22.854  0.00  0.00    +0.125 C 
ATOM      5  C   UNL     1       5.683  -5.492  23.492  0.00  0.00    +0.097 C 
ATOM      6  C   UNL     1       5.077  -4.239  24.163  0.00  0.00    +0.181 C 
ATOM      7  C   UNL     1       5.484  -3.962  25.622  0.00  0.00    +0.048 C 
ATOM      8  C   UNL     1       5.564  -2.469  26.059  0.00  0.00    +0.019 C 
ATOM      9  C   UNL     1       6.804  -4.587  26.100  0.00  0.00    +0.019 C 
ATOM     10  C   UNL     1       4.263  -4.457  26.358  0.00  0.00    +0.172 C 
ATOM     11  C   UNL     1       3.245  -5.157  25.505  0.00  0.00    +0.180 C 
ATOM     12  O   UNL     1       3.586  -4.573  24.213  0.00  0.00    -0.340 OA
ATOM     13  O   UNL     1       5.272  -3.055  23.372  0.00  0.00    -0.344 OA
ENDROOT
BRANCH   4  14
ATOM     14  O   UNL     1       8.127  -5.432  23.776  0.00  0.00    -0.391 OA
ATOM     15  H   UNL     1       8.559  -4.561  23.851  0.00  0.00    +0.210 HD
ENDBRANCH   4  14
BRANCH   1  16
ATOM     16  C   UNL     1       7.617  -1.930  23.595  0.00  0.00    +0.059 C 
BRANCH  16  18
ATOM     17  C   UNL     1       6.958   0.479  22.802  0.00  0.00    +0.027 C 
ATOM     18  C   UNL     1       7.770  -0.410  23.414  0.00  0.00    -0.022 C 
BRANCH  17  22
ATOM     19  C   UNL     1       8.073   3.811  22.975  0.00  0.00    +0.199 A 
ATOM     20  O   UNL     1       7.077   4.025  22.055  0.00  0.00    -0.447 OA
ATOM     21  C   UNL     1       6.541   2.791  21.836  0.00  0.00    +0.225 A 
ATOM     22  C   UNL     1       7.205   1.886  22.628  0.00  0.00    +0.102 A 
ATOM     23  N   UNL     1       8.198   2.542  23.336  0.00  0.00    -0.214 NA
BRANCH  19  24
ATOM     24  C   UNL     1       8.903   5.011  23.369  0.00  0.00    +0.073 C 
ATOM     25  C   UNL     1       8.170   6.329  23.054  0.00  0.00    +0.017 C 
BRANCH  24  26
ATOM     26  C   UNL     1       9.300   5.033  24.862  0.00  0.00    +0.031 C 
BRANCH  26  27
ATOM     27  C   UNL     1       8.970   6.331  25.594  0.00  0.00    +0.105 C 
BRANCH  27  29
ATOM     28  C   UNL     1       7.222   6.414  27.358  0.00  0.00    +0.244 C 
ATOM     29  N   UNL     1       8.502   6.088  26.953  0.00  0.00    -0.313 N 
ATOM     30  H   UNL     1       9.161   5.770  27.656  0.00  0.00    +0.149 HD
ATOM     31  O   UNL     1       6.438   7.030  26.638  0.00  0.00    -0.273 OA
BRANCH  28  32
ATOM     32  C   UNL     1       6.880   6.043  28.823  0.00  0.00    +0.230 C 
BRANCH  32  33
ATOM     33  O   UNL     1       7.227   7.106  29.725  0.00  0.00    -0.380 OA
ATOM     34  H   UNL     1       6.661   7.863  29.480  0.00  0.00    +0.211 HD
ENDBRANCH  32  33
BRANCH  32  35
ATOM     35  C   UNL     1       5.384   5.672  29.004  0.00  0.00    +0.171 C 
BRANCH  35  36
ATOM     36  O   UNL     1       4.934   4.976  27.829  0.00  0.00    -0.387 OA
ATOM     37  H   UNL     1       5.297   5.437  27.045  0.00  0.00    +0.210 HD
ENDBRANCH  35  36
BRANCH  35  38
ATOM     38  C   UNL     1       5.089   4.869  30.323  0.00  0.00    +0.113 C 
BRANCH  38  39
ATOM     39  N   UNL     1       3.633   4.578  30.481  0.00  0.00    -0.301 NA
ATOM     40  C   UNL     1       3.180   3.497  29.604  0.00  0.00    +0.105 C 
ATOM     41  C   UNL     1       2.775   5.757  30.309  0.00  0.00    +0.105 C 
ENDBRANCH  38  39
BRANCH  38  42
ATOM     42  C   UNL     1       6.017   3.621  30.459  0.00  0.00    +0.181 C 
BRANCH  42  44
ATOM     43  C   UNL     1       6.993   1.938  29.106  0.00  0.00    +0.194 C 
ATOM     44  O   UNL     1       5.843   2.744  29.340  0.00  0.00    -0.381 OA
ENDBRANCH  42  44
ENDBRANCH  38  42
ENDBRANCH  35  38
ENDBRANCH  32  35
ENDBRANCH  28  32
ENDBRANCH  27  29
ENDBRANCH  26  27
ENDBRANCH  24  26
ENDBRANCH  19  24
ENDBRANCH  17  22
ENDBRANCH  16  18
ENDBRANCH   1  16
BRANCH  10  45
ATOM     45  O   UNL     1       4.575  -4.835  27.614  0.00  0.00    -0.280 OA
BRANCH  45  46
ATOM     46  P   UNL     1       5.168  -6.251  28.412  0.00  0.00    +0.473 P 
ATOM     47  O   UNL     1       5.699  -7.518  29.126  0.00  0.00    -0.228 OA
BRANCH  46  48
ATOM     48  O   UNL     1       6.022  -5.281  29.409  0.00  0.00    -0.303 OA
ATOM     49  H   UNL     1       6.298  -4.548  28.820  0.00  0.00    +0.222 HD
ENDBRANCH  46  48
BRANCH  46  50
ATOM     50  O   UNL     1       3.765  -6.235  29.246  0.00  0.00    -0.303 OA
ATOM     51  H   UNL     1       3.707  -6.987  29.860  0.00  0.00    +0.222 HD
ENDBRANCH  46  50
ENDBRANCH  45  46
ENDBRANCH  10  45
BRANCH  11  52
ATOM     52  C   UNL     1       1.825  -4.829  26.197  0.00  0.00    +0.152 C 
BRANCH  52  53
ATOM     53  O   UNL     1       1.444  -5.854  27.171  0.00  0.00    -0.377 OA
ATOM     54  C   UNL     1       1.435  -7.204  26.711  0.00  0.00    +0.194 C 
ENDBRANCH  52  53
BRANCH  52  55
ATOM     55  C   UNL     1       1.333  -3.501  26.807  0.00  0.00    +0.066 C 
BRANCH  55  56
ATOM     56  C   UNL     1       1.879  -2.764  28.052  0.00  0.00    +0.122 C 
BRANCH  56  57
ATOM     57  C   UNL     1       1.144  -1.585  28.821  0.00  0.00    +0.044 C 
ATOM     58  C   UNL     1       1.458  -1.792  30.340  0.00  0.00    +0.013 C 
BRANCH  57  59
ATOM     59  C   UNL     1       1.518  -0.131  28.419  0.00  0.00    +0.126 C 
BRANCH  59  60
ATOM     60  C   UNL     1       2.950   0.049  27.743  0.00  0.00    +0.038 C 
ATOM     61  C   UNL     1       4.159  -0.214  28.655  0.00  0.00    +0.014 C 
BRANCH  60  62
ATOM     62  C   UNL     1       3.074   1.411  27.096  0.00  0.00    -0.018 C 
ATOM     63  C   UNL     1       4.019   1.828  26.233  0.00  0.00    -0.051 C 
ATOM     64  C   UNL     1       5.308   1.132  25.894  0.00  0.00    +0.044 C 
BRANCH  63  65
ATOM     65  C   UNL     1       3.667   2.907  25.306  0.00  0.00    -0.048 C 
ATOM     66  C   UNL     1       2.374   2.949  24.908  0.00  0.00    +0.003 C 
ATOM     67  C   UNL     1       4.767   3.754  24.744  0.00  0.00    +0.044 C 
BRANCH  66  68
ATOM     68  C   UNL     1       1.948   3.551  23.688  0.00  0.00    +0.001 C 
ATOM     69  C   UNL     1       1.432   2.874  22.662  0.00  0.00    +0.004 C 
BRANCH  69  70
ATOM     70  C   UNL     1       1.431   3.455  21.336  0.00  0.00    -0.040 C 
ATOM     71  C   UNL     1       1.507   4.781  21.129  0.00  0.00    +0.092 C 
ATOM     72  C   UNL     1       1.333   2.475  20.170  0.00  0.00    +0.044 C 
BRANCH  71  73
ATOM     73  C   UNL     1       1.728   5.202  19.686  0.00  0.00    +0.092 C 
ATOM     74  N   UNL     1       1.911   5.553  18.488  0.00  0.00    -0.191 NA
ENDBRANCH  71  73
ENDBRANCH  69  70
ENDBRANCH  66  68
ENDBRANCH  63  65
ENDBRANCH  60  62
ENDBRANCH  59  60
BRANCH  59  75
ATOM     75  O   UNL     1       0.522   0.355  27.500  0.00  0.00    -0.391 OA
ATOM     76  H   UNL     1       0.905   0.978  26.865  0.00  0.00    +0.210 HD
ENDBRANCH  59  75
ENDBRANCH  57  59
ENDBRANCH  56  57
BRANCH  56  77
ATOM     77  O   UNL     1       1.925  -3.861  29.010  0.00  0.00    -0.391 OA
ATOM     78  H   UNL     1       2.338  -4.639  28.605  0.00  0.00    +0.210 HD
ENDBRANCH  56  77
ENDBRANCH  55  56
ENDBRANCH  52  55
ENDBRANCH  11  52
TORSDOF 34
ENDMDL
MODEL 5
REMARK VINA RESULT:      -2.4      3.035      6.768
REMARK  Name = 
REMARK  47 active torsions:
REMARK  status: ('A' for Active; 'I' for Inactive)
REMARK    1  A    between atoms: C_1  and  O_2
REMARK    2  A    between atoms: O_2  and  C_3
REMARK    3  A    between atoms: C_3  and  C_4
REMARK    4  A    between atoms: C_4  and  N_6
REMARK    5  A    between atoms: C_4  and  C_9
REMARK    6  A    between atoms: N_6  and  C_7
REMARK    7  A    between atoms: N_6  and  C_8
REMARK    8  A    between atoms: C_9  and  O_11
REMARK    9  A    between atoms: C_9  and  C_12
REMARK   10  A    between atoms: C_12  and  O_14
REMARK   11  A    between atoms: C_12  and  C_15
REMARK   12  A    between atoms: N_17  and  C_18
REMARK   13  A    between atoms: C_18  and  C_19
REMARK   14  A    between atoms: C_19  and  C_20
REMARK   15  A    between atoms: C_20  and  C_22
REMARK   16  A    between atoms: C_20  and  C_23
REMARK   17  A    between atoms: C_25  and  C_28
REMARK   18  A    between atoms: C_29  and  C_30
REMARK   19  A    between atoms: C_30  and  C_31
REMARK   20  A    between atoms: C_36  and  C_38
REMARK   21  A    between atoms: C_38  and  O_40
REMARK   22  A    between atoms: C_38  and  C_42
REMARK   23  A    between atoms: O_40  and  C_41
REMARK   24  A    between atoms: C_42  and  C_43
REMARK   25  A    between atoms: C_43  and  O_45
REMARK   26  A    between atoms: C_43  and  C_46
REMARK   27  A    between atoms: C_46  and  C_48
REMARK   28  A    between atoms: C_46  and  C_49
REMARK   29  A    between atoms: C_49  and  O_51
REMARK   30  A    between atoms: C_49  and  C_52
REMARK   31  A    between atoms: C_52  and  C_54
REMARK   32  A    between atoms: C_52  and  C_55
REMARK   33  A    between atoms: C_56  and  C_57
REMARK   34  A    between atoms: C_56  and  C_58
REMARK   35  A    between atoms: C_58  and  C_59
REMARK   36  A    between atoms: C_60  and  C_61
REMARK   37  A    between atoms: C_62  and  C_63
REMARK   38  A    between atoms: C_63  and  C_64
REMARK   39  A    between atoms: C_65  and  C_66
REMARK   40  A    between atoms: C_68  and  O_70
REMARK   41  A    between atoms: O_70  and  P_71
REMARK   42  A    between atoms: P_71  and  O_72
REMARK   43  A    between atoms: P_71  and  O_73
REMARK   44  A    between atoms: C_75  and  C_76
REMARK   45  A    between atoms: C_75  and  C_77
REMARK   46  A    between atoms: C_79  and  O_81
REMARK   47  A    between atoms: C_82  and  C_84
REMARK                            x       y       z     vdW  Elec       q    Type
REMARK                         _______ _______ _______ _____ _____    ______ ____
ROOT
ATOM      1  C   UNL     1       9.480  -1.478  21.966  0.00  0.00    +0.131 C 
ATOM      2  C   UNL     1      10.513  -0.756  22.872  0.00  0.00    +0.044 C 
ATOM      3  C   UNL     1      11.800  -1.589  22.901  0.00  0.00    +0.013 C 
ATOM      4  C   UNL     1      10.056  -0.523  24.310  0.00  0.00    +0.125 C 
ATOM      5  C   UNL     1       9.319  -1.718  24.903  0.00  0.00    +0.097 C 
ATOM      6  C   UNL     1       8.312  -2.425  23.969  0.00  0.00    +0.181 C 
ATOM      7  C   UNL     1       6.887  -1.844  23.911  0.00  0.00    +0.048 C 
ATOM      8  C   UNL     1       6.132  -1.968  22.555  0.00  0.00    +0.019 C 
ATOM      9  C   UNL     1       6.724  -0.374  24.325  0.00  0.00    +0.019 C 
ATOM     10  C   UNL     1       6.146  -2.821  24.792  0.00  0.00    +0.172 C 
ATOM     11  C   UNL     1       7.011  -3.819  25.506  0.00  0.00    +0.180 C 
ATOM     12  O   UNL     1       8.165  -3.802  24.615  0.00  0.00    -0.340 OA
ATOM     13  O   UNL     1       8.827  -2.578  22.636  0.00  0.00    -0.344 OA
ENDROOT
BRANCH   4  14
ATOM     14  O   UNL     1       9.318   0.688  24.384  0.00  0.00    -0.391 OA
ATOM     15  H   UNL     1       9.889   1.362  24.797  0.00  0.00    +0.210 HD
ENDBRANCH   4  14
BRANCH   1  16
ATOM     16  C   UNL     1       8.630  -0.471  21.107  0.00  0.00    +0.059 C 
BRANCH  16  18
ATOM     17  C   UNL     1       8.803   2.032  21.867  0.00  0.00    +0.027 C 
ATOM     18  C   UNL     1       8.138   0.871  21.676  0.00  0.00    -0.022 C 
BRANCH  17  22
ATOM     19  C   UNL     1       8.104   4.853  23.848  0.00  0.00    +0.199 A 
ATOM     20  O   UNL     1       7.005   4.957  23.031  0.00  0.00    -0.447 OA
ATOM     21  C   UNL     1       7.135   3.926  22.149  0.00  0.00    +0.225 A 
ATOM     22  C   UNL     1       8.279   3.232  22.461  0.00  0.00    +0.102 A 
ATOM     23  N   UNL     1       8.905   3.844  23.534  0.00  0.00    -0.214 NA
BRANCH  19  24
ATOM     24  C   UNL     1       8.268   5.920  24.905  0.00  0.00    +0.073 C 
ATOM     25  C   UNL     1       7.241   7.054  24.723  0.00  0.00    +0.017 C 
BRANCH  24  26
ATOM     26  C   UNL     1       8.142   5.393  26.351  0.00  0.00    +0.031 C 
BRANCH  26  27
ATOM     27  C   UNL     1       8.061   6.475  27.424  0.00  0.00    +0.105 C 
BRANCH  27  29
ATOM     28  C   UNL     1       6.595   5.392  29.114  0.00  0.00    +0.244 C 
ATOM     29  N   UNL     1       6.823   6.395  28.190  0.00  0.00    -0.313 N 
ATOM     30  H   UNL     1       6.060   7.025  27.967  0.00  0.00    +0.149 HD
ATOM     31  O   UNL     1       7.366   4.446  29.267  0.00  0.00    -0.273 OA
BRANCH  28  32
ATOM     32  C   UNL     1       5.246   5.488  29.870  0.00  0.00    +0.230 C 
BRANCH  32  33
ATOM     33  O   UNL     1       5.082   6.776  30.485  0.00  0.00    -0.380 OA
ATOM     34  H   UNL     1       4.954   6.605  31.438  0.00  0.00    +0.211 HD
ENDBRANCH  32  33
BRANCH  32  35
ATOM     35  C   UNL     1       4.032   5.191  28.949  0.00  0.00    +0.171 C 
BRANCH  35  36
ATOM     36  O   UNL     1       4.002   6.167  27.893  0.00  0.00    -0.387 OA
ATOM     37  H   UNL     1       4.873   6.157  27.446  0.00  0.00    +0.210 HD
ENDBRANCH  35  36
BRANCH  35  38
ATOM     38  C   UNL     1       4.003   3.718  28.402  0.00  0.00    +0.113 C 
BRANCH  38  39
ATOM     39  N   UNL     1       3.117   2.839  29.223  0.00  0.00    -0.301 NA
ATOM     40  C   UNL     1       1.813   3.448  29.486  0.00  0.00    +0.105 C 
ATOM     41  C   UNL     1       3.730   2.399  30.482  0.00  0.00    +0.105 C 
ENDBRANCH  38  39
BRANCH  38  42
ATOM     42  C   UNL     1       3.713   3.677  26.868  0.00  0.00    +0.181 C 
BRANCH  42  44
ATOM     43  C   UNL     1       4.747   2.955  24.863  0.00  0.00    +0.194 C 
ATOM     44  O   UNL     1       4.936   3.572  26.131  0.00  0.00    -0.381 OA
ENDBRANCH  42  44
ENDBRANCH  38  42
ENDBRANCH  35  38
ENDBRANCH  32  35
ENDBRANCH  28  32
ENDBRANCH  27  29
ENDBRANCH  26  27
ENDBRANCH  24  26
ENDBRANCH  19  24
ENDBRANCH  17  22
ENDBRANCH  16  18
ENDBRANCH   1  16
BRANCH  10  45
ATOM     45  O   UNL     1       5.055  -2.247  25.340  0.00  0.00    -0.280 OA
BRANCH  45  46
ATOM     46  P   UNL     1       4.702  -0.915  26.386  0.00  0.00    +0.473 P 
ATOM     47  O   UNL     1       4.386   0.277  27.321  0.00  0.00    -0.228 OA
BRANCH  46  48
ATOM     48  O   UNL     1       3.114  -1.229  26.181  0.00  0.00    -0.303 OA
ATOM     49  H   UNL     1       2.682  -0.435  26.559  0.00  0.00    +0.222 HD
ENDBRANCH  46  48
BRANCH  46  50
ATOM     50  O   UNL     1       4.971  -1.952  27.617  0.00  0.00    -0.303 OA
ATOM     51  H   UNL     1       5.897  -1.923  27.913  0.00  0.00    +0.222 HD
ENDBRANCH  46  50
ENDBRANCH  45  46
ENDBRANCH  10  45
BRANCH  11  52
ATOM     52  C   UNL     1       6.099  -5.144  25.632  0.00  0.00    +0.152 C 
BRANCH  52  53
ATOM     53  O   UNL     1       6.609  -6.061  26.655  0.00  0.00    -0.377 OA
ATOM     54  C   UNL     1       6.717  -5.548  27.980  0.00  0.00    +0.194 C 
ENDBRANCH  52  53
BRANCH  52  55
ATOM     55  C   UNL     1       4.565  -5.254  25.732  0.00  0.00    +0.066 C 
BRANCH  55  56
ATOM     56  C   UNL     1       3.692  -6.527  25.630  0.00  0.00    +0.122 C 
BRANCH  56  57
ATOM     57  C   UNL     1       2.487  -6.739  24.619  0.00  0.00    +0.044 C 
ATOM     58  C   UNL     1       2.698  -5.707  23.462  0.00  0.00    +0.013 C 
BRANCH  57  59
ATOM     59  C   UNL     1       2.313  -8.158  24.007  0.00  0.00    +0.126 C 
BRANCH  59  60
ATOM     60  C   UNL     1       1.469  -9.186  24.884  0.00  0.00    +0.038 C 
ATOM     61  C   UNL     1       0.445 -10.038  24.115  0.00  0.00    +0.014 C 
BRANCH  60  62
ATOM     62  C   UNL     1       0.796  -8.484  26.042  0.00  0.00    -0.018 C 
ATOM     63  C   UNL     1       0.552  -8.973  27.272  0.00  0.00    -0.051 C 
ATOM     64  C   UNL     1       0.667 -10.405  27.716  0.00  0.00    +0.044 C 
BRANCH  63  65
ATOM     65  C   UNL     1       0.443  -8.017  28.377  0.00  0.00    -0.048 C 
ATOM     66  C   UNL     1       0.459  -6.708  28.033  0.00  0.00    +0.003 C 
ATOM     67  C   UNL     1       0.497  -8.538  29.781  0.00  0.00    +0.044 C 
BRANCH  66  68
ATOM     68  C   UNL     1       0.863  -5.669  28.920  0.00  0.00    +0.001 C 
ATOM     69  C   UNL     1       0.613  -4.375  28.717  0.00  0.00    +0.004 C 
BRANCH  69  70
ATOM     70  C   UNL     1       1.400  -3.368  29.397  0.00  0.00    -0.040 C 
ATOM     71  C   UNL     1       2.738  -3.449  29.504  0.00  0.00    +0.092 C 
ATOM     72  C   UNL     1       0.627  -2.196  29.995  0.00  0.00    +0.044 C 
BRANCH  71  73
ATOM     73  C   UNL     1       3.424  -2.202  30.038  0.00  0.00    +0.092 C 
ATOM     74  N   UNL     1       3.994  -1.169  30.482  0.00  0.00    -0.191 NA
ENDBRANCH  71  73
ENDBRANCH  69  70
ENDBRANCH  66  68
ENDBRANCH  63  65
ENDBRANCH  60  62
ENDBRANCH  59  60
BRANCH  59  75
ATOM     75  O   UNL     1       1.667  -8.024  22.727  0.00  0.00    -0.391 OA
ATOM     76  H   UNL     1       2.195  -8.426  22.023  0.00  0.00    +0.210 HD
ENDBRANCH  59  75
ENDBRANCH  57  59
ENDBRANCH  56  57
BRANCH  56  77
ATOM     77  O   UNL     1       4.695  -7.503  25.223  0.00  0.00    -0.391 OA
ATOM     78  H   UNL     1       4.668  -7.625  24.261  0.00  0.00    +0.210 HD
ENDBRANCH  56  77
ENDBRANCH  55  56
ENDBRANCH  52  55
ENDBRANCH  11  52
TORSDOF 34
ENDMDL
MODEL 6
REMARK VINA RESULT:      -2.2      3.178      9.224
REMARK  Name = 
REMARK  47 active torsions:
REMARK  status: ('A' for Active; 'I' for Inactive)
REMARK    1  A    between atoms: C_1  and  O_2
REMARK    2  A    between atoms: O_2  and  C_3
REMARK    3  A    between atoms: C_3  and  C_4
REMARK    4  A    between atoms: C_4  and  N_6
REMARK    5  A    between atoms: C_4  and  C_9
REMARK    6  A    between atoms: N_6  and  C_7
REMARK    7  A    between atoms: N_6  and  C_8
REMARK    8  A    between atoms: C_9  and  O_11
REMARK    9  A    between atoms: C_9  and  C_12
REMARK   10  A    between atoms: C_12  and  O_14
REMARK   11  A    between atoms: C_12  and  C_15
REMARK   12  A    between atoms: N_17  and  C_18
REMARK   13  A    between atoms: C_18  and  C_19
REMARK   14  A    between atoms: C_19  and  C_20
REMARK   15  A    between atoms: C_20  and  C_22
REMARK   16  A    between atoms: C_20  and  C_23
REMARK   17  A    between atoms: C_25  and  C_28
REMARK   18  A    between atoms: C_29  and  C_30
REMARK   19  A    between atoms: C_30  and  C_31
REMARK   20  A    between atoms: C_36  and  C_38
REMARK   21  A    between atoms: C_38  and  O_40
REMARK   22  A    between atoms: C_38  and  C_42
REMARK   23  A    between atoms: O_40  and  C_41
REMARK   24  A    between atoms: C_42  and  C_43
REMARK   25  A    between atoms: C_43  and  O_45
REMARK   26  A    between atoms: C_43  and  C_46
REMARK   27  A    between atoms: C_46  and  C_48
REMARK   28  A    between atoms: C_46  and  C_49
REMARK   29  A    between atoms: C_49  and  O_51
REMARK   30  A    between atoms: C_49  and  C_52
REMARK   31  A    between atoms: C_52  and  C_54
REMARK   32  A    between atoms: C_52  and  C_55
REMARK   33  A    between atoms: C_56  and  C_57
REMARK   34  A    between atoms: C_56  and  C_58
REMARK   35  A    between atoms: C_58  and  C_59
REMARK   36  A    between atoms: C_60  and  C_61
REMARK   37  A    between atoms: C_62  and  C_63
REMARK   38  A    between atoms: C_63  and  C_64
REMARK   39  A    between atoms: C_65  and  C_66
REMARK   40  A    between atoms: C_68  and  O_70
REMARK   41  A    between atoms: O_70  and  P_71
REMARK   42  A    between atoms: P_71  and  O_72
REMARK   43  A    between atoms: P_71  and  O_73
REMARK   44  A    between atoms: C_75  and  C_76
REMARK   45  A    between atoms: C_75  and  C_77
REMARK   46  A    between atoms: C_79  and  O_81
REMARK   47  A    between atoms: C_82  and  C_84
REMARK                            x       y       z     vdW  Elec       q    Type
REMARK                         _______ _______ _______ _____ _____    ______ ____
ROOT
ATOM      1  C   UNL     1       9.893  -1.315  23.317  0.00  0.00    +0.131 C 
ATOM      2  C   UNL     1       8.904  -1.678  22.176  0.00  0.00    +0.044 C 
ATOM      3  C   UNL     1       9.386  -1.006  20.884  0.00  0.00    +0.013 C 
ATOM      4  C   UNL     1       7.456  -1.264  22.424  0.00  0.00    +0.125 C 
ATOM      5  C   UNL     1       7.329   0.122  23.047  0.00  0.00    +0.097 C 
ATOM      6  C   UNL     1       8.340   0.456  24.167  0.00  0.00    +0.181 C 
ATOM      7  C   UNL     1       7.972   0.013  25.595  0.00  0.00    +0.048 C 
ATOM      8  C   UNL     1       9.150  -0.376  26.536  0.00  0.00    +0.019 C 
ATOM      9  C   UNL     1       6.965  -1.141  25.721  0.00  0.00    +0.019 C 
ATOM     10  C   UNL     1       7.494   1.318  26.184  0.00  0.00    +0.172 C 
ATOM     11  C   UNL     1       7.376   2.452  25.208  0.00  0.00    +0.180 C 
ATOM     12  O   UNL     1       8.315   1.984  24.196  0.00  0.00    -0.340 OA
ATOM     13  O   UNL     1       9.668   0.008  23.847  0.00  0.00    -0.344 OA
ENDROOT
BRANCH   4  14
ATOM     14  O   UNL     1       6.792  -2.278  23.163  0.00  0.00    -0.391 OA
ATOM     15  H   UNL     1       5.837  -2.086  23.144  0.00  0.00    +0.210 HD
ENDBRANCH   4  14
BRANCH   1  16
ATOM     16  C   UNL     1      10.139  -2.519  24.299  0.00  0.00    +0.059 C 
BRANCH  16  18
ATOM     17  C   UNL     1       8.930  -4.457  25.584  0.00  0.00    +0.027 C 
ATOM     18  C   UNL     1       8.983  -3.229  25.024  0.00  0.00    -0.022 C 
BRANCH  17  22
ATOM     19  C   UNL     1       6.437  -5.664  27.753  0.00  0.00    +0.199 A 
ATOM     20  O   UNL     1       5.986  -6.302  26.623  0.00  0.00    -0.447 OA
ATOM     21  C   UNL     1       6.845  -5.907  25.641  0.00  0.00    +0.225 A 
ATOM     22  C   UNL     1       7.782  -5.070  26.197  0.00  0.00    +0.102 A 
ATOM     23  N   UNL     1       7.501  -4.902  27.543  0.00  0.00    -0.214 NA
BRANCH  19  24
ATOM     24  C   UNL     1       5.628  -5.863  29.014  0.00  0.00    +0.073 C 
ATOM     25  C   UNL     1       4.689  -4.669  29.273  0.00  0.00    +0.017 C 
BRANCH  24  26
ATOM     26  C   UNL     1       4.772  -7.149  29.011  0.00  0.00    +0.031 C 
BRANCH  26  27
ATOM     27  C   UNL     1       3.387  -6.999  29.634  0.00  0.00    +0.105 C 
BRANCH  27  29
ATOM     28  C   UNL     1       2.505  -7.455  27.356  0.00  0.00    +0.244 C 
ATOM     29  N   UNL     1       2.330  -7.428  28.726  0.00  0.00    -0.313 N 
ATOM     30  H   UNL     1       1.403  -7.610  29.095  0.00  0.00    +0.149 HD
ATOM     31  O   UNL     1       3.516  -7.015  26.810  0.00  0.00    -0.273 OA
BRANCH  28  32
ATOM     32  C   UNL     1       1.293  -7.982  26.547  0.00  0.00    +0.230 C 
BRANCH  32  33
ATOM     33  O   UNL     1       0.456  -8.827  27.352  0.00  0.00    -0.380 OA
ATOM     34  H   UNL     1      -0.025  -8.232  27.958  0.00  0.00    +0.211 HD
ENDBRANCH  32  33
BRANCH  32  35
ATOM     35  C   UNL     1       0.445  -6.833  25.939  0.00  0.00    +0.171 C 
BRANCH  35  36
ATOM     36  O   UNL     1       0.524  -5.690  26.808  0.00  0.00    -0.387 OA
ATOM     37  H   UNL     1       1.446  -5.358  26.791  0.00  0.00    +0.210 HD
ENDBRANCH  35  36
BRANCH  35  38
ATOM     38  C   UNL     1       0.830  -6.483  24.457  0.00  0.00    +0.113 C 
BRANCH  38  39
ATOM     39  N   UNL     1       1.494  -5.148  24.357  0.00  0.00    -0.301 NA
ATOM     40  C   UNL     1       0.775  -4.231  23.472  0.00  0.00    +0.105 C 
ATOM     41  C   UNL     1       2.907  -5.222  23.964  0.00  0.00    +0.105 C 
ENDBRANCH  38  39
BRANCH  38  42
ATOM     42  C   UNL     1       1.612  -7.647  23.771  0.00  0.00    +0.181 C 
BRANCH  42  44
ATOM     43  C   UNL     1       0.561  -8.117  21.700  0.00  0.00    +0.194 C 
ATOM     44  O   UNL     1       1.643  -7.461  22.351  0.00  0.00    -0.381 OA
ENDBRANCH  42  44
ENDBRANCH  38  42
ENDBRANCH  35  38
ENDBRANCH  32  35
ENDBRANCH  28  32
ENDBRANCH  27  29
ENDBRANCH  26  27
ENDBRANCH  24  26
ENDBRANCH  19  24
ENDBRANCH  17  22
ENDBRANCH  16  18
ENDBRANCH   1  16
BRANCH  10  45
ATOM     45  O   UNL     1       6.626   1.104  27.193  0.00  0.00    -0.280 OA
BRANCH  45  46
ATOM     46  P   UNL     1       4.965   0.654  27.375  0.00  0.00    +0.473 P 
ATOM     47  O   UNL     1       3.479   0.251  27.538  0.00  0.00    -0.228 OA
BRANCH  46  48
ATOM     48  O   UNL     1       4.963   1.409  28.822  0.00  0.00    -0.303 OA
ATOM     49  H   UNL     1       4.116   1.902  28.812  0.00  0.00    +0.222 HD
ENDBRANCH  46  48
BRANCH  46  50
ATOM     50  O   UNL     1       4.625   1.956  26.452  0.00  0.00    -0.303 OA
ATOM     51  H   UNL     1       3.666   2.075  26.342  0.00  0.00    +0.222 HD
ENDBRANCH  46  50
ENDBRANCH  45  46
ENDBRANCH  10  45
BRANCH  11  52
ATOM     52  C   UNL     1       7.702   3.777  26.069  0.00  0.00    +0.152 C 
BRANCH  52  53
ATOM     53  O   UNL     1       8.181   4.873  25.224  0.00  0.00    -0.377 OA
ATOM     54  C   UNL     1       7.225   5.481  24.358  0.00  0.00    +0.194 C 
ENDBRANCH  52  53
BRANCH  52  55
ATOM     55  C   UNL     1       6.843   4.460  27.152  0.00  0.00    +0.066 C 
BRANCH  55  56
ATOM     56  C   UNL     1       7.139   4.584  28.665  0.00  0.00    +0.122 C 
BRANCH  56  57
ATOM     57  C   UNL     1       6.148   5.180  29.752  0.00  0.00    +0.044 C 
ATOM     58  C   UNL     1       6.443   6.714  29.821  0.00  0.00    +0.013 C 
BRANCH  57  59
ATOM     59  C   UNL     1       4.626   4.966  29.520  0.00  0.00    +0.126 C 
BRANCH  59  60
ATOM     60  C   UNL     1       3.781   6.287  29.234  0.00  0.00    +0.038 C 
ATOM     61  C   UNL     1       3.018   6.867  30.436  0.00  0.00    +0.014 C 
BRANCH  60  62
ATOM     62  C   UNL     1       2.839   6.084  28.068  0.00  0.00    -0.018 C 
ATOM     63  C   UNL     1       3.073   6.335  26.767  0.00  0.00    -0.051 C 
ATOM     64  C   UNL     1       4.229   7.100  26.186  0.00  0.00    +0.044 C 
BRANCH  63  65
ATOM     65  C   UNL     1       2.314   5.566  25.777  0.00  0.00    -0.048 C 
ATOM     66  C   UNL     1       3.029   4.689  25.033  0.00  0.00    +0.003 C 
ATOM     67  C   UNL     1       0.877   5.919  25.545  0.00  0.00    +0.044 C 
BRANCH  66  68
ATOM     68  C   UNL     1       2.621   4.242  23.742  0.00  0.00    +0.001 C 
ATOM     69  C   UNL     1       3.189   4.635  22.603  0.00  0.00    +0.004 C 
BRANCH  69  70
ATOM     70  C   UNL     1       2.476   4.499  21.351  0.00  0.00    -0.040 C 
ATOM     71  C   UNL     1       2.261   5.538  20.525  0.00  0.00    +0.092 C 
ATOM     72  C   UNL     1       1.969   3.100  21.011  0.00  0.00    +0.044 C 
BRANCH  71  73
ATOM     73  C   UNL     1       1.706   5.179  19.157  0.00  0.00    +0.092 C 
ATOM     74  N   UNL     1       1.245   4.882  18.021  0.00  0.00    -0.191 NA
ENDBRANCH  71  73
ENDBRANCH  69  70
ENDBRANCH  66  68
ENDBRANCH  63  65
ENDBRANCH  60  62
ENDBRANCH  59  60
BRANCH  59  75
ATOM     75  O   UNL     1       4.458   4.075  28.401  0.00  0.00    -0.391 OA
ATOM     76  H   UNL     1       4.142   3.207  28.688  0.00  0.00    +0.210 HD
ENDBRANCH  59  75
ENDBRANCH  57  59
ENDBRANCH  56  57
BRANCH  56  77
ATOM     77  O   UNL     1       7.282   3.179  29.023  0.00  0.00    -0.391 OA
ATOM     78  H   UNL     1       7.218   3.074  29.985  0.00  0.00    +0.210 HD
ENDBRANCH  56  77
ENDBRANCH  55  56
ENDBRANCH  52  55
ENDBRANCH  11  52
TORSDOF 34
ENDMDL
MODEL 7
REMARK VINA RESULT:      -1.8      2.813      6.724
REMARK  Name = 
REMARK  47 active torsions:
REMARK  status: ('A' for Active; 'I' for Inactive)
REMARK    1  A    between atoms: C_1  and  O_2
REMARK    2  A    between atoms: O_2  and  C_3
REMARK    3  A    between atoms: C_3  and  C_4
REMARK    4  A    between atoms: C_4  and  N_6
REMARK    5  A    between atoms: C_4  and  C_9
REMARK    6  A    between atoms: N_6  and  C_7
REMARK    7  A    between atoms: N_6  and  C_8
REMARK    8  A    between atoms: C_9  and  O_11
REMARK    9  A    between atoms: C_9  and  C_12
REMARK   10  A    between atoms: C_12  and  O_14
REMARK   11  A    between atoms: C_12  and  C_15
REMARK   12  A    between atoms: N_17  and  C_18
REMARK   13  A    between atoms: C_18  and  C_19
REMARK   14  A    between atoms: C_19  and  C_20
REMARK   15  A    between atoms: C_20  and  C_22
REMARK   16  A    between atoms: C_20  and  C_23
REMARK   17  A    between atoms: C_25  and  C_28
REMARK   18  A    between atoms: C_29  and  C_30
REMARK   19  A    between atoms: C_30  and  C_31
REMARK   20  A    between atoms: C_36  and  C_38
REMARK   21  A    between atoms: C_38  and  O_40
REMARK   22  A    between atoms: C_38  and  C_42
REMARK   23  A    between atoms: O_40  and  C_41
REMARK   24  A    between atoms: C_42  and  C_43
REMARK   25  A    between atoms: C_43  and  O_45
REMARK   26  A    between atoms: C_43  and  C_46
REMARK   27  A    between atoms: C_46  and  C_48
REMARK   28  A    between atoms: C_46  and  C_49
REMARK   29  A    between atoms: C_49  and  O_51
REMARK   30  A    between atoms: C_49  and  C_52
REMARK   31  A    between atoms: C_52  and  C_54
REMARK   32  A    between atoms: C_52  and  C_55
REMARK   33  A    between atoms: C_56  and  C_57
REMARK   34  A    between atoms: C_56  and  C_58
REMARK   35  A    between atoms: C_58  and  C_59
REMARK   36  A    between atoms: C_60  and  C_61
REMARK   37  A    between atoms: C_62  and  C_63
REMARK   38  A    between atoms: C_63  and  C_64
REMARK   39  A    between atoms: C_65  and  C_66
REMARK   40  A    between atoms: C_68  and  O_70
REMARK   41  A    between atoms: O_70  and  P_71
REMARK   42  A    between atoms: P_71  and  O_72
REMARK   43  A    between atoms: P_71  and  O_73
REMARK   44  A    between atoms: C_75  and  C_76
REMARK   45  A    between atoms: C_75  and  C_77
REMARK   46  A    between atoms: C_79  and  O_81
REMARK   47  A    between atoms: C_82  and  C_84
REMARK                            x       y       z     vdW  Elec       q    Type
REMARK                         _______ _______ _______ _____ _____    ______ ____
ROOT
ATOM      1  C   UNL     1       8.631   0.400  26.413  0.00  0.00    +0.131 C 
ATOM      2  C   UNL     1       7.434   1.319  26.780  0.00  0.00    +0.044 C 
ATOM      3  C   UNL     1       7.380   1.460  28.306  0.00  0.00    +0.013 C 
ATOM      4  C   UNL     1       6.074   0.829  26.291  0.00  0.00    +0.125 C 
ATOM      5  C   UNL     1       5.882  -0.672  26.464  0.00  0.00    +0.097 C 
ATOM      6  C   UNL     1       7.098  -1.556  26.108  0.00  0.00    +0.181 C 
ATOM      7  C   UNL     1       7.258  -1.962  24.631  0.00  0.00    +0.048 C 
ATOM      8  C   UNL     1       8.713  -2.141  24.105  0.00  0.00    +0.019 C 
ATOM      9  C   UNL     1       6.566  -1.067  23.592  0.00  0.00    +0.019 C 
ATOM     10  C   UNL     1       6.743  -3.380  24.668  0.00  0.00    +0.172 C 
ATOM     11  C   UNL     1       6.133  -3.803  25.974  0.00  0.00    +0.180 C 
ATOM     12  O   UNL     1       6.800  -2.855  26.857  0.00  0.00    -0.340 OA
ATOM     13  O   UNL     1       8.331  -1.000  26.594  0.00  0.00    -0.344 OA
ENDROOT
BRANCH   4  14
ATOM     14  O   UNL     1       5.858   1.276  24.961  0.00  0.00    -0.391 OA
ATOM     15  H   UNL     1       4.901   1.235  24.782  0.00  0.00    +0.210 HD
ENDBRANCH   4  14
BRANCH   1  16
ATOM     16  C   UNL     1       9.376   0.879  25.113  0.00  0.00    +0.059 C 
BRANCH  16  18
ATOM     17  C   UNL     1       8.784   3.430  25.028  0.00  0.00    +0.027 C 
ATOM     18  C   UNL     1       9.084   2.241  24.462  0.00  0.00    -0.022 C 
BRANCH  17  22
ATOM     19  C   UNL     1       7.270   6.128  23.353  0.00  0.00    +0.199 A 
ATOM     20  O   UNL     1       8.567   6.550  23.194  0.00  0.00    -0.447 OA
ATOM     21  C   UNL     1       9.316   5.608  23.835  0.00  0.00    +0.225 A 
ATOM     22  C   UNL     1       8.468   4.652  24.339  0.00  0.00    +0.102 A 
ATOM     23  N   UNL     1       7.160   5.003  24.046  0.00  0.00    -0.214 NA
BRANCH  19  24
ATOM     24  C   UNL     1       6.190   7.024  22.793  0.00  0.00    +0.073 C 
ATOM     25  C   UNL     1       6.269   7.106  21.256  0.00  0.00    +0.017 C 
BRANCH  24  26
ATOM     26  C   UNL     1       4.758   6.589  23.173  0.00  0.00    +0.031 C 
BRANCH  26  27
ATOM     27  C   UNL     1       4.649   5.810  24.480  0.00  0.00    +0.105 C 
BRANCH  27  29
ATOM     28  C   UNL     1       2.657   6.210  25.912  0.00  0.00    +0.244 C 
ATOM     29  N   UNL     1       3.931   6.559  25.505  0.00  0.00    -0.313 N 
ATOM     30  H   UNL     1       4.327   7.424  25.856  0.00  0.00    +0.149 HD
ATOM     31  O   UNL     1       2.007   5.322  25.361  0.00  0.00    -0.273 OA
BRANCH  28  32
ATOM     32  C   UNL     1       2.064   7.087  27.043  0.00  0.00    +0.230 C 
BRANCH  32  33
ATOM     33  O   UNL     1       0.631   6.992  27.080  0.00  0.00    -0.380 OA
ATOM     34  H   UNL     1       0.427   6.178  27.580  0.00  0.00    +0.211 HD
ENDBRANCH  32  33
BRANCH  32  35
ATOM     35  C   UNL     1       2.647   6.728  28.436  0.00  0.00    +0.171 C 
BRANCH  35  36
ATOM     36  O   UNL     1       1.567   6.637  29.380  0.00  0.00    -0.387 OA
ATOM     37  H   UNL     1       0.755   6.391  28.891  0.00  0.00    +0.210 HD
ENDBRANCH  35  36
BRANCH  35  38
ATOM     38  C   UNL     1       3.544   5.438  28.429  0.00  0.00    +0.113 C 
BRANCH  38  39
ATOM     39  N   UNL     1       4.877   5.686  29.056  0.00  0.00    -0.301 NA
ATOM     40  C   UNL     1       5.222   7.108  29.093  0.00  0.00    +0.105 C 
ATOM     41  C   UNL     1       5.968   4.919  28.442  0.00  0.00    +0.105 C 
ENDBRANCH  38  39
BRANCH  38  42
ATOM     42  C   UNL     1       2.782   4.200  28.998  0.00  0.00    +0.181 C 
BRANCH  42  44
ATOM     43  C   UNL     1       2.090   2.375  27.654  0.00  0.00    +0.194 C 
ATOM     44  O   UNL     1       1.827   3.718  28.044  0.00  0.00    -0.381 OA
ENDBRANCH  42  44
ENDBRANCH  38  42
ENDBRANCH  35  38
ENDBRANCH  32  35
ENDBRANCH  28  32
ENDBRANCH  27  29
ENDBRANCH  26  27
ENDBRANCH  24  26
ENDBRANCH  19  24
ENDBRANCH  17  22
ENDBRANCH  16  18
ENDBRANCH   1  16
BRANCH  10  45
ATOM     45  O   UNL     1       6.267  -3.753  23.463  0.00  0.00    -0.280 OA
BRANCH  45  46
ATOM     46  P   UNL     1       6.705  -4.853  22.201  0.00  0.00    +0.473 P 
ATOM     47  O   UNL     1       7.096  -5.836  21.072  0.00  0.00    -0.228 OA
BRANCH  46  48
ATOM     48  O   UNL     1       5.366  -4.389  21.390  0.00  0.00    -0.303 OA
ATOM     49  H   UNL     1       4.654  -4.895  21.833  0.00  0.00    +0.222 HD
ENDBRANCH  46  48
BRANCH  46  50
ATOM     50  O   UNL     1       7.699  -3.673  21.668  0.00  0.00    -0.303 OA
ATOM     51  H   UNL     1       7.975  -3.085  22.393  0.00  0.00    +0.222 HD
ENDBRANCH  46  50
ENDBRANCH  45  46
ENDBRANCH  10  45
BRANCH  11  52
ATOM     52  C   UNL     1       6.447  -5.382  26.087  0.00  0.00    +0.152 C 
BRANCH  52  53
ATOM     53  O   UNL     1       6.926  -5.748  27.422  0.00  0.00    -0.377 OA
ATOM     54  C   UNL     1       6.087  -5.402  28.522  0.00  0.00    +0.194 C 
ENDBRANCH  52  53
BRANCH  52  55
ATOM     55  C   UNL     1       5.578  -6.573  25.638  0.00  0.00    +0.066 C 
BRANCH  55  56
ATOM     56  C   UNL     1       4.034  -6.669  25.609  0.00  0.00    +0.122 C 
BRANCH  56  57
ATOM     57  C   UNL     1       3.108  -6.263  24.384  0.00  0.00    +0.044 C 
ATOM     58  C   UNL     1       3.878  -6.694  23.092  0.00  0.00    +0.013 C 
BRANCH  57  59
ATOM     59  C   UNL     1       1.675  -6.865  24.346  0.00  0.00    +0.126 C 
BRANCH  59  60
ATOM     60  C   UNL     1       1.305  -7.836  25.554  0.00  0.00    +0.038 C 
ATOM     61  C   UNL     1       0.445  -9.058  25.191  0.00  0.00    +0.014 C 
BRANCH  60  62
ATOM     62  C   UNL     1       0.663  -7.069  26.688  0.00  0.00    -0.018 C 
ATOM     63  C   UNL     1       0.634  -7.398  27.993  0.00  0.00    -0.051 C 
ATOM     64  C   UNL     1       1.015  -8.719  28.602  0.00  0.00    +0.044 C 
BRANCH  63  65
ATOM     65  C   UNL     1       0.501  -6.313  28.968  0.00  0.00    -0.048 C 
ATOM     66  C   UNL     1       0.444  -5.060  28.457  0.00  0.00    +0.003 C 
ATOM     67  C   UNL     1       0.611  -6.643  30.425  0.00  0.00    +0.044 C 
BRANCH  66  68
ATOM     68  C   UNL     1       0.815  -3.896  29.192  0.00  0.00    +0.001 C 
ATOM     69  C   UNL     1       0.771  -2.658  28.699  0.00  0.00    +0.004 C 
BRANCH  69  70
ATOM     70  C   UNL     1       1.549  -1.604  29.316  0.00  0.00    -0.040 C 
ATOM     71  C   UNL     1       2.881  -1.688  29.474  0.00  0.00    +0.092 C 
ATOM     72  C   UNL     1       0.771  -0.378  29.786  0.00  0.00    +0.044 C 
BRANCH  71  73
ATOM     73  C   UNL     1       3.565  -0.407  29.922  0.00  0.00    +0.092 C 
ATOM     74  N   UNL     1       4.133   0.655  30.295  0.00  0.00    -0.191 NA
ENDBRANCH  71  73
ENDBRANCH  69  70
ENDBRANCH  66  68
ENDBRANCH  63  65
ENDBRANCH  60  62
ENDBRANCH  59  60
BRANCH  59  75
ATOM     75  O   UNL     1       0.728  -5.781  24.336  0.00  0.00    -0.391 OA
ATOM     76  H   UNL     1      -0.181  -6.108  24.382  0.00  0.00    +0.210 HD
ENDBRANCH  59  75
ENDBRANCH  57  59
ENDBRANCH  56  57
BRANCH  56  77
ATOM     77  O   UNL     1       3.856  -8.108  25.748  0.00  0.00    -0.391 OA
ATOM     78  H   UNL     1       4.114  -8.556  24.927  0.00  0.00    +0.210 HD
ENDBRANCH  56  77
ENDBRANCH  55  56
ENDBRANCH  52  55
ENDBRANCH  11  52
TORSDOF 34
ENDMDL
