MODEL 1
REMARK VINA RESULT:      -6.3      0.000      0.000
REMARK  Name = 
REMARK  18 active torsions:
REMARK  status: ('A' for Active; 'I' for Inactive)
REMARK    1  A    between atoms: C_2  and  O_3
REMARK    2  A    between atoms: C_2  and  C_4
REMARK    3  A    between atoms: C_2  and  C_31
REMARK    4  A    between atoms: C_4  and  C_5
REMARK    5  A    between atoms: C_5  and  C_6
REMARK    6  A    between atoms: C_8  and  C_10
REMARK    7  A    between atoms: C_15  and  C_17
REMARK    8  A    between atoms: C_19  and  O_21
REMARK    9  A    between atoms: O_21  and  C_22
REMARK   10  A    between atoms: C_22  and  C_24
REMARK   11  A    between atoms: C_24  and  C_26
REMARK   12  A    between atoms: C_24  and  C_27
REMARK   13  A    between atoms: C_27  and  C_28
REMARK   14  A    between atoms: C_31  and  C_32
REMARK   15  A    between atoms: C_32  and  O_34
REMARK   16  A    between atoms: C_32  and  C_35
REMARK   17  A    between atoms: C_35  and  C_36
REMARK   18  A    between atoms: C_36  and  O_37
REMARK                            x       y       z     vdW  Elec       q    Type
REMARK                         _______ _______ _______ _____ _____    ______ ____
ROOT
ATOM      1  C   UNL     1       8.982  -1.148  24.142  0.00  0.00    +0.007 C 
ATOM      2  C   UNL     1       7.563  -0.513  23.901  0.00  0.00    +0.063 C 
ATOM      3  C   UNL     1       7.505   0.796  24.725  0.00  0.00    -0.044 C 
ATOM      4  C   UNL     1       6.424   1.177  25.425  0.00  0.00    -0.020 C 
ATOM      5  C   UNL     1       5.200   0.323  25.555  0.00  0.00    +0.012 C 
ATOM      6  C   UNL     1       5.559  -1.155  25.382  0.00  0.00    +0.052 C 
ATOM      7  C   UNL     1       4.531   0.552  26.905  0.00  0.00    +0.012 C 
ATOM      8  C   UNL     1       8.692   1.631  24.805  0.00  0.00    -0.000 C 
ATOM      9  C   UNL     1       9.876   1.226  24.336  0.00  0.00    -0.023 C 
ATOM     10  C   UNL     1       6.241  -1.371  24.031  0.00  0.00    +0.185 C 
ATOM     11  C   UNL     1      10.049  -0.100  23.651  0.00  0.00    +0.012 C 
ATOM     12  C   UNL     1      10.035   0.226  22.149  0.00  0.00    +0.012 C 
ENDROOT
BRANCH   1  13
ATOM     13  C   UNL     1       9.184  -2.576  23.588  0.00  0.00    +0.007 C 
BRANCH  13  14
ATOM     14  C   UNL     1       9.852  -3.622  24.494  0.00  0.00    +0.032 C 
BRANCH  14  15
ATOM     15  C   UNL     1       8.977  -4.701  25.131  0.00  0.00    +0.117 C 
BRANCH  15  16
ATOM     16  O   UNL     1       9.799  -5.805  25.503  0.00  0.00    -0.392 OA
ATOM     17  H   UNL     1      10.587  -5.771  24.929  0.00  0.00    +0.210 HD
ENDBRANCH  15  16
BRANCH  15  18
ATOM     18  C   UNL     1       8.145  -4.272  26.335  0.00  0.00    +0.063 C 
BRANCH  18  19
ATOM     19  C   UNL     1       7.094  -5.234  26.879  0.00  0.00    +0.128 C 
BRANCH  19  20
ATOM     20  O   UNL     1       7.679  -6.173  27.790  0.00  0.00    -0.391 OA
ATOM     21  H   UNL     1       7.642  -5.745  28.670  0.00  0.00    +0.210 HD
ENDBRANCH  19  20
BRANCH  19  22
ATOM     22  C   UNL     1       6.058  -4.426  27.664  0.00  0.00    +0.151 C 
BRANCH  22  23
ATOM     23  C   UNL     1       5.344  -5.259  28.691  0.00  0.00    +0.307 C 
ATOM     24  O   UNL     1       4.231  -5.736  28.509  0.00  0.00    -0.251 OA
BRANCH  23  25
ATOM     25  O   UNL     1       5.994  -5.360  29.872  0.00  0.00    -0.481 OA
ATOM     26  H   UNL     1       6.919  -5.681  29.729  0.00  0.00    +0.295 HD
ENDBRANCH  23  25
ENDBRANCH  22  23
ENDBRANCH  19  22
ENDBRANCH  18  19
ENDBRANCH  15  18
ENDBRANCH  14  15
ENDBRANCH  13  14
ENDBRANCH   1  13
BRANCH  10  27
ATOM     27  O   UNL     1       6.425  -2.787  23.810  0.00  0.00    -0.461 OA
BRANCH  27  28
ATOM     28  C   UNL     1       5.695  -3.406  22.843  0.00  0.00    +0.310 C 
ATOM     29  O   UNL     1       5.395  -2.904  21.765  0.00  0.00    -0.251 OA
BRANCH  28  30
ATOM     30  C   UNL     1       5.301  -4.817  23.278  0.00  0.00    +0.094 C 
ATOM     31  C   UNL     1       3.787  -4.899  23.480  0.00  0.00    +0.019 C 
BRANCH  30  32
ATOM     32  C   UNL     1       5.739  -5.858  22.237  0.00  0.00    +0.011 C 
ATOM     33  C   UNL     1       7.248  -5.933  22.065  0.00  0.00    +0.004 C 
ENDBRANCH  30  32
ENDBRANCH  28  30
ENDBRANCH  27  28
ENDBRANCH  10  27
TORSDOF 14
ENDMDL
MODEL 2
REMARK VINA RESULT:      -6.1      2.612      6.099
REMARK  Name = 
REMARK  18 active torsions:
REMARK  status: ('A' for Active; 'I' for Inactive)
REMARK    1  A    between atoms: C_2  and  O_3
REMARK    2  A    between atoms: C_2  and  C_4
REMARK    3  A    between atoms: C_2  and  C_31
REMARK    4  A    between atoms: C_4  and  C_5
REMARK    5  A    between atoms: C_5  and  C_6
REMARK    6  A    between atoms: C_8  and  C_10
REMARK    7  A    between atoms: C_15  and  C_17
REMARK    8  A    between atoms: C_19  and  O_21
REMARK    9  A    between atoms: O_21  and  C_22
REMARK   10  A    between atoms: C_22  and  C_24
REMARK   11  A    between atoms: C_24  and  C_26
REMARK   12  A    between atoms: C_24  and  C_27
REMARK   13  A    between atoms: C_27  and  C_28
REMARK   14  A    between atoms: C_31  and  C_32
REMARK   15  A    between atoms: C_32  and  O_34
REMARK   16  A    between atoms: C_32  and  C_35
REMARK   17  A    between atoms: C_35  and  C_36
REMARK   18  A    between atoms: C_36  and  O_37
REMARK                            x       y       z     vdW  Elec       q    Type
REMARK                         _______ _______ _______ _____ _____    ______ ____
ROOT
ATOM      1  C   UNL     1       6.734  -2.058  26.768  0.00  0.00    +0.007 C 
ATOM      2  C   UNL     1       5.820  -3.193  26.176  0.00  0.00    +0.063 C 
ATOM      3  C   UNL     1       4.523  -3.220  27.022  0.00  0.00    -0.044 C 
ATOM      4  C   UNL     1       3.923  -4.356  27.413  0.00  0.00    -0.020 C 
ATOM      5  C   UNL     1       4.505  -5.712  27.150  0.00  0.00    +0.012 C 
ATOM      6  C   UNL     1       6.025  -5.622  27.003  0.00  0.00    +0.052 C 
ATOM      7  C   UNL     1       4.136  -6.677  28.270  0.00  0.00    +0.012 C 
ATOM      8  C   UNL     1       3.953  -1.963  27.477  0.00  0.00    -0.000 C 
ATOM      9  C   UNL     1       4.597  -0.800  27.334  0.00  0.00    -0.023 C 
ATOM     10  C   UNL     1       6.384  -4.641  25.885  0.00  0.00    +0.185 C 
ATOM     11  C   UNL     1       5.933  -0.708  26.653  0.00  0.00    +0.012 C 
ATOM     12  C   UNL     1       5.617  -0.230  25.226  0.00  0.00    +0.012 C 
ENDROOT
BRANCH   1  13
ATOM     13  C   UNL     1       8.175  -1.998  26.214  0.00  0.00    +0.007 C 
BRANCH  13  14
ATOM     14  C   UNL     1       8.948  -0.674  26.333  0.00  0.00    +0.032 C 
BRANCH  14  15
ATOM     15  C   UNL     1       9.360   0.048  25.051  0.00  0.00    +0.117 C 
BRANCH  15  16
ATOM     16  O   UNL     1      10.716   0.471  25.171  0.00  0.00    -0.392 OA
ATOM     17  H   UNL     1      10.710   1.445  25.116  0.00  0.00    +0.210 HD
ENDBRANCH  15  16
BRANCH  15  18
ATOM     18  C   UNL     1       9.196  -0.736  23.752  0.00  0.00    +0.063 C 
BRANCH  18  19
ATOM     19  C   UNL     1      10.131  -0.424  22.587  0.00  0.00    +0.128 C 
BRANCH  19  20
ATOM     20  O   UNL     1      10.700  -1.625  22.050  0.00  0.00    -0.391 OA
ATOM     21  H   UNL     1      10.869  -2.204  22.820  0.00  0.00    +0.210 HD
ENDBRANCH  19  20
BRANCH  19  22
ATOM     22  C   UNL     1       9.311   0.228  21.471  0.00  0.00    +0.151 C 
BRANCH  22  23
ATOM     23  C   UNL     1       9.166   1.712  21.662  0.00  0.00    +0.307 C 
ATOM     24  O   UNL     1       8.082   2.281  21.681  0.00  0.00    -0.251 OA
BRANCH  23  25
ATOM     25  O   UNL     1      10.340   2.380  21.719  0.00  0.00    -0.481 OA
ATOM     26  H   UNL     1      10.206   3.276  22.117  0.00  0.00    +0.295 HD
ENDBRANCH  23  25
ENDBRANCH  22  23
ENDBRANCH  19  22
ENDBRANCH  18  19
ENDBRANCH  15  18
ENDBRANCH  14  15
ENDBRANCH  13  14
ENDBRANCH   1  13
BRANCH  10  27
ATOM     27  O   UNL     1       7.808  -4.689  25.646  0.00  0.00    -0.461 OA
BRANCH  27  28
ATOM     28  C   UNL     1       8.262  -5.125  24.440  0.00  0.00    +0.310 C 
ATOM     29  O   UNL     1       9.348  -5.662  24.254  0.00  0.00    -0.251 OA
BRANCH  28  30
ATOM     30  C   UNL     1       7.232  -4.858  23.342  0.00  0.00    +0.094 C 
ATOM     31  C   UNL     1       7.537  -3.528  22.651  0.00  0.00    +0.019 C 
BRANCH  30  32
ATOM     32  C   UNL     1       7.227  -5.989  22.303  0.00  0.00    +0.011 C 
ATOM     33  C   UNL     1       6.260  -5.741  21.155  0.00  0.00    +0.004 C 
ENDBRANCH  30  32
ENDBRANCH  28  30
ENDBRANCH  27  28
ENDBRANCH  10  27
TORSDOF 14
ENDMDL
MODEL 3
REMARK VINA RESULT:      -5.9      2.619      6.677
REMARK  Name = 
REMARK  18 active torsions:
REMARK  status: ('A' for Active; 'I' for Inactive)
REMARK    1  A    between atoms: C_2  and  O_3
REMARK    2  A    between atoms: C_2  and  C_4
REMARK    3  A    between atoms: C_2  and  C_31
REMARK    4  A    between atoms: C_4  and  C_5
REMARK    5  A    between atoms: C_5  and  C_6
REMARK    6  A    between atoms: C_8  and  C_10
REMARK    7  A    between atoms: C_15  and  C_17
REMARK    8  A    between atoms: C_19  and  O_21
REMARK    9  A    between atoms: O_21  and  C_22
REMARK   10  A    between atoms: C_22  and  C_24
REMARK   11  A    between atoms: C_24  and  C_26
REMARK   12  A    between atoms: C_24  and  C_27
REMARK   13  A    between atoms: C_27  and  C_28
REMARK   14  A    between atoms: C_31  and  C_32
REMARK   15  A    between atoms: C_32  and  O_34
REMARK   16  A    between atoms: C_32  and  C_35
REMARK   17  A    between atoms: C_35  and  C_36
REMARK   18  A    between atoms: C_36  and  O_37
REMARK                            x       y       z     vdW  Elec       q    Type
REMARK                         _______ _______ _______ _____ _____    ______ ____
ROOT
ATOM      1  C   UNL     1       6.764  -2.995  24.714  0.00  0.00    +0.007 C 
ATOM      2  C   UNL     1       6.735  -4.568  24.680  0.00  0.00    +0.063 C 
ATOM      3  C   UNL     1       6.076  -4.981  23.341  0.00  0.00    -0.044 C 
ATOM      4  C   UNL     1       5.190  -5.984  23.236  0.00  0.00    -0.020 C 
ATOM      5  C   UNL     1       4.676  -6.740  24.424  0.00  0.00    +0.012 C 
ATOM      6  C   UNL     1       4.758  -5.875  25.684  0.00  0.00    +0.052 C 
ATOM      7  C   UNL     1       3.243  -7.198  24.186  0.00  0.00    +0.012 C 
ATOM      8  C   UNL     1       6.375  -4.214  22.144  0.00  0.00    -0.000 C 
ATOM      9  C   UNL     1       7.061  -3.067  22.189  0.00  0.00    -0.023 C 
ATOM     10  C   UNL     1       6.199  -5.411  25.906  0.00  0.00    +0.185 C 
ATOM     11  C   UNL     1       7.610  -2.519  23.475  0.00  0.00    +0.012 C 
ATOM     12  C   UNL     1       9.093  -2.922  23.475  0.00  0.00    +0.012 C 
ENDROOT
BRANCH   1  13
ATOM     13  C   UNL     1       7.182  -2.359  26.059  0.00  0.00    +0.007 C 
BRANCH  13  14
ATOM     14  C   UNL     1       7.098  -0.831  26.200  0.00  0.00    +0.032 C 
BRANCH  14  15
ATOM     15  C   UNL     1       8.383  -0.052  26.476  0.00  0.00    +0.117 C 
BRANCH  15  16
ATOM     16  O   UNL     1       9.017  -0.596  27.632  0.00  0.00    -0.392 OA
ATOM     17  H   UNL     1       9.838  -0.085  27.765  0.00  0.00    +0.210 HD
ENDBRANCH  15  16
BRANCH  15  18
ATOM     18  C   UNL     1       9.395   0.008  25.336  0.00  0.00    +0.063 C 
BRANCH  18  19
ATOM     19  C   UNL     1       9.487   1.285  24.506  0.00  0.00    +0.128 C 
BRANCH  19  20
ATOM     20  O   UNL     1      10.839   1.542  24.107  0.00  0.00    -0.391 OA
ATOM     21  H   UNL     1      11.400   1.072  24.756  0.00  0.00    +0.210 HD
ENDBRANCH  19  20
BRANCH  19  22
ATOM     22  C   UNL     1       8.666   1.092  23.229  0.00  0.00    +0.151 C 
BRANCH  22  23
ATOM     23  C   UNL     1       9.532   0.977  22.006  0.00  0.00    +0.307 C 
ATOM     24  O   UNL     1       9.955  -0.091  21.583  0.00  0.00    -0.251 OA
BRANCH  23  25
ATOM     25  O   UNL     1       9.883   2.164  21.462  0.00  0.00    -0.481 OA
ATOM     26  H   UNL     1      10.776   2.099  21.043  0.00  0.00    +0.295 HD
ENDBRANCH  23  25
ENDBRANCH  22  23
ENDBRANCH  19  22
ENDBRANCH  18  19
ENDBRANCH  15  18
ENDBRANCH  14  15
ENDBRANCH  13  14
ENDBRANCH   1  13
BRANCH  10  27
ATOM     27  O   UNL     1       6.292  -4.737  27.180  0.00  0.00    -0.461 OA
BRANCH  27  28
ATOM     28  C   UNL     1       6.233  -5.472  28.323  0.00  0.00    +0.310 C 
ATOM     29  O   UNL     1       6.980  -6.406  28.593  0.00  0.00    -0.251 OA
BRANCH  28  30
ATOM     30  C   UNL     1       5.108  -4.975  29.232  0.00  0.00    +0.094 C 
ATOM     31  C   UNL     1       4.508  -3.688  28.665  0.00  0.00    +0.019 C 
BRANCH  30  32
ATOM     32  C   UNL     1       4.007  -6.036  29.378  0.00  0.00    +0.011 C 
ATOM     33  C   UNL     1       2.680  -5.607  28.772  0.00  0.00    +0.004 C 
ENDBRANCH  30  32
ENDBRANCH  28  30
ENDBRANCH  27  28
ENDBRANCH  10  27
TORSDOF 14
ENDMDL
MODEL 4
REMARK VINA RESULT:      -5.9      2.011      4.770
REMARK  Name = 
REMARK  18 active torsions:
REMARK  status: ('A' for Active; 'I' for Inactive)
REMARK    1  A    between atoms: C_2  and  O_3
REMARK    2  A    between atoms: C_2  and  C_4
REMARK    3  A    between atoms: C_2  and  C_31
REMARK    4  A    between atoms: C_4  and  C_5
REMARK    5  A    between atoms: C_5  and  C_6
REMARK    6  A    between atoms: C_8  and  C_10
REMARK    7  A    between atoms: C_15  and  C_17
REMARK    8  A    between atoms: C_19  and  O_21
REMARK    9  A    between atoms: O_21  and  C_22
REMARK   10  A    between atoms: C_22  and  C_24
REMARK   11  A    between atoms: C_24  and  C_26
REMARK   12  A    between atoms: C_24  and  C_27
REMARK   13  A    between atoms: C_27  and  C_28
REMARK   14  A    between atoms: C_31  and  C_32
REMARK   15  A    between atoms: C_32  and  O_34
REMARK   16  A    between atoms: C_32  and  C_35
REMARK   17  A    between atoms: C_35  and  C_36
REMARK   18  A    between atoms: C_36  and  O_37
REMARK                            x       y       z     vdW  Elec       q    Type
REMARK                         _______ _______ _______ _____ _____    ______ ____
ROOT
ATOM      1  C   UNL     1       7.326  -4.334  24.697  0.00  0.00    +0.007 C 
ATOM      2  C   UNL     1       7.221  -2.987  25.503  0.00  0.00    +0.063 C 
ATOM      3  C   UNL     1       6.477  -3.304  26.824  0.00  0.00    -0.044 C 
ATOM      4  C   UNL     1       5.540  -2.500  27.352  0.00  0.00    -0.020 C 
ATOM      5  C   UNL     1       5.052  -1.262  26.662  0.00  0.00    +0.012 C 
ATOM      6  C   UNL     1       5.238  -1.384  25.148  0.00  0.00    +0.052 C 
ATOM      7  C   UNL     1       3.589  -1.005  26.999  0.00  0.00    +0.012 C 
ATOM      8  C   UNL     1       6.750  -4.560  27.501  0.00  0.00    -0.000 C 
ATOM      9  C   UNL     1       7.491  -5.522  26.941  0.00  0.00    -0.023 C 
ATOM     10  C   UNL     1       6.708  -1.654  24.823  0.00  0.00    +0.185 C 
ATOM     11  C   UNL     1       8.129  -5.349  25.592  0.00  0.00    +0.012 C 
ATOM     12  C   UNL     1       9.590  -4.977  25.891  0.00  0.00    +0.012 C 
ENDROOT
BRANCH   1  13
ATOM     13  C   UNL     1       7.840  -4.211  23.246  0.00  0.00    +0.007 C 
BRANCH  13  14
ATOM     14  C   UNL     1       7.278  -5.174  22.188  0.00  0.00    +0.032 C 
BRANCH  14  15
ATOM     15  C   UNL     1       5.793  -5.089  21.839  0.00  0.00    +0.117 C 
BRANCH  15  16
ATOM     16  O   UNL     1       5.421  -6.255  21.107  0.00  0.00    -0.392 OA
ATOM     17  H   UNL     1       5.868  -6.194  20.242  0.00  0.00    +0.210 HD
ENDBRANCH  15  16
BRANCH  15  18
ATOM     18  C   UNL     1       4.834  -4.910  23.011  0.00  0.00    +0.063 C 
BRANCH  18  19
ATOM     19  C   UNL     1       4.054  -6.122  23.511  0.00  0.00    +0.128 C 
BRANCH  19  20
ATOM     20  O   UNL     1       4.894  -7.282  23.576  0.00  0.00    -0.391 OA
ATOM     21  H   UNL     1       5.798  -6.944  23.738  0.00  0.00    +0.210 HD
ENDBRANCH  19  20
BRANCH  19  22
ATOM     22  C   UNL     1       3.570  -5.833  24.934  0.00  0.00    +0.151 C 
BRANCH  22  23
ATOM     23  C   UNL     1       3.719  -7.022  25.840  0.00  0.00    +0.307 C 
ATOM     24  O   UNL     1       4.572  -7.093  26.716  0.00  0.00    -0.251 OA
BRANCH  23  25
ATOM     25  O   UNL     1       2.891  -8.050  25.547  0.00  0.00    -0.481 OA
ATOM     26  H   UNL     1       3.251  -8.896  25.912  0.00  0.00    +0.295 HD
ENDBRANCH  23  25
ENDBRANCH  22  23
ENDBRANCH  19  22
ENDBRANCH  18  19
ENDBRANCH  15  18
ENDBRANCH  14  15
ENDBRANCH  13  14
ENDBRANCH   1  13
BRANCH  10  27
ATOM     27  O   UNL     1       6.898  -1.605  23.392  0.00  0.00    -0.461 OA
BRANCH  27  28
ATOM     28  C   UNL     1       7.468  -0.501  22.839  0.00  0.00    +0.310 C 
ATOM     29  O   UNL     1       6.954   0.612  22.810  0.00  0.00    -0.251 OA
BRANCH  28  30
ATOM     30  C   UNL     1       8.843  -0.831  22.258  0.00  0.00    +0.094 C 
ATOM     31  C   UNL     1       9.385   0.370  21.482  0.00  0.00    +0.019 C 
BRANCH  30  32
ATOM     32  C   UNL     1       9.833  -1.215  23.368  0.00  0.00    +0.011 C 
ATOM     33  C   UNL     1      10.090  -0.089  24.357  0.00  0.00    +0.004 C 
ENDBRANCH  30  32
ENDBRANCH  28  30
ENDBRANCH  27  28
ENDBRANCH  10  27
TORSDOF 14
ENDMDL
MODEL 5
REMARK VINA RESULT:      -5.9      2.289      5.214
REMARK  Name = 
REMARK  18 active torsions:
REMARK  status: ('A' for Active; 'I' for Inactive)
REMARK    1  A    between atoms: C_2  and  O_3
REMARK    2  A    between atoms: C_2  and  C_4
REMARK    3  A    between atoms: C_2  and  C_31
REMARK    4  A    between atoms: C_4  and  C_5
REMARK    5  A    between atoms: C_5  and  C_6
REMARK    6  A    between atoms: C_8  and  C_10
REMARK    7  A    between atoms: C_15  and  C_17
REMARK    8  A    between atoms: C_19  and  O_21
REMARK    9  A    between atoms: O_21  and  C_22
REMARK   10  A    between atoms: C_22  and  C_24
REMARK   11  A    between atoms: C_24  and  C_26
REMARK   12  A    between atoms: C_24  and  C_27
REMARK   13  A    between atoms: C_27  and  C_28
REMARK   14  A    between atoms: C_31  and  C_32
REMARK   15  A    between atoms: C_32  and  O_34
REMARK   16  A    between atoms: C_32  and  C_35
REMARK   17  A    between atoms: C_35  and  C_36
REMARK   18  A    between atoms: C_36  and  O_37
REMARK                            x       y       z     vdW  Elec       q    Type
REMARK                         _______ _______ _______ _____ _____    ______ ____
ROOT
ATOM      1  C   UNL     1       7.174  -3.247  24.969  0.00  0.00    +0.007 C 
ATOM      2  C   UNL     1       7.597  -2.057  25.908  0.00  0.00    +0.063 C 
ATOM      3  C   UNL     1       6.377  -1.730  26.804  0.00  0.00    -0.044 C 
ATOM      4  C   UNL     1       5.996  -0.477  27.098  0.00  0.00    -0.020 C 
ATOM      5  C   UNL     1       6.659   0.732  26.509  0.00  0.00    +0.012 C 
ATOM      6  C   UNL     1       7.297   0.387  25.161  0.00  0.00    +0.052 C 
ATOM      7  C   UNL     1       5.653   1.865  26.346  0.00  0.00    +0.012 C 
ATOM      8  C   UNL     1       5.558  -2.821  27.304  0.00  0.00    -0.000 C 
ATOM      9  C   UNL     1       5.719  -4.079  26.882  0.00  0.00    -0.023 C 
ATOM     10  C   UNL     1       8.295  -0.759  25.334  0.00  0.00    +0.185 C 
ATOM     11  C   UNL     1       6.789  -4.458  25.898  0.00  0.00    +0.012 C 
ATOM     12  C   UNL     1       7.925  -5.041  26.754  0.00  0.00    +0.012 C 
ENDROOT
BRANCH   1  13
ATOM     13  C   UNL     1       8.167  -3.597  23.838  0.00  0.00    +0.007 C 
BRANCH  13  14
ATOM     14  C   UNL     1       7.601  -3.936  22.450  0.00  0.00    +0.032 C 
BRANCH  14  15
ATOM     15  C   UNL     1       6.098  -4.173  22.312  0.00  0.00    +0.117 C 
BRANCH  15  16
ATOM     16  O   UNL     1       5.682  -3.767  21.010  0.00  0.00    -0.392 OA
ATOM     17  H   UNL     1       5.394  -2.838  21.087  0.00  0.00    +0.210 HD
ENDBRANCH  15  16
BRANCH  15  18
ATOM     18  C   UNL     1       5.613  -5.596  22.569  0.00  0.00    +0.063 C 
BRANCH  18  19
ATOM     19  C   UNL     1       4.323  -5.798  23.359  0.00  0.00    +0.128 C 
BRANCH  19  20
ATOM     20  O   UNL     1       3.254  -6.211  22.500  0.00  0.00    -0.391 OA
ATOM     21  H   UNL     1       3.309  -7.187  22.460  0.00  0.00    +0.210 HD
ENDBRANCH  19  20
BRANCH  19  22
ATOM     22  C   UNL     1       4.550  -6.921  24.374  0.00  0.00    +0.151 C 
BRANCH  22  23
ATOM     23  C   UNL     1       3.259  -7.501  24.880  0.00  0.00    +0.307 C 
ATOM     24  O   UNL     1       2.750  -7.173  25.944  0.00  0.00    -0.251 OA
BRANCH  23  25
ATOM     25  O   UNL     1       2.752  -8.485  24.104  0.00  0.00    -0.481 OA
ATOM     26  H   UNL     1       1.875  -8.781  24.454  0.00  0.00    +0.295 HD
ENDBRANCH  23  25
ENDBRANCH  22  23
ENDBRANCH  19  22
ENDBRANCH  18  19
ENDBRANCH  15  18
ENDBRANCH  14  15
ENDBRANCH  13  14
ENDBRANCH   1  13
BRANCH  10  27
ATOM     27  O   UNL     1       9.007  -0.964  24.094  0.00  0.00    -0.461 OA
BRANCH  27  28
ATOM     28  C   UNL     1      10.080  -0.177  23.811  0.00  0.00    +0.310 C 
ATOM     29  O   UNL     1      10.876   0.245  24.642  0.00  0.00    -0.251 OA
BRANCH  28  30
ATOM     30  C   UNL     1      10.164   0.109  22.311  0.00  0.00    +0.094 C 
ATOM     31  C   UNL     1       9.176  -0.779  21.553  0.00  0.00    +0.019 C 
BRANCH  30  32
ATOM     32  C   UNL     1       9.862   1.585  22.013  0.00  0.00    +0.011 C 
ATOM     33  C   UNL     1       8.397   1.844  21.697  0.00  0.00    +0.004 C 
ENDBRANCH  30  32
ENDBRANCH  28  30
ENDBRANCH  27  28
ENDBRANCH  10  27
TORSDOF 14
ENDMDL
MODEL 6
REMARK VINA RESULT:      -5.8      2.831      6.457
REMARK  Name = 
REMARK  18 active torsions:
REMARK  status: ('A' for Active; 'I' for Inactive)
REMARK    1  A    between atoms: C_2  and  O_3
REMARK    2  A    between atoms: C_2  and  C_4
REMARK    3  A    between atoms: C_2  and  C_31
REMARK    4  A    between atoms: C_4  and  C_5
REMARK    5  A    between atoms: C_5  and  C_6
REMARK    6  A    between atoms: C_8  and  C_10
REMARK    7  A    between atoms: C_15  and  C_17
REMARK    8  A    between atoms: C_19  and  O_21
REMARK    9  A    between atoms: O_21  and  C_22
REMARK   10  A    between atoms: C_22  and  C_24
REMARK   11  A    between atoms: C_24  and  C_26
REMARK   12  A    between atoms: C_24  and  C_27
REMARK   13  A    between atoms: C_27  and  C_28
REMARK   14  A    between atoms: C_31  and  C_32
REMARK   15  A    between atoms: C_32  and  O_34
REMARK   16  A    between atoms: C_32  and  C_35
REMARK   17  A    between atoms: C_35  and  C_36
REMARK   18  A    between atoms: C_36  and  O_37
REMARK                            x       y       z     vdW  Elec       q    Type
REMARK                         _______ _______ _______ _____ _____    ______ ____
ROOT
ATOM      1  C   UNL     1       6.910  -1.209  24.593  0.00  0.00    +0.007 C 
ATOM      2  C   UNL     1       6.822  -2.777  24.681  0.00  0.00    +0.063 C 
ATOM      3  C   UNL     1       7.995  -3.346  23.845  0.00  0.00    -0.044 C 
ATOM      4  C   UNL     1       7.872  -4.409  23.035  0.00  0.00    -0.020 C 
ATOM      5  C   UNL     1       6.561  -5.092  22.784  0.00  0.00    +0.012 C 
ATOM      6  C   UNL     1       5.401  -4.118  23.005  0.00  0.00    +0.052 C 
ATOM      7  C   UNL     1       6.517  -5.660  21.372  0.00  0.00    +0.012 C 
ATOM      8  C   UNL     1       9.279  -2.667  23.882  0.00  0.00    -0.000 C 
ATOM      9  C   UNL     1       9.437  -1.479  24.474  0.00  0.00    -0.023 C 
ATOM     10  C   UNL     1       5.464  -3.544  24.422  0.00  0.00    +0.185 C 
ATOM     11  C   UNL     1       8.307  -0.788  25.183  0.00  0.00    +0.012 C 
ATOM     12  C   UNL     1       8.530  -1.093  26.673  0.00  0.00    +0.012 C 
ENDROOT
BRANCH   1  13
ATOM     13  C   UNL     1       5.708  -0.433  25.175  0.00  0.00    +0.007 C 
BRANCH  13  14
ATOM     14  C   UNL     1       5.770   1.102  25.194  0.00  0.00    +0.032 C 
BRANCH  14  15
ATOM     15  C   UNL     1       5.705   1.852  23.865  0.00  0.00    +0.117 C 
BRANCH  15  16
ATOM     16  O   UNL     1       4.371   2.309  23.653  0.00  0.00    -0.392 OA
ATOM     17  H   UNL     1       4.260   3.108  24.201  0.00  0.00    +0.210 HD
ENDBRANCH  15  16
BRANCH  15  18
ATOM     18  C   UNL     1       6.664   3.028  23.706  0.00  0.00    +0.063 C 
BRANCH  18  19
ATOM     19  C   UNL     1       8.051   2.767  23.125  0.00  0.00    +0.128 C 
BRANCH  19  20
ATOM     20  O   UNL     1       9.002   2.505  24.164  0.00  0.00    -0.391 OA
ATOM     21  H   UNL     1       8.474   2.239  24.944  0.00  0.00    +0.210 HD
ENDBRANCH  19  20
BRANCH  19  22
ATOM     22  C   UNL     1       7.980   1.514  22.248  0.00  0.00    +0.151 C 
BRANCH  22  23
ATOM     23  C   UNL     1       9.311   1.165  21.644  0.00  0.00    +0.307 C 
ATOM     24  O   UNL     1       9.625   0.024  21.330  0.00  0.00    -0.251 OA
BRANCH  23  25
ATOM     25  O   UNL     1      10.172   2.204  21.562  0.00  0.00    -0.481 OA
ATOM     26  H   UNL     1      10.351   2.429  20.616  0.00  0.00    +0.295 HD
ENDBRANCH  23  25
ENDBRANCH  22  23
ENDBRANCH  19  22
ENDBRANCH  18  19
ENDBRANCH  15  18
ENDBRANCH  14  15
ENDBRANCH  13  14
ENDBRANCH   1  13
BRANCH  10  27
ATOM     27  O   UNL     1       4.278  -2.758  24.671  0.00  0.00    -0.461 OA
BRANCH  27  28
ATOM     28  C   UNL     1       3.293  -3.276  25.453  0.00  0.00    +0.310 C 
ATOM     29  O   UNL     1       2.134  -2.877  25.475  0.00  0.00    -0.251 OA
BRANCH  28  30
ATOM     30  C   UNL     1       3.824  -4.430  26.304  0.00  0.00    +0.094 C 
ATOM     31  C   UNL     1       3.634  -4.117  27.788  0.00  0.00    +0.019 C 
BRANCH  30  32
ATOM     32  C   UNL     1       3.109  -5.745  25.958  0.00  0.00    +0.011 C 
ATOM     33  C   UNL     1       4.059  -6.836  25.487  0.00  0.00    +0.004 C 
ENDBRANCH  30  32
ENDBRANCH  28  30
ENDBRANCH  27  28
ENDBRANCH  10  27
TORSDOF 14
ENDMDL
MODEL 7
REMARK VINA RESULT:      -5.7      2.880      7.051
REMARK  Name = 
REMARK  18 active torsions:
REMARK  status: ('A' for Active; 'I' for Inactive)
REMARK    1  A    between atoms: C_2  and  O_3
REMARK    2  A    between atoms: C_2  and  C_4
REMARK    3  A    between atoms: C_2  and  C_31
REMARK    4  A    between atoms: C_4  and  C_5
REMARK    5  A    between atoms: C_5  and  C_6
REMARK    6  A    between atoms: C_8  and  C_10
REMARK    7  A    between atoms: C_15  and  C_17
REMARK    8  A    between atoms: C_19  and  O_21
REMARK    9  A    between atoms: O_21  and  C_22
REMARK   10  A    between atoms: C_22  and  C_24
REMARK   11  A    between atoms: C_24  and  C_26
REMARK   12  A    between atoms: C_24  and  C_27
REMARK   13  A    between atoms: C_27  and  C_28
REMARK   14  A    between atoms: C_31  and  C_32
REMARK   15  A    between atoms: C_32  and  O_34
REMARK   16  A    between atoms: C_32  and  C_35
REMARK   17  A    between atoms: C_35  and  C_36
REMARK   18  A    between atoms: C_36  and  O_37
REMARK                            x       y       z     vdW  Elec       q    Type
REMARK                         _______ _______ _______ _____ _____    ______ ____
ROOT
ATOM      1  C   UNL     1       6.015  -3.646  23.305  0.00  0.00    +0.007 C 
ATOM      2  C   UNL     1       6.693  -4.212  24.607  0.00  0.00    +0.063 C 
ATOM      3  C   UNL     1       5.755  -5.309  25.168  0.00  0.00    -0.044 C 
ATOM      4  C   UNL     1       5.491  -5.453  26.476  0.00  0.00    -0.020 C 
ATOM      5  C   UNL     1       6.004  -4.503  27.516  0.00  0.00    +0.012 C 
ATOM      6  C   UNL     1       6.263  -3.126  26.900  0.00  0.00    +0.052 C 
ATOM      7  C   UNL     1       5.016  -4.391  28.670  0.00  0.00    +0.012 C 
ATOM      8  C   UNL     1       5.069  -6.191  24.238  0.00  0.00    -0.000 C 
ATOM      9  C   UNL     1       5.088  -5.983  22.918  0.00  0.00    -0.023 C 
ATOM     10  C   UNL     1       7.246  -3.252  25.735  0.00  0.00    +0.185 C 
ATOM     11  C   UNL     1       5.857  -4.849  22.302  0.00  0.00    +0.012 C 
ATOM     12  C   UNL     1       7.163  -5.485  21.799  0.00  0.00    +0.012 C 
ENDROOT
BRANCH   1  13
ATOM     13  C   UNL     1       6.672  -2.387  22.697  0.00  0.00    +0.007 C 
BRANCH  13  14
ATOM     14  C   UNL     1       8.073  -2.521  22.080  0.00  0.00    +0.032 C 
BRANCH  14  15
ATOM     15  C   UNL     1       9.133  -1.482  22.443  0.00  0.00    +0.117 C 
BRANCH  15  16
ATOM     16  O   UNL     1      10.288  -1.696  21.635  0.00  0.00    -0.392 OA
ATOM     17  H   UNL     1      10.800  -0.865  21.657  0.00  0.00    +0.210 HD
ENDBRANCH  15  16
BRANCH  15  18
ATOM     18  C   UNL     1       8.712  -0.020  22.332  0.00  0.00    +0.063 C 
BRANCH  18  19
ATOM     19  C   UNL     1       9.775   1.025  22.012  0.00  0.00    +0.128 C 
BRANCH  19  20
ATOM     20  O   UNL     1       9.202   2.150  21.333  0.00  0.00    -0.391 OA
ATOM     21  H   UNL     1       8.737   2.665  22.023  0.00  0.00    +0.210 HD
ENDBRANCH  19  20
BRANCH  19  22
ATOM     22  C   UNL     1      10.359   1.540  23.330  0.00  0.00    +0.151 C 
BRANCH  22  23
ATOM     23  C   UNL     1      10.204   3.028  23.480  0.00  0.00    +0.307 C 
ATOM     24  O   UNL     1       9.212   3.551  23.971  0.00  0.00    -0.251 OA
BRANCH  23  25
ATOM     25  O   UNL     1      11.215   3.747  22.942  0.00  0.00    -0.481 OA
ATOM     26  H   UNL     1      12.034   3.650  23.487  0.00  0.00    +0.295 HD
ENDBRANCH  23  25
ENDBRANCH  22  23
ENDBRANCH  19  22
ENDBRANCH  18  19
ENDBRANCH  15  18
ENDBRANCH  14  15
ENDBRANCH  13  14
ENDBRANCH   1  13
BRANCH  10  27
ATOM     27  O   UNL     1       7.607  -1.933  25.270  0.00  0.00    -0.461 OA
BRANCH  27  28
ATOM     28  C   UNL     1       8.034  -1.008  26.172  0.00  0.00    +0.310 C 
ATOM     29  O   UNL     1       8.886  -1.210  27.031  0.00  0.00    -0.251 OA
BRANCH  28  30
ATOM     30  C   UNL     1       7.311   0.324  25.971  0.00  0.00    +0.094 C 
ATOM     31  C   UNL     1       6.005   0.100  25.208  0.00  0.00    +0.019 C 
BRANCH  30  32
ATOM     32  C   UNL     1       7.013   0.999  27.317  0.00  0.00    +0.011 C 
ATOM     33  C   UNL     1       5.673   1.720  27.340  0.00  0.00    +0.004 C 
ENDBRANCH  30  32
ENDBRANCH  28  30
ENDBRANCH  27  28
ENDBRANCH  10  27
TORSDOF 14
ENDMDL
MODEL 8
REMARK VINA RESULT:      -5.6      3.011      6.138
REMARK  Name = 
REMARK  18 active torsions:
REMARK  status: ('A' for Active; 'I' for Inactive)
REMARK    1  A    between atoms: C_2  and  O_3
REMARK    2  A    between atoms: C_2  and  C_4
REMARK    3  A    between atoms: C_2  and  C_31
REMARK    4  A    between atoms: C_4  and  C_5
REMARK    5  A    between atoms: C_5  and  C_6
REMARK    6  A    between atoms: C_8  and  C_10
REMARK    7  A    between atoms: C_15  and  C_17
REMARK    8  A    between atoms: C_19  and  O_21
REMARK    9  A    between atoms: O_21  and  C_22
REMARK   10  A    between atoms: C_22  and  C_24
REMARK   11  A    between atoms: C_24  and  C_26
REMARK   12  A    between atoms: C_24  and  C_27
REMARK   13  A    between atoms: C_27  and  C_28
REMARK   14  A    between atoms: C_31  and  C_32
REMARK   15  A    between atoms: C_32  and  O_34
REMARK   16  A    between atoms: C_32  and  C_35
REMARK   17  A    between atoms: C_35  and  C_36
REMARK   18  A    between atoms: C_36  and  O_37
REMARK                            x       y       z     vdW  Elec       q    Type
REMARK                         _______ _______ _______ _____ _____    ______ ____
ROOT
ATOM      1  C   UNL     1       7.589  -1.096  25.898  0.00  0.00    +0.007 C 
ATOM      2  C   UNL     1       6.432  -2.160  25.834  0.00  0.00    +0.063 C 
ATOM      3  C   UNL     1       5.354  -1.722  26.856  0.00  0.00    -0.044 C 
ATOM      4  C   UNL     1       4.713  -2.582  27.662  0.00  0.00    -0.020 C 
ATOM      5  C   UNL     1       5.047  -4.043  27.720  0.00  0.00    +0.012 C 
ATOM      6  C   UNL     1       6.499  -4.276  27.298  0.00  0.00    +0.052 C 
ATOM      7  C   UNL     1       4.807  -4.589  29.122  0.00  0.00    +0.012 C 
ATOM      8  C   UNL     1       5.060  -0.307  27.005  0.00  0.00    -0.000 C 
ATOM      9  C   UNL     1       5.800   0.638  26.416  0.00  0.00    -0.023 C 
ATOM     10  C   UNL     1       6.732  -3.711  25.896  0.00  0.00    +0.185 C 
ATOM     11  C   UNL     1       6.960   0.298  25.523  0.00  0.00    +0.012 C 
ATOM     12  C   UNL     1       6.409   0.428  24.094  0.00  0.00    +0.012 C 
ENDROOT
BRANCH   1  13
ATOM     13  C   UNL     1       8.873  -1.450  25.116  0.00  0.00    +0.007 C 
BRANCH  13  14
ATOM     14  C   UNL     1       9.951  -0.367  24.954  0.00  0.00    +0.032 C 
BRANCH  14  15
ATOM     15  C   UNL     1      10.512  -0.097  23.559  0.00  0.00    +0.117 C 
BRANCH  15  16
ATOM     16  O   UNL     1      10.152  -1.175  22.698  0.00  0.00    -0.392 OA
ATOM     17  H   UNL     1       9.277  -0.955  22.328  0.00  0.00    +0.210 HD
ENDBRANCH  15  16
BRANCH  15  18
ATOM     18  C   UNL     1      10.099   1.219  22.908  0.00  0.00    +0.063 C 
BRANCH  18  19
ATOM     19  C   UNL     1      10.416   2.524  23.632  0.00  0.00    +0.128 C 
BRANCH  19  20
ATOM     20  O   UNL     1      10.978   3.487  22.732  0.00  0.00    -0.391 OA
ATOM     21  H   UNL     1      11.583   4.033  23.273  0.00  0.00    +0.210 HD
ENDBRANCH  19  20
BRANCH  19  22
ATOM     22  C   UNL     1       9.107   3.112  24.165  0.00  0.00    +0.151 C 
BRANCH  22  23
ATOM     23  C   UNL     1       8.777   4.436  23.534  0.00  0.00    +0.307 C 
ATOM     24  O   UNL     1       9.066   5.510  24.045  0.00  0.00    -0.251 OA
BRANCH  23  25
ATOM     25  O   UNL     1       8.051   4.343  22.398  0.00  0.00    -0.481 OA
ATOM     26  H   UNL     1       8.416   4.949  21.706  0.00  0.00    +0.295 HD
ENDBRANCH  23  25
ENDBRANCH  22  23
ENDBRANCH  19  22
ENDBRANCH  18  19
ENDBRANCH  15  18
ENDBRANCH  14  15
ENDBRANCH  13  14
ENDBRANCH   1  13
BRANCH  10  27
ATOM     27  O   UNL     1       8.054  -4.081  25.445  0.00  0.00    -0.461 OA
BRANCH  27  28
ATOM     28  C   UNL     1       8.182  -4.844  24.326  0.00  0.00    +0.310 C 
ATOM     29  O   UNL     1       9.098  -5.631  24.118  0.00  0.00    -0.251 OA
BRANCH  28  30
ATOM     30  C   UNL     1       7.024  -4.591  23.360  0.00  0.00    +0.094 C 
ATOM     31  C   UNL     1       7.420  -3.527  22.336  0.00  0.00    +0.019 C 
BRANCH  30  32
ATOM     32  C   UNL     1       6.621  -5.882  22.632  0.00  0.00    +0.011 C 
ATOM     33  C   UNL     1       6.436  -5.690  21.134  0.00  0.00    +0.004 C 
ENDBRANCH  30  32
ENDBRANCH  28  30
ENDBRANCH  27  28
ENDBRANCH  10  27
TORSDOF 14
ENDMDL
MODEL 9
REMARK VINA RESULT:      -5.6      2.206      4.782
REMARK  Name = 
REMARK  18 active torsions:
REMARK  status: ('A' for Active; 'I' for Inactive)
REMARK    1  A    between atoms: C_2  and  O_3
REMARK    2  A    between atoms: C_2  and  C_4
REMARK    3  A    between atoms: C_2  and  C_31
REMARK    4  A    between atoms: C_4  and  C_5
REMARK    5  A    between atoms: C_5  and  C_6
REMARK    6  A    between atoms: C_8  and  C_10
REMARK    7  A    between atoms: C_15  and  C_17
REMARK    8  A    between atoms: C_19  and  O_21
REMARK    9  A    between atoms: O_21  and  C_22
REMARK   10  A    between atoms: C_22  and  C_24
REMARK   11  A    between atoms: C_24  and  C_26
REMARK   12  A    between atoms: C_24  and  C_27
REMARK   13  A    between atoms: C_27  and  C_28
REMARK   14  A    between atoms: C_31  and  C_32
REMARK   15  A    between atoms: C_32  and  O_34
REMARK   16  A    between atoms: C_32  and  C_35
REMARK   17  A    between atoms: C_35  and  C_36
REMARK   18  A    between atoms: C_36  and  O_37
REMARK                            x       y       z     vdW  Elec       q    Type
REMARK                         _______ _______ _______ _____ _____    ______ ____
ROOT
ATOM      1  C   UNL     1       5.951  -0.191  24.615  0.00  0.00    +0.007 C 
ATOM      2  C   UNL     1       6.683   1.188  24.811  0.00  0.00    +0.063 C 
ATOM      3  C   UNL     1       5.602   2.225  25.202  0.00  0.00    -0.044 C 
ATOM      4  C   UNL     1       5.571   3.475  24.715  0.00  0.00    -0.020 C 
ATOM      5  C   UNL     1       6.527   3.961  23.667  0.00  0.00    +0.012 C 
ATOM      6  C   UNL     1       7.040   2.789  22.827  0.00  0.00    +0.052 C 
ATOM      7  C   UNL     1       5.859   5.000  22.776  0.00  0.00    +0.012 C 
ATOM      8  C   UNL     1       4.525   1.818  26.090  0.00  0.00    -0.000 C 
ATOM      9  C   UNL     1       4.342   0.542  26.443  0.00  0.00    -0.023 C 
ATOM     10  C   UNL     1       7.697   1.746  23.733  0.00  0.00    +0.185 C 
ATOM     11  C   UNL     1       5.264  -0.551  25.985  0.00  0.00    +0.012 C 
ATOM     12  C   UNL     1       6.211  -0.794  27.171  0.00  0.00    +0.012 C 
ENDROOT
BRANCH   1  13
ATOM     13  C   UNL     1       6.805  -1.326  24.007  0.00  0.00    +0.007 C 
BRANCH  13  14
ATOM     14  C   UNL     1       6.257  -2.077  22.784  0.00  0.00    +0.032 C 
BRANCH  14  15
ATOM     15  C   UNL     1       5.233  -3.188  23.008  0.00  0.00    +0.117 C 
BRANCH  15  16
ATOM     16  O   UNL     1       5.384  -4.172  21.988  0.00  0.00    -0.392 OA
ATOM     17  H   UNL     1       5.753  -4.966  22.419  0.00  0.00    +0.210 HD
ENDBRANCH  15  16
BRANCH  15  18
ATOM     18  C   UNL     1       5.268  -3.874  24.370  0.00  0.00    +0.063 C 
BRANCH  18  19
ATOM     19  C   UNL     1       6.098  -5.144  24.528  0.00  0.00    +0.128 C 
BRANCH  19  20
ATOM     20  O   UNL     1       7.367  -5.014  23.875  0.00  0.00    -0.391 OA
ATOM     21  H   UNL     1       7.298  -4.208  23.324  0.00  0.00    +0.210 HD
ENDBRANCH  19  20
BRANCH  19  22
ATOM     22  C   UNL     1       6.375  -5.357  26.018  0.00  0.00    +0.151 C 
BRANCH  22  23
ATOM     23  C   UNL     1       7.762  -4.926  26.408  0.00  0.00    +0.307 C 
ATOM     24  O   UNL     1       8.059  -3.761  26.639  0.00  0.00    -0.251 OA
BRANCH  23  25
ATOM     25  O   UNL     1       8.677  -5.921  26.391  0.00  0.00    -0.481 OA
ATOM     26  H   UNL     1       8.230  -6.800  26.469  0.00  0.00    +0.295 HD
ENDBRANCH  23  25
ENDBRANCH  22  23
ENDBRANCH  19  22
ENDBRANCH  18  19
ENDBRANCH  15  18
ENDBRANCH  14  15
ENDBRANCH  13  14
ENDBRANCH   1  13
BRANCH  10  27
ATOM     27  O   UNL     1       8.319   0.729  22.917  0.00  0.00    -0.461 OA
BRANCH  27  28
ATOM     28  C   UNL     1       9.625   0.871  22.565  0.00  0.00    +0.310 C 
ATOM     29  O   UNL     1      10.052   1.721  21.791  0.00  0.00    -0.251 OA
BRANCH  28  30
ATOM     30  C   UNL     1      10.495  -0.171  23.268  0.00  0.00    +0.094 C 
ATOM     31  C   UNL     1      10.239  -0.135  24.775  0.00  0.00    +0.019 C 
BRANCH  30  32
ATOM     32  C   UNL     1      10.211  -1.581  22.730  0.00  0.00    +0.011 C 
ATOM     33  C   UNL     1       9.996  -2.608  23.831  0.00  0.00    +0.004 C 
ENDBRANCH  30  32
ENDBRANCH  28  30
ENDBRANCH  27  28
ENDBRANCH  10  27
TORSDOF 14
ENDMDL
