MODEL 1
REMARK VINA RESULT:      -6.4      0.000      0.000
REMARK  Name = 
REMARK  15 active torsions:
REMARK  status: ('A' for Active; 'I' for Inactive)
REMARK    1  A    between atoms: C_1  and  N_2
REMARK    2  A    between atoms: N_2  and  C_3
REMARK    3  A    between atoms: C_5  and  O_7
REMARK    4  A    between atoms: C_8  and  O_10
REMARK    5  A    between atoms: O_10  and  C_11
REMARK    6  A    between atoms: C_13  and  N_15
REMARK    7  A    between atoms: C_17  and  N_19
REMARK    8  A    between atoms: C_20  and  O_22
REMARK    9  A    between atoms: O_22  and  C_23
REMARK   10  A    between atoms: C_26  and  C_28
REMARK   11  A    between atoms: C_28  and  N_29
REMARK   12  A    between atoms: C_32  and  N_34
REMARK   13  A    between atoms: C_35  and  O_37
REMARK   14  A    between atoms: C_40  and  C_41
REMARK   15  A    between atoms: C_40  and  O_42
REMARK                            x       y       z     vdW  Elec       q    Type
REMARK                         _______ _______ _______ _____ _____    ______ ____
ROOT
ATOM      1  C   UNL     1       8.880  -3.124  24.007  0.00  0.00    +0.169 C 
ATOM      2  C   UNL     1       7.456  -3.716  23.843  0.00  0.00    +0.175 C 
ATOM      3  C   UNL     1       6.622  -3.604  25.149  0.00  0.00    +0.169 C 
ATOM      4  C   UNL     1       7.319  -4.387  26.293  0.00  0.00    +0.084 C 
ATOM      5  C   UNL     1       8.760  -3.885  26.486  0.00  0.00    +0.042 C 
ATOM      6  C   UNL     1       9.624  -3.796  25.210  0.00  0.00    +0.084 C 
ENDROOT
BRANCH   4   7
ATOM      7  N   UNL     1       7.230  -5.842  26.072  0.00  0.00    -0.325 NA
ATOM      8  H   UNL     1       8.102  -6.173  25.654  0.00  0.00    +0.119 HD
ATOM      9  H   UNL     1       7.118  -6.329  26.958  0.00  0.00    +0.119 HD
ENDBRANCH   4   7
BRANCH   6  10
ATOM     10  N   UNL     1      10.158  -5.123  24.844  0.00  0.00    -0.325 NA
ATOM     11  H   UNL     1      11.028  -5.315  25.335  0.00  0.00    +0.119 HD
ATOM     12  H   UNL     1       9.485  -5.845  25.113  0.00  0.00    +0.119 HD
ENDBRANCH   6  10
BRANCH   2  13
ATOM     13  O   UNL     1       7.548  -5.089  23.406  0.00  0.00    -0.387 OA
ATOM     14  H   UNL     1       7.323  -5.638  24.180  0.00  0.00    +0.210 HD
ENDBRANCH   2  13
BRANCH   1  15
ATOM     15  O   UNL     1       8.920  -1.686  24.150  0.00  0.00    -0.341 OA
BRANCH  15  21
ATOM     16  C   UNL     1       9.141   1.306  23.709  0.00  0.00    +0.121 C 
ATOM     17  C   UNL     1       9.037   1.231  22.144  0.00  0.00    +0.104 C 
ATOM     18  C   UNL     1       7.840   1.997  21.578  0.00  0.00    +0.045 C 
ATOM     19  C   UNL     1       8.965  -0.238  21.678  0.00  0.00    +0.199 C 
ATOM     20  O   UNL     1      10.054  -1.010  22.185  0.00  0.00    -0.346 OA
ATOM     21  C   UNL     1      10.090  -1.033  23.624  0.00  0.00    +0.281 C 
ATOM     22  C   UNL     1      10.344   0.414  24.130  0.00  0.00    +0.190 C 
BRANCH  16  24
ATOM     23  C   UNL     1       8.276   3.165  25.119  0.00  0.00    +0.101 C 
ATOM     24  N   UNL     1       9.224   2.724  24.123  0.00  0.00    -0.311 NA
ATOM     25  H   UNL     1      10.187   2.980  24.341  0.00  0.00    +0.122 HD
ENDBRANCH  16  24
BRANCH  17  26
ATOM     26  O   UNL     1      10.224   1.842  21.578  0.00  0.00    -0.385 OA
ATOM     27  H   UNL     1      10.222   1.655  20.621  0.00  0.00    +0.210 HD
ENDBRANCH  17  26
BRANCH  22  28
ATOM     28  O   UNL     1      10.633   0.431  25.529  0.00  0.00    -0.385 OA
ATOM     29  H   UNL     1      10.183  -0.337  25.918  0.00  0.00    +0.210 HD
ENDBRANCH  22  28
ENDBRANCH  15  21
ENDBRANCH   1  15
BRANCH   3  30
ATOM     30  O   UNL     1       6.357  -2.218  25.410  0.00  0.00    -0.342 OA
BRANCH  30  31
ATOM     31  C   UNL     1       4.996  -1.773  25.446  0.00  0.00    +0.268 C 
ATOM     32  C   UNL     1       4.793  -0.226  25.613  0.00  0.00    +0.107 C 
ATOM     33  C   UNL     1       5.169   0.223  27.028  0.00  0.00    +0.026 C 
ATOM     34  C   UNL     1       4.429  -0.625  28.052  0.00  0.00    +0.034 C 
ATOM     35  C   UNL     1       4.759  -2.098  27.811  0.00  0.00    +0.135 C 
ATOM     36  O   UNL     1       4.306  -2.475  26.503  0.00  0.00    -0.345 OA
BRANCH  32  37
ATOM     37  N   UNL     1       5.478   0.643  24.645  0.00  0.00    -0.323 NA
ATOM     38  H   UNL     1       6.282   1.079  25.096  0.00  0.00    +0.119 HD
ATOM     39  H   UNL     1       5.883   0.069  23.908  0.00  0.00    +0.119 HD
ENDBRANCH  32  37
BRANCH  35  40
ATOM     40  C   UNL     1       4.105  -3.012  28.867  0.00  0.00    +0.109 C 
BRANCH  40  41
ATOM     41  N   UNL     1       4.760  -4.322  28.960  0.00  0.00    -0.328 NA
ATOM     42  H   UNL     1       4.645  -4.683  29.907  0.00  0.00    +0.118 HD
ATOM     43  H   UNL     1       4.281  -4.984  28.349  0.00  0.00    +0.118 HD
ENDBRANCH  40  41
ENDBRANCH  35  40
ENDBRANCH  30  31
ENDBRANCH   3  30
TORSDOF 13
ENDMDL
MODEL 2
REMARK VINA RESULT:      -6.4      2.348      6.131
REMARK  Name = 
REMARK  15 active torsions:
REMARK  status: ('A' for Active; 'I' for Inactive)
REMARK    1  A    between atoms: C_1  and  N_2
REMARK    2  A    between atoms: N_2  and  C_3
REMARK    3  A    between atoms: C_5  and  O_7
REMARK    4  A    between atoms: C_8  and  O_10
REMARK    5  A    between atoms: O_10  and  C_11
REMARK    6  A    between atoms: C_13  and  N_15
REMARK    7  A    between atoms: C_17  and  N_19
REMARK    8  A    between atoms: C_20  and  O_22
REMARK    9  A    between atoms: O_22  and  C_23
REMARK   10  A    between atoms: C_26  and  C_28
REMARK   11  A    between atoms: C_28  and  N_29
REMARK   12  A    between atoms: C_32  and  N_34
REMARK   13  A    between atoms: C_35  and  O_37
REMARK   14  A    between atoms: C_40  and  C_41
REMARK   15  A    between atoms: C_40  and  O_42
REMARK                            x       y       z     vdW  Elec       q    Type
REMARK                         _______ _______ _______ _____ _____    ______ ____
ROOT
ATOM      1  C   UNL     1       7.208  -1.531  22.560  0.00  0.00    +0.169 C 
ATOM      2  C   UNL     1       8.641  -2.059  22.292  0.00  0.00    +0.175 C 
ATOM      3  C   UNL     1       9.469  -2.191  23.602  0.00  0.00    +0.169 C 
ATOM      4  C   UNL     1       9.607  -0.805  24.284  0.00  0.00    +0.084 C 
ATOM      5  C   UNL     1       8.219  -0.192  24.541  0.00  0.00    +0.042 C 
ATOM      6  C   UNL     1       7.254  -0.172  23.337  0.00  0.00    +0.084 C 
ENDROOT
BRANCH   4   7
ATOM      7  N   UNL     1      10.504   0.079  23.518  0.00  0.00    -0.325 NA
ATOM      8  H   UNL     1      11.330  -0.448  23.229  0.00  0.00    +0.119 HD
ATOM      9  H   UNL     1      10.043   0.401  22.670  0.00  0.00    +0.119 HD
ENDBRANCH   4   7
BRANCH   6  10
ATOM     10  N   UNL     1       7.561   0.957  22.436  0.00  0.00    -0.325 NA
ATOM     11  H   UNL     1       6.718   1.307  21.989  0.00  0.00    +0.119 HD
ATOM     12  H   UNL     1       7.965   1.723  22.980  0.00  0.00    +0.119 HD
ENDBRANCH   6  10
BRANCH   2  13
ATOM     13  O   UNL     1       9.309  -1.197  21.346  0.00  0.00    -0.387 OA
ATOM     14  H   UNL     1       9.218  -0.289  21.691  0.00  0.00    +0.210 HD
ENDBRANCH   2  13
BRANCH   1  15
ATOM     15  O   UNL     1       6.345  -2.461  23.252  0.00  0.00    -0.341 OA
BRANCH  15  21
ATOM     16  C   UNL     1       5.391  -5.328  23.509  0.00  0.00    +0.121 C 
ATOM     17  C   UNL     1       6.025  -5.815  22.158  0.00  0.00    +0.104 C 
ATOM     18  C   UNL     1       7.053  -6.935  22.338  0.00  0.00    +0.045 C 
ATOM     19  C   UNL     1       6.687  -4.634  21.417  0.00  0.00    +0.199 C 
ATOM     20  O   UNL     1       5.777  -3.550  21.228  0.00  0.00    -0.346 OA
ATOM     21  C   UNL     1       5.276  -3.028  22.472  0.00  0.00    +0.281 C 
ATOM     22  C   UNL     1       4.445  -4.141  23.169  0.00  0.00    +0.190 C 
BRANCH  16  24
ATOM     23  C   UNL     1       4.724  -6.444  25.631  0.00  0.00    +0.101 C 
ATOM     24  N   UNL     1       4.752  -6.478  24.189  0.00  0.00    -0.311 NA
ATOM     25  H   UNL     1       3.845  -6.683  23.771  0.00  0.00    +0.122 HD
ENDBRANCH  16  24
BRANCH  17  26
ATOM     26  O   UNL     1       4.968  -6.354  21.325  0.00  0.00    -0.385 OA
ATOM     27  H   UNL     1       4.912  -5.800  20.526  0.00  0.00    +0.210 HD
ENDBRANCH  17  26
BRANCH  22  28
ATOM     28  O   UNL     1       3.718  -3.624  24.285  0.00  0.00    -0.385 OA
ATOM     29  H   UNL     1       4.237  -3.832  25.079  0.00  0.00    +0.210 HD
ENDBRANCH  22  28
ENDBRANCH  15  21
ENDBRANCH   1  15
BRANCH   3  30
ATOM     30  O   UNL     1       8.896  -3.232  24.407  0.00  0.00    -0.342 OA
BRANCH  30  31
ATOM     31  C   UNL     1       9.170  -3.244  25.812  0.00  0.00    +0.268 C 
ATOM     32  C   UNL     1       9.358  -4.664  26.454  0.00  0.00    +0.107 C 
ATOM     33  C   UNL     1       8.023  -5.411  26.522  0.00  0.00    +0.026 C 
ATOM     34  C   UNL     1       6.980  -4.541  27.207  0.00  0.00    +0.034 C 
ATOM     35  C   UNL     1       6.858  -3.219  26.451  0.00  0.00    +0.135 C 
ATOM     36  O   UNL     1       8.117  -2.532  26.497  0.00  0.00    -0.345 OA
BRANCH  32  37
ATOM     37  N   UNL     1      10.360  -5.545  25.838  0.00  0.00    -0.323 NA
ATOM     38  H   UNL     1      10.139  -6.515  26.063  0.00  0.00    +0.119 HD
ATOM     39  H   UNL     1      10.271  -5.496  24.824  0.00  0.00    +0.119 HD
ENDBRANCH  32  37
BRANCH  35  40
ATOM     40  C   UNL     1       5.756  -2.318  27.044  0.00  0.00    +0.109 C 
BRANCH  40  41
ATOM     41  N   UNL     1       5.028  -1.568  26.014  0.00  0.00    -0.328 NA
ATOM     42  H   UNL     1       4.501  -2.224  25.438  0.00  0.00    +0.118 HD
ATOM     43  H   UNL     1       4.333  -0.969  26.461  0.00  0.00    +0.118 HD
ENDBRANCH  40  41
ENDBRANCH  35  40
ENDBRANCH  30  31
ENDBRANCH   3  30
TORSDOF 13
ENDMDL
MODEL 3
REMARK VINA RESULT:      -6.3      2.340      5.952
REMARK  Name = 
REMARK  15 active torsions:
REMARK  status: ('A' for Active; 'I' for Inactive)
REMARK    1  A    between atoms: C_1  and  N_2
REMARK    2  A    between atoms: N_2  and  C_3
REMARK    3  A    between atoms: C_5  and  O_7
REMARK    4  A    between atoms: C_8  and  O_10
REMARK    5  A    between atoms: O_10  and  C_11
REMARK    6  A    between atoms: C_13  and  N_15
REMARK    7  A    between atoms: C_17  and  N_19
REMARK    8  A    between atoms: C_20  and  O_22
REMARK    9  A    between atoms: O_22  and  C_23
REMARK   10  A    between atoms: C_26  and  C_28
REMARK   11  A    between atoms: C_28  and  N_29
REMARK   12  A    between atoms: C_32  and  N_34
REMARK   13  A    between atoms: C_35  and  O_37
REMARK   14  A    between atoms: C_40  and  C_41
REMARK   15  A    between atoms: C_40  and  O_42
REMARK                            x       y       z     vdW  Elec       q    Type
REMARK                         _______ _______ _______ _____ _____    ______ ____
ROOT
ATOM      1  C   UNL     1       9.572  -1.029  24.237  0.00  0.00    +0.169 C 
ATOM      2  C   UNL     1       9.922   0.440  24.590  0.00  0.00    +0.175 C 
ATOM      3  C   UNL     1       8.917   1.447  23.965  0.00  0.00    +0.169 C 
ATOM      4  C   UNL     1       8.937   1.326  22.418  0.00  0.00    +0.084 C 
ATOM      5  C   UNL     1       8.642  -0.122  21.990  0.00  0.00    +0.042 C 
ATOM      6  C   UNL     1       9.476  -1.218  22.686  0.00  0.00    +0.084 C 
ENDROOT
BRANCH   4   7
ATOM      7  N   UNL     1      10.193   1.858  21.860  0.00  0.00    -0.325 NA
ATOM      8  H   UNL     1      10.035   2.808  21.519  0.00  0.00    +0.119 HD
ATOM      9  H   UNL     1      10.907   1.914  22.583  0.00  0.00    +0.119 HD
ENDBRANCH   4   7
BRANCH   6  10
ATOM     10  N   UNL     1      10.813  -1.331  22.070  0.00  0.00    -0.325 NA
ATOM     11  H   UNL     1      10.928  -2.231  21.611  0.00  0.00    +0.119 HD
ATOM     12  H   UNL     1      10.920  -0.604  21.359  0.00  0.00    +0.119 HD
ENDBRANCH   6  10
BRANCH   2  13
ATOM     13  O   UNL     1      11.272   0.732  24.171  0.00  0.00    -0.387 OA
ATOM     14  H   UNL     1      11.268   0.707  23.196  0.00  0.00    +0.210 HD
ENDBRANCH   2  13
BRANCH   1  15
ATOM     15  O   UNL     1       8.369  -1.527  24.866  0.00  0.00    -0.341 OA
BRANCH  15  21
ATOM     16  C   UNL     1       7.313  -4.312  24.302  0.00  0.00    +0.121 C 
ATOM     17  C   UNL     1       6.148  -4.243  25.351  0.00  0.00    +0.104 C 
ATOM     18  C   UNL     1       4.759  -4.408  24.729  0.00  0.00    +0.045 C 
ATOM     19  C   UNL     1       6.199  -2.910  26.127  0.00  0.00    +0.199 C 
ATOM     20  O   UNL     1       7.478  -2.693  26.724  0.00  0.00    -0.346 OA
ATOM     21  C   UNL     1       8.539  -2.648  25.752  0.00  0.00    +0.281 C 
ATOM     22  C   UNL     1       8.638  -4.041  25.071  0.00  0.00    +0.190 C 
BRANCH  16  24
ATOM     23  C   UNL     1       7.193  -5.547  22.144  0.00  0.00    +0.101 C 
ATOM     24  N   UNL     1       7.245  -5.606  23.585  0.00  0.00    -0.311 NA
ATOM     25  H   UNL     1       7.953  -6.250  23.938  0.00  0.00    +0.122 HD
ENDBRANCH  16  24
BRANCH  17  26
ATOM     26  O   UNL     1       6.311  -5.335  26.290  0.00  0.00    -0.385 OA
ATOM     27  H   UNL     1       7.257  -5.569  26.306  0.00  0.00    +0.210 HD
ENDBRANCH  17  26
BRANCH  22  28
ATOM     28  O   UNL     1       9.818  -4.147  24.274  0.00  0.00    -0.385 OA
ATOM     29  H   UNL     1       9.893  -5.078  24.005  0.00  0.00    +0.210 HD
ENDBRANCH  22  28
ENDBRANCH  15  21
ENDBRANCH   1  15
BRANCH   3  30
ATOM     30  O   UNL     1       7.637   1.271  24.591  0.00  0.00    -0.342 OA
BRANCH  30  31
ATOM     31  C   UNL     1       7.304   2.092  25.717  0.00  0.00    +0.268 C 
ATOM     32  C   UNL     1       6.953   1.320  27.038  0.00  0.00    +0.107 C 
ATOM     33  C   UNL     1       5.597   0.620  26.914  0.00  0.00    +0.026 C 
ATOM     34  C   UNL     1       4.540   1.618  26.466  0.00  0.00    +0.034 C 
ATOM     35  C   UNL     1       4.980   2.251  25.147  0.00  0.00    +0.135 C 
ATOM     36  O   UNL     1       6.209   2.960  25.351  0.00  0.00    -0.345 OA
BRANCH  32  37
ATOM     37  N   UNL     1       7.943   0.349  27.523  0.00  0.00    -0.323 NA
ATOM     38  H   UNL     1       8.686   0.844  28.015  0.00  0.00    +0.119 HD
ATOM     39  H   UNL     1       7.514  -0.237  28.238  0.00  0.00    +0.119 HD
ENDBRANCH  32  37
BRANCH  35  40
ATOM     40  C   UNL     1       3.913   3.216  24.590  0.00  0.00    +0.109 C 
BRANCH  40  41
ATOM     41  N   UNL     1       3.354   2.761  23.312  0.00  0.00    -0.328 NA
ATOM     42  H   UNL     1       3.988   3.028  22.560  0.00  0.00    +0.118 HD
ATOM     43  H   UNL     1       3.323   1.741  23.301  0.00  0.00    +0.118 HD
ENDBRANCH  40  41
ENDBRANCH  35  40
ENDBRANCH  30  31
ENDBRANCH   3  30
TORSDOF 13
ENDMDL
MODEL 4
REMARK VINA RESULT:      -6.3      2.373      6.069
REMARK  Name = 
REMARK  15 active torsions:
REMARK  status: ('A' for Active; 'I' for Inactive)
REMARK    1  A    between atoms: C_1  and  N_2
REMARK    2  A    between atoms: N_2  and  C_3
REMARK    3  A    between atoms: C_5  and  O_7
REMARK    4  A    between atoms: C_8  and  O_10
REMARK    5  A    between atoms: O_10  and  C_11
REMARK    6  A    between atoms: C_13  and  N_15
REMARK    7  A    between atoms: C_17  and  N_19
REMARK    8  A    between atoms: C_20  and  O_22
REMARK    9  A    between atoms: O_22  and  C_23
REMARK   10  A    between atoms: C_26  and  C_28
REMARK   11  A    between atoms: C_28  and  N_29
REMARK   12  A    between atoms: C_32  and  N_34
REMARK   13  A    between atoms: C_35  and  O_37
REMARK   14  A    between atoms: C_40  and  C_41
REMARK   15  A    between atoms: C_40  and  O_42
REMARK                            x       y       z     vdW  Elec       q    Type
REMARK                         _______ _______ _______ _____ _____    ______ ____
ROOT
ATOM      1  C   UNL     1       9.124   0.465  23.335  0.00  0.00    +0.169 C 
ATOM      2  C   UNL     1       9.598   1.697  24.148  0.00  0.00    +0.175 C 
ATOM      3  C   UNL     1       8.406   2.545  24.673  0.00  0.00    +0.169 C 
ATOM      4  C   UNL     1       7.565   3.073  23.481  0.00  0.00    +0.084 C 
ATOM      5  C   UNL     1       7.095   1.905  22.596  0.00  0.00    +0.042 C 
ATOM      6  C   UNL     1       8.185   0.903  22.161  0.00  0.00    +0.084 C 
ENDROOT
BRANCH   4   7
ATOM      7  N   UNL     1       8.295   4.114  22.736  0.00  0.00    -0.325 NA
ATOM      8  H   UNL     1       9.104   4.415  23.282  0.00  0.00    +0.119 HD
ATOM      9  H   UNL     1       8.649   3.740  21.858  0.00  0.00    +0.119 HD
ENDBRANCH   4   7
BRANCH   6  10
ATOM     10  N   UNL     1       8.957   1.430  21.018  0.00  0.00    -0.325 NA
ATOM     11  H   UNL     1       8.347   1.634  20.230  0.00  0.00    +0.119 HD
ATOM     12  H   UNL     1       9.413   2.303  21.292  0.00  0.00    +0.119 HD
ENDBRANCH   6  10
BRANCH   2  13
ATOM     13  O   UNL     1      10.486   2.500  23.342  0.00  0.00    -0.387 OA
ATOM     14  H   UNL     1      10.427   3.409  23.692  0.00  0.00    +0.210 HD
ENDBRANCH   2  13
BRANCH   1  15
ATOM     15  O   UNL     1       8.477  -0.561  24.122  0.00  0.00    -0.341 OA
BRANCH  15  21
ATOM     16  C   UNL     1       8.275  -3.573  24.407  0.00  0.00    +0.121 C 
ATOM     17  C   UNL     1       7.660  -3.543  25.851  0.00  0.00    +0.104 C 
ATOM     18  C   UNL     1       6.280  -4.199  25.937  0.00  0.00    +0.045 C 
ATOM     19  C   UNL     1       7.564  -2.092  26.366  0.00  0.00    +0.199 C 
ATOM     20  O   UNL     1       8.823  -1.421  26.300  0.00  0.00    -0.346 OA
ATOM     21  C   UNL     1       9.341  -1.352  24.959  0.00  0.00    +0.281 C 
ATOM     22  C   UNL     1       9.623  -2.799  24.468  0.00  0.00    +0.190 C 
BRANCH  16  24
ATOM     23  C   UNL     1       7.571  -5.338  22.799  0.00  0.00    +0.101 C 
ATOM     24  N   UNL     1       8.368  -4.978  23.948  0.00  0.00    -0.311 NA
ATOM     25  H   UNL     1       9.343  -5.267  23.870  0.00  0.00    +0.122 HD
ENDBRANCH  16  24
BRANCH  17  26
ATOM     26  O   UNL     1       8.529  -4.294  26.735  0.00  0.00    -0.385 OA
ATOM     27  H   UNL     1       9.294  -4.594  26.210  0.00  0.00    +0.210 HD
ENDBRANCH  17  26
BRANCH  22  28
ATOM     28  O   UNL     1      10.362  -2.797  23.246  0.00  0.00    -0.385 OA
ATOM     29  H   UNL     1       9.712  -2.746  22.525  0.00  0.00    +0.210 HD
ENDBRANCH  22  28
ENDBRANCH  15  21
ENDBRANCH   1  15
BRANCH   3  30
ATOM     30  O   UNL     1       7.691   1.778  25.654  0.00  0.00    -0.342 OA
BRANCH  30  31
ATOM     31  C   UNL     1       7.065   2.467  26.742  0.00  0.00    +0.268 C 
ATOM     32  C   UNL     1       6.721   1.585  27.994  0.00  0.00    +0.107 C 
ATOM     33  C   UNL     1       5.560   0.636  27.688  0.00  0.00    +0.026 C 
ATOM     34  C   UNL     1       4.384   1.422  27.127  0.00  0.00    +0.034 C 
ATOM     35  C   UNL     1       4.842   2.186  25.885  0.00  0.00    +0.135 C 
ATOM     36  O   UNL     1       5.869   3.115  26.256  0.00  0.00    -0.345 OA
BRANCH  32  37
ATOM     37  N   UNL     1       7.821   0.810  28.584  0.00  0.00    -0.323 NA
ATOM     38  H   UNL     1       7.440  -0.014  29.048  0.00  0.00    +0.119 HD
ATOM     39  H   UNL     1       8.402   0.432  27.837  0.00  0.00    +0.119 HD
ENDBRANCH  32  37
BRANCH  35  40
ATOM     40  C   UNL     1       3.678   2.943  25.215  0.00  0.00    +0.109 C 
BRANCH  40  41
ATOM     41  N   UNL     1       3.559   2.640  23.784  0.00  0.00    -0.328 NA
ATOM     42  H   UNL     1       3.592   3.513  23.258  0.00  0.00    +0.118 HD
ATOM     43  H   UNL     1       4.373   2.103  23.483  0.00  0.00    +0.118 HD
ENDBRANCH  40  41
ENDBRANCH  35  40
ENDBRANCH  30  31
ENDBRANCH   3  30
TORSDOF 13
ENDMDL
MODEL 5
REMARK VINA RESULT:      -6.2      2.150      5.766
REMARK  Name = 
REMARK  15 active torsions:
REMARK  status: ('A' for Active; 'I' for Inactive)
REMARK    1  A    between atoms: C_1  and  N_2
REMARK    2  A    between atoms: N_2  and  C_3
REMARK    3  A    between atoms: C_5  and  O_7
REMARK    4  A    between atoms: C_8  and  O_10
REMARK    5  A    between atoms: O_10  and  C_11
REMARK    6  A    between atoms: C_13  and  N_15
REMARK    7  A    between atoms: C_17  and  N_19
REMARK    8  A    between atoms: C_20  and  O_22
REMARK    9  A    between atoms: O_22  and  C_23
REMARK   10  A    between atoms: C_26  and  C_28
REMARK   11  A    between atoms: C_28  and  N_29
REMARK   12  A    between atoms: C_32  and  N_34
REMARK   13  A    between atoms: C_35  and  O_37
REMARK   14  A    between atoms: C_40  and  C_41
REMARK   15  A    between atoms: C_40  and  O_42
REMARK                            x       y       z     vdW  Elec       q    Type
REMARK                         _______ _______ _______ _____ _____    ______ ____
ROOT
ATOM      1  C   UNL     1       9.299   0.585  23.461  0.00  0.00    +0.169 C 
ATOM      2  C   UNL     1       9.455   1.681  24.547  0.00  0.00    +0.175 C 
ATOM      3  C   UNL     1       8.130   2.456  24.791  0.00  0.00    +0.169 C 
ATOM      4  C   UNL     1       7.679   3.160  23.485  0.00  0.00    +0.084 C 
ATOM      5  C   UNL     1       7.545   2.138  22.342  0.00  0.00    +0.042 C 
ATOM      6  C   UNL     1       8.751   1.199  22.129  0.00  0.00    +0.084 C 
ENDROOT
BRANCH   4   7
ATOM      7  N   UNL     1       8.565   4.292  23.158  0.00  0.00    -0.325 NA
ATOM      8  H   UNL     1       8.945   4.161  22.219  0.00  0.00    +0.119 HD
ATOM      9  H   UNL     1       8.039   5.163  23.150  0.00  0.00    +0.119 HD
ENDBRANCH   4   7
BRANCH   6  10
ATOM     10  N   UNL     1       9.818   1.879  21.367  0.00  0.00    -0.325 NA
ATOM     11  H   UNL     1      10.109   1.320  20.569  0.00  0.00    +0.119 HD
ATOM     12  H   UNL     1       9.463   2.769  21.010  0.00  0.00    +0.119 HD
ENDBRANCH   6  10
BRANCH   2  13
ATOM     13  O   UNL     1      10.519   2.584  24.177  0.00  0.00    -0.387 OA
ATOM     14  H   UNL     1      10.721   3.110  24.973  0.00  0.00    +0.210 HD
ENDBRANCH   2  13
BRANCH   1  15
ATOM     15  O   UNL     1       8.478  -0.538  23.856  0.00  0.00    -0.341 OA
BRANCH  15  21
ATOM     16  C   UNL     1       7.088  -3.171  24.430  0.00  0.00    +0.121 C 
ATOM     17  C   UNL     1       8.407  -3.979  24.693  0.00  0.00    +0.104 C 
ATOM     18  C   UNL     1       8.484  -4.577  26.100  0.00  0.00    +0.045 C 
ATOM     19  C   UNL     1       9.643  -3.086  24.455  0.00  0.00    +0.199 C 
ATOM     20  O   UNL     1       9.624  -2.488  23.158  0.00  0.00    -0.346 OA
ATOM     21  C   UNL     1       8.466  -1.658  22.951  0.00  0.00    +0.281 C 
ATOM     22  C   UNL     1       7.202  -2.559  23.004  0.00  0.00    +0.190 C 
BRANCH  16  24
ATOM     23  C   UNL     1       4.817  -3.501  25.395  0.00  0.00    +0.101 C 
ATOM     24  N   UNL     1       5.923  -4.057  24.652  0.00  0.00    -0.311 NA
ATOM     25  H   UNL     1       5.640  -4.503  23.780  0.00  0.00    +0.122 HD
ENDBRANCH  16  24
BRANCH  17  26
ATOM     26  O   UNL     1       8.453  -5.094  23.767  0.00  0.00    -0.385 OA
ATOM     27  H   UNL     1       7.659  -5.041  23.205  0.00  0.00    +0.210 HD
ENDBRANCH  17  26
BRANCH  22  28
ATOM     28  O   UNL     1       6.041  -1.851  22.568  0.00  0.00    -0.385 OA
ATOM     29  H   UNL     1       6.324  -0.944  22.366  0.00  0.00    +0.210 HD
ENDBRANCH  22  28
ENDBRANCH  15  21
ENDBRANCH   1  15
BRANCH   3  30
ATOM     30  O   UNL     1       7.176   1.562  25.384  0.00  0.00    -0.342 OA
BRANCH  30  31
ATOM     31  C   UNL     1       7.087   1.499  26.812  0.00  0.00    +0.268 C 
ATOM     32  C   UNL     1       7.417   0.104  27.450  0.00  0.00    +0.107 C 
ATOM     33  C   UNL     1       6.306  -0.907  27.154  0.00  0.00    +0.026 C 
ATOM     34  C   UNL     1       4.960  -0.328  27.562  0.00  0.00    +0.034 C 
ATOM     35  C   UNL     1       4.742   0.994  26.828  0.00  0.00    +0.135 C 
ATOM     36  O   UNL     1       5.765   1.922  27.214  0.00  0.00    -0.345 OA
BRANCH  32  37
ATOM     37  N   UNL     1       8.710  -0.499  27.098  0.00  0.00    -0.323 NA
ATOM     38  H   UNL     1       9.414  -0.203  27.773  0.00  0.00    +0.119 HD
ATOM     39  H   UNL     1       8.653  -1.509  27.220  0.00  0.00    +0.119 HD
ENDBRANCH  32  37
BRANCH  35  40
ATOM     40  C   UNL     1       3.356   1.598  27.133  0.00  0.00    +0.109 C 
BRANCH  40  41
ATOM     41  N   UNL     1       2.618   1.957  25.916  0.00  0.00    -0.328 NA
ATOM     42  H   UNL     1       1.956   1.213  25.699  0.00  0.00    +0.118 HD
ATOM     43  H   UNL     1       2.054   2.789  26.096  0.00  0.00    +0.118 HD
ENDBRANCH  40  41
ENDBRANCH  35  40
ENDBRANCH  30  31
ENDBRANCH   3  30
TORSDOF 13
ENDMDL
MODEL 6
REMARK VINA RESULT:      -6.2      4.074      5.780
REMARK  Name = 
REMARK  15 active torsions:
REMARK  status: ('A' for Active; 'I' for Inactive)
REMARK    1  A    between atoms: C_1  and  N_2
REMARK    2  A    between atoms: N_2  and  C_3
REMARK    3  A    between atoms: C_5  and  O_7
REMARK    4  A    between atoms: C_8  and  O_10
REMARK    5  A    between atoms: O_10  and  C_11
REMARK    6  A    between atoms: C_13  and  N_15
REMARK    7  A    between atoms: C_17  and  N_19
REMARK    8  A    between atoms: C_20  and  O_22
REMARK    9  A    between atoms: O_22  and  C_23
REMARK   10  A    between atoms: C_26  and  C_28
REMARK   11  A    between atoms: C_28  and  N_29
REMARK   12  A    between atoms: C_32  and  N_34
REMARK   13  A    between atoms: C_35  and  O_37
REMARK   14  A    between atoms: C_40  and  C_41
REMARK   15  A    between atoms: C_40  and  O_42
REMARK                            x       y       z     vdW  Elec       q    Type
REMARK                         _______ _______ _______ _____ _____    ______ ____
ROOT
ATOM      1  C   UNL     1       5.872  -5.433  27.277  0.00  0.00    +0.169 C 
ATOM      2  C   UNL     1       5.187  -6.820  27.170  0.00  0.00    +0.175 C 
ATOM      3  C   UNL     1       3.653  -6.698  26.951  0.00  0.00    +0.169 C 
ATOM      4  C   UNL     1       3.003  -5.953  28.146  0.00  0.00    +0.084 C 
ATOM      5  C   UNL     1       3.666  -4.578  28.345  0.00  0.00    +0.042 C 
ATOM      6  C   UNL     1       5.209  -4.572  28.404  0.00  0.00    +0.084 C 
ENDROOT
BRANCH   4   7
ATOM      7  N   UNL     1       3.010  -6.787  29.360  0.00  0.00    -0.325 NA
ATOM      8  H   UNL     1       2.165  -7.362  29.379  0.00  0.00    +0.119 HD
ATOM      9  H   UNL     1       3.805  -7.422  29.349  0.00  0.00    +0.119 HD
ENDBRANCH   4   7
BRANCH   6  10
ATOM     10  N   UNL     1       5.685  -4.972  29.743  0.00  0.00    -0.325 NA
ATOM     11  H   UNL     1       4.993  -5.545  30.219  0.00  0.00    +0.119 HD
ATOM     12  H   UNL     1       6.536  -5.530  29.646  0.00  0.00    +0.119 HD
ENDBRANCH   6  10
BRANCH   2  13
ATOM     13  O   UNL     1       5.479  -7.599  28.350  0.00  0.00    -0.387 OA
ATOM     14  H   UNL     1       6.135  -7.088  28.860  0.00  0.00    +0.210 HD
ENDBRANCH   2  13
BRANCH   1  15
ATOM     15  O   UNL     1       5.904  -4.682  26.042  0.00  0.00    -0.341 OA
BRANCH  15  21
ATOM     16  C   UNL     1       7.899  -2.476  25.453  0.00  0.00    +0.121 C 
ATOM     17  C   UNL     1       7.455  -2.271  23.962  0.00  0.00    +0.104 C 
ATOM     18  C   UNL     1       6.947  -0.857  23.669  0.00  0.00    +0.045 C 
ATOM     19  C   UNL     1       6.362  -3.291  23.579  0.00  0.00    +0.199 C 
ATOM     20  O   UNL     1       6.774  -4.633  23.841  0.00  0.00    -0.346 OA
ATOM     21  C   UNL     1       7.080  -4.854  25.230  0.00  0.00    +0.281 C 
ATOM     22  C   UNL     1       8.301  -3.971  25.609  0.00  0.00    +0.190 C 
BRANCH  16  24
ATOM     23  C   UNL     1       8.760  -0.709  26.980  0.00  0.00    +0.101 C 
ATOM     24  N   UNL     1       8.957  -1.495  25.785  0.00  0.00    -0.311 NA
ATOM     25  H   UNL     1       9.878  -1.929  25.734  0.00  0.00    +0.122 HD
ENDBRANCH  16  24
BRANCH  17  26
ATOM     26  O   UNL     1       8.607  -2.480  23.108  0.00  0.00    -0.385 OA
ATOM     27  H   UNL     1       8.339  -3.091  22.397  0.00  0.00    +0.210 HD
ENDBRANCH  17  26
BRANCH  22  28
ATOM     28  O   UNL     1       8.812  -4.317  26.897  0.00  0.00    -0.385 OA
ATOM     29  H   UNL     1       8.090  -4.758  27.376  0.00  0.00    +0.210 HD
ENDBRANCH  22  28
ENDBRANCH  15  21
ENDBRANCH   1  15
BRANCH   3  30
ATOM     30  O   UNL     1       3.416  -6.131  25.654  0.00  0.00    -0.342 OA
BRANCH  30  31
ATOM     31  C   UNL     1       3.701  -6.923  24.495  0.00  0.00    +0.268 C 
ATOM     32  C   UNL     1       3.274  -6.293  23.122  0.00  0.00    +0.107 C 
ATOM     33  C   UNL     1       1.751  -6.293  22.973  0.00  0.00    +0.026 C 
ATOM     34  C   UNL     1       1.209  -7.693  23.221  0.00  0.00    +0.034 C 
ATOM     35  C   UNL     1       1.649  -8.160  24.607  0.00  0.00    +0.135 C 
ATOM     36  O   UNL     1       3.081  -8.218  24.653  0.00  0.00    -0.345 OA
BRANCH  32  37
ATOM     37  N   UNL     1       3.777  -4.944  22.825  0.00  0.00    -0.323 NA
ATOM     38  H   UNL     1       4.046  -4.487  23.696  0.00  0.00    +0.119 HD
ATOM     39  H   UNL     1       4.646  -5.018  22.300  0.00  0.00    +0.119 HD
ENDBRANCH  32  37
BRANCH  35  40
ATOM     40  C   UNL     1       1.065  -9.543  24.959  0.00  0.00    +0.109 C 
BRANCH  40  41
ATOM     41  N   UNL     1       2.079 -10.466  25.484  0.00  0.00    -0.328 NA
ATOM     42  H   UNL     1       2.703  -9.952  26.106  0.00  0.00    +0.118 HD
ATOM     43  H   UNL     1       1.625 -11.172  26.065  0.00  0.00    +0.118 HD
ENDBRANCH  40  41
ENDBRANCH  35  40
ENDBRANCH  30  31
ENDBRANCH   3  30
TORSDOF 13
ENDMDL
MODEL 7
REMARK VINA RESULT:      -6.1      1.105      2.229
REMARK  Name = 
REMARK  15 active torsions:
REMARK  status: ('A' for Active; 'I' for Inactive)
REMARK    1  A    between atoms: C_1  and  N_2
REMARK    2  A    between atoms: N_2  and  C_3
REMARK    3  A    between atoms: C_5  and  O_7
REMARK    4  A    between atoms: C_8  and  O_10
REMARK    5  A    between atoms: O_10  and  C_11
REMARK    6  A    between atoms: C_13  and  N_15
REMARK    7  A    between atoms: C_17  and  N_19
REMARK    8  A    between atoms: C_20  and  O_22
REMARK    9  A    between atoms: O_22  and  C_23
REMARK   10  A    between atoms: C_26  and  C_28
REMARK   11  A    between atoms: C_28  and  N_29
REMARK   12  A    between atoms: C_32  and  N_34
REMARK   13  A    between atoms: C_35  and  O_37
REMARK   14  A    between atoms: C_40  and  C_41
REMARK   15  A    between atoms: C_40  and  O_42
REMARK                            x       y       z     vdW  Elec       q    Type
REMARK                         _______ _______ _______ _____ _____    ______ ____
ROOT
ATOM      1  C   UNL     1       8.586  -3.403  24.047  0.00  0.00    +0.169 C 
ATOM      2  C   UNL     1       7.206  -4.093  24.205  0.00  0.00    +0.175 C 
ATOM      3  C   UNL     1       6.603  -3.874  25.622  0.00  0.00    +0.169 C 
ATOM      4  C   UNL     1       7.546  -4.474  26.698  0.00  0.00    +0.084 C 
ATOM      5  C   UNL     1       8.955  -3.869  26.574  0.00  0.00    +0.042 C 
ATOM      6  C   UNL     1       9.577  -3.883  25.161  0.00  0.00    +0.084 C 
ENDROOT
BRANCH   4   7
ATOM      7  N   UNL     1       7.535  -5.947  26.654  0.00  0.00    -0.325 NA
ATOM      8  H   UNL     1       6.838  -6.258  25.974  0.00  0.00    +0.119 HD
ATOM      9  H   UNL     1       8.437  -6.298  26.340  0.00  0.00    +0.119 HD
ENDBRANCH   4   7
BRANCH   6  10
ATOM     10  N   UNL     1      10.142  -5.210  24.849  0.00  0.00    -0.325 NA
ATOM     11  H   UNL     1      10.784  -5.514  25.577  0.00  0.00    +0.119 HD
ATOM     12  H   UNL     1       9.386  -5.896  24.797  0.00  0.00    +0.119 HD
ENDBRANCH   6  10
BRANCH   2  13
ATOM     13  O   UNL     1       7.329  -5.500  23.909  0.00  0.00    -0.387 OA
ATOM     14  H   UNL     1       7.930  -5.870  24.582  0.00  0.00    +0.210 HD
ENDBRANCH   2  13
BRANCH   1  15
ATOM     15  O   UNL     1       8.537  -1.959  24.025  0.00  0.00    -0.341 OA
BRANCH  15  21
ATOM     16  C   UNL     1       8.797   1.031  23.593  0.00  0.00    +0.121 C 
ATOM     17  C   UNL     1       9.020   0.937  22.043  0.00  0.00    +0.104 C 
ATOM     18  C   UNL     1       7.954   1.674  21.229  0.00  0.00    +0.045 C 
ATOM     19  C   UNL     1       9.069  -0.539  21.594  0.00  0.00    +0.199 C 
ATOM     20  O   UNL     1      10.042  -1.285  22.327  0.00  0.00    -0.346 OA
ATOM     21  C   UNL     1       9.780  -1.290  23.742  0.00  0.00    +0.281 C 
ATOM     22  C   UNL     1       9.901   0.167  24.268  0.00  0.00    +0.190 C 
BRANCH  16  24
ATOM     23  C   UNL     1      10.044   3.128  24.086  0.00  0.00    +0.101 C 
ATOM     24  N   UNL     1       8.770   2.456  23.994  0.00  0.00    -0.311 NA
ATOM     25  H   UNL     1       8.081   2.970  23.447  0.00  0.00    +0.122 HD
ENDBRANCH  16  24
BRANCH  17  26
ATOM     26  O   UNL     1      10.288   1.562  21.723  0.00  0.00    -0.385 OA
ATOM     27  H   UNL     1      10.990   1.042  22.156  0.00  0.00    +0.210 HD
ENDBRANCH  17  26
BRANCH  22  28
ATOM     28  O   UNL     1       9.895   0.206  25.696  0.00  0.00    -0.385 OA
ATOM     29  H   UNL     1      10.630  -0.353  25.995  0.00  0.00    +0.210 HD
ENDBRANCH  22  28
ENDBRANCH  15  21
ENDBRANCH   1  15
BRANCH   3  30
ATOM     30  O   UNL     1       6.279  -2.485  25.775  0.00  0.00    -0.342 OA
BRANCH  30  31
ATOM     31  C   UNL     1       6.075  -1.968  27.095  0.00  0.00    +0.268 C 
ATOM     32  C   UNL     1       4.616  -2.104  27.658  0.00  0.00    +0.107 C 
ATOM     33  C   UNL     1       3.664  -1.145  26.938  0.00  0.00    +0.026 C 
ATOM     34  C   UNL     1       4.227   0.268  26.978  0.00  0.00    +0.034 C 
ATOM     35  C   UNL     1       5.621   0.266  26.351  0.00  0.00    +0.135 C 
ATOM     36  O   UNL     1       6.483  -0.583  27.120  0.00  0.00    -0.345 OA
BRANCH  32  37
ATOM     37  N   UNL     1       4.024  -3.449  27.653  0.00  0.00    -0.323 NA
ATOM     38  H   UNL     1       3.019  -3.372  27.495  0.00  0.00    +0.119 HD
ATOM     39  H   UNL     1       4.368  -3.963  26.844  0.00  0.00    +0.119 HD
ENDBRANCH  32  37
BRANCH  35  40
ATOM     40  C   UNL     1       6.220   1.686  26.283  0.00  0.00    +0.109 C 
BRANCH  40  41
ATOM     41  N   UNL     1       7.555   1.763  26.889  0.00  0.00    -0.328 NA
ATOM     42  H   UNL     1       8.159   2.324  26.290  0.00  0.00    +0.118 HD
ATOM     43  H   UNL     1       7.495   2.266  27.775  0.00  0.00    +0.118 HD
ENDBRANCH  40  41
ENDBRANCH  35  40
ENDBRANCH  30  31
ENDBRANCH   3  30
TORSDOF 13
ENDMDL
MODEL 8
REMARK VINA RESULT:      -6.1      2.217      5.407
REMARK  Name = 
REMARK  15 active torsions:
REMARK  status: ('A' for Active; 'I' for Inactive)
REMARK    1  A    between atoms: C_1  and  N_2
REMARK    2  A    between atoms: N_2  and  C_3
REMARK    3  A    between atoms: C_5  and  O_7
REMARK    4  A    between atoms: C_8  and  O_10
REMARK    5  A    between atoms: O_10  and  C_11
REMARK    6  A    between atoms: C_13  and  N_15
REMARK    7  A    between atoms: C_17  and  N_19
REMARK    8  A    between atoms: C_20  and  O_22
REMARK    9  A    between atoms: O_22  and  C_23
REMARK   10  A    between atoms: C_26  and  C_28
REMARK   11  A    between atoms: C_28  and  N_29
REMARK   12  A    between atoms: C_32  and  N_34
REMARK   13  A    between atoms: C_35  and  O_37
REMARK   14  A    between atoms: C_40  and  C_41
REMARK   15  A    between atoms: C_40  and  O_42
REMARK                            x       y       z     vdW  Elec       q    Type
REMARK                         _______ _______ _______ _____ _____    ______ ____
ROOT
ATOM      1  C   UNL     1       8.197   0.299  23.978  0.00  0.00    +0.169 C 
ATOM      2  C   UNL     1       8.017  -0.245  22.537  0.00  0.00    +0.175 C 
ATOM      3  C   UNL     1       8.369  -1.756  22.434  0.00  0.00    +0.169 C 
ATOM      4  C   UNL     1       9.851  -1.984  22.832  0.00  0.00    +0.084 C 
ATOM      5  C   UNL     1      10.120  -1.426  24.240  0.00  0.00    +0.042 C 
ATOM      6  C   UNL     1       9.649   0.021  24.498  0.00  0.00    +0.084 C 
ENDROOT
BRANCH   4   7
ATOM      7  N   UNL     1      10.765  -1.451  21.806  0.00  0.00    -0.325 NA
ATOM      8  H   UNL     1      10.402  -0.561  21.461  0.00  0.00    +0.119 HD
ATOM      9  H   UNL     1      11.680  -1.265  22.210  0.00  0.00    +0.119 HD
ENDBRANCH   4   7
BRANCH   6  10
ATOM     10  N   UNL     1      10.615   0.994  23.950  0.00  0.00    -0.325 NA
ATOM     11  H   UNL     1      10.805   1.735  24.620  0.00  0.00    +0.119 HD
ATOM     12  H   UNL     1      11.500   0.518  23.755  0.00  0.00    +0.119 HD
ENDBRANCH   6  10
BRANCH   2  13
ATOM     13  O   UNL     1       8.815   0.533  21.620  0.00  0.00    -0.387 OA
ATOM     14  H   UNL     1       8.897  -0.000  20.807  0.00  0.00    +0.210 HD
ENDBRANCH   2  13
BRANCH   1  15
ATOM     15  O   UNL     1       7.233  -0.199  24.932  0.00  0.00    -0.341 OA
BRANCH  15  21
ATOM     16  C   UNL     1       5.303   1.164  26.833  0.00  0.00    +0.121 C 
ATOM     17  C   UNL     1       4.503  -0.139  27.189  0.00  0.00    +0.104 C 
ATOM     18  C   UNL     1       4.544  -0.489  28.679  0.00  0.00    +0.045 C 
ATOM     19  C   UNL     1       5.033  -1.337  26.374  0.00  0.00    +0.199 C 
ATOM     20  O   UNL     1       5.030  -1.067  24.971  0.00  0.00    -0.346 OA
ATOM     21  C   UNL     1       5.851   0.064  24.627  0.00  0.00    +0.281 C 
ATOM     22  C   UNL     1       5.240   1.331  25.288  0.00  0.00    +0.190 C 
BRANCH  16  24
ATOM     23  C   UNL     1       5.714   3.070  28.380  0.00  0.00    +0.101 C 
ATOM     24  N   UNL     1       4.763   2.296  27.619  0.00  0.00    -0.311 NA
ATOM     25  H   UNL     1       4.143   2.868  27.046  0.00  0.00    +0.122 HD
ENDBRANCH  16  24
BRANCH  17  26
ATOM     26  O   UNL     1       3.109   0.073  26.853  0.00  0.00    -0.385 OA
ATOM     27  H   UNL     1       3.055   0.893  26.329  0.00  0.00    +0.210 HD
ENDBRANCH  17  26
BRANCH  22  28
ATOM     28  O   UNL     1       5.856   2.522  24.795  0.00  0.00    -0.385 OA
ATOM     29  H   UNL     1       5.768   2.503  23.827  0.00  0.00    +0.210 HD
ENDBRANCH  22  28
ENDBRANCH  15  21
ENDBRANCH   1  15
BRANCH   3  30
ATOM     30  O   UNL     1       7.397  -2.507  23.176  0.00  0.00    -0.342 OA
BRANCH  30  31
ATOM     31  C   UNL     1       7.351  -3.929  23.007  0.00  0.00    +0.268 C 
ATOM     32  C   UNL     1       5.942  -4.590  23.207  0.00  0.00    +0.107 C 
ATOM     33  C   UNL     1       5.535  -4.569  24.682  0.00  0.00    +0.026 C 
ATOM     34  C   UNL     1       6.643  -5.174  25.532  0.00  0.00    +0.034 C 
ATOM     35  C   UNL     1       7.939  -4.404  25.283  0.00  0.00    +0.135 C 
ATOM     36  O   UNL     1       8.308  -4.534  23.904  0.00  0.00    -0.345 OA
BRANCH  32  37
ATOM     37  N   UNL     1       4.835  -4.050  22.405  0.00  0.00    -0.323 NA
ATOM     38  H   UNL     1       3.968  -4.514  22.675  0.00  0.00    +0.119 HD
ATOM     39  H   UNL     1       4.686  -3.074  22.653  0.00  0.00    +0.119 HD
ENDBRANCH  32  37
BRANCH  35  40
ATOM     40  C   UNL     1       9.089  -4.914  26.176  0.00  0.00    +0.109 C 
BRANCH  40  41
ATOM     41  N   UNL     1      10.207  -5.459  25.397  0.00  0.00    -0.328 NA
ATOM     42  H   UNL     1       9.865  -6.227  24.821  0.00  0.00    +0.118 HD
ATOM     43  H   UNL     1      10.542  -4.749  24.744  0.00  0.00    +0.118 HD
ENDBRANCH  40  41
ENDBRANCH  35  40
ENDBRANCH  30  31
ENDBRANCH   3  30
TORSDOF 13
ENDMDL
MODEL 9
REMARK VINA RESULT:      -6.1      2.663      7.131
REMARK  Name = 
REMARK  15 active torsions:
REMARK  status: ('A' for Active; 'I' for Inactive)
REMARK    1  A    between atoms: C_1  and  N_2
REMARK    2  A    between atoms: N_2  and  C_3
REMARK    3  A    between atoms: C_5  and  O_7
REMARK    4  A    between atoms: C_8  and  O_10
REMARK    5  A    between atoms: O_10  and  C_11
REMARK    6  A    between atoms: C_13  and  N_15
REMARK    7  A    between atoms: C_17  and  N_19
REMARK    8  A    between atoms: C_20  and  O_22
REMARK    9  A    between atoms: O_22  and  C_23
REMARK   10  A    between atoms: C_26  and  C_28
REMARK   11  A    between atoms: C_28  and  N_29
REMARK   12  A    between atoms: C_32  and  N_34
REMARK   13  A    between atoms: C_35  and  O_37
REMARK   14  A    between atoms: C_40  and  C_41
REMARK   15  A    between atoms: C_40  and  O_42
REMARK                            x       y       z     vdW  Elec       q    Type
REMARK                         _______ _______ _______ _____ _____    ______ ____
ROOT
ATOM      1  C   UNL     1       6.335  -5.299  24.211  0.00  0.00    +0.169 C 
ATOM      2  C   UNL     1       7.444  -5.007  23.168  0.00  0.00    +0.175 C 
ATOM      3  C   UNL     1       7.260  -3.620  22.492  0.00  0.00    +0.169 C 
ATOM      4  C   UNL     1       5.900  -3.568  21.747  0.00  0.00    +0.084 C 
ATOM      5  C   UNL     1       4.748  -3.894  22.713  0.00  0.00    +0.042 C 
ATOM      6  C   UNL     1       4.915  -5.172  23.562  0.00  0.00    +0.084 C 
ENDROOT
BRANCH   4   7
ATOM      7  N   UNL     1       5.918  -4.423  20.547  0.00  0.00    -0.325 NA
ATOM      8  H   UNL     1       5.378  -3.973  19.805  0.00  0.00    +0.119 HD
ATOM      9  H   UNL     1       6.870  -4.530  20.202  0.00  0.00    +0.119 HD
ENDBRANCH   4   7
BRANCH   6  10
ATOM     10  N   UNL     1       4.569  -6.373  22.777  0.00  0.00    -0.325 NA
ATOM     11  H   UNL     1       4.046  -7.039  23.340  0.00  0.00    +0.119 HD
ATOM     12  H   UNL     1       3.978  -6.103  21.987  0.00  0.00    +0.119 HD
ENDBRANCH   6  10
BRANCH   2  13
ATOM     13  O   UNL     1       7.473  -6.061  22.182  0.00  0.00    -0.387 OA
ATOM     14  H   UNL     1       8.408  -6.325  22.090  0.00  0.00    +0.210 HD
ENDBRANCH   2  13
BRANCH   1  15
ATOM     15  O   UNL     1       6.402  -4.482  25.403  0.00  0.00    -0.341 OA
BRANCH  15  21
ATOM     16  C   UNL     1       3.980  -5.133  27.107  0.00  0.00    +0.121 C 
ATOM     17  C   UNL     1       4.295  -4.072  28.220  0.00  0.00    +0.104 C 
ATOM     18  C   UNL     1       3.192  -3.024  28.390  0.00  0.00    +0.045 C 
ATOM     19  C   UNL     1       5.630  -3.358  27.923  0.00  0.00    +0.199 C 
ATOM     20  O   UNL     1       6.700  -4.288  27.744  0.00  0.00    -0.346 OA
ATOM     21  C   UNL     1       6.463  -5.195  26.652  0.00  0.00    +0.281 C 
ATOM     22  C   UNL     1       5.222  -6.064  26.998  0.00  0.00    +0.190 C 
BRANCH  16  24
ATOM     23  C   UNL     1       1.731  -5.898  26.364  0.00  0.00    +0.101 C 
ATOM     24  N   UNL     1       2.703  -5.810  27.428  0.00  0.00    -0.311 NA
ATOM     25  H   UNL     1       2.876  -6.701  27.893  0.00  0.00    +0.122 HD
ENDBRANCH  16  24
BRANCH  17  26
ATOM     26  O   UNL     1       4.408  -4.761  29.491  0.00  0.00    -0.385 OA
ATOM     27  H   UNL     1       4.800  -5.636  29.316  0.00  0.00    +0.210 HD
ENDBRANCH  17  26
BRANCH  22  28
ATOM     28  O   UNL     1       5.073  -7.146  26.078  0.00  0.00    -0.385 OA
ATOM     29  H   UNL     1       5.921  -7.620  26.062  0.00  0.00    +0.210 HD
ENDBRANCH  22  28
ENDBRANCH  15  21
ENDBRANCH   1  15
BRANCH   3  30
ATOM     30  O   UNL     1       7.478  -2.596  23.474  0.00  0.00    -0.342 OA
BRANCH  30  31
ATOM     31  C   UNL     1       8.822  -2.207  23.776  0.00  0.00    +0.268 C 
ATOM     32  C   UNL     1       9.026  -1.488  25.156  0.00  0.00    +0.107 C 
ATOM     33  C   UNL     1       8.431  -0.078  25.127  0.00  0.00    +0.026 C 
ATOM     34  C   UNL     1       8.976   0.687  23.930  0.00  0.00    +0.034 C 
ATOM     35  C   UNL     1       8.662  -0.094  22.654  0.00  0.00    +0.135 C 
ATOM     36  O   UNL     1       9.315  -1.369  22.709  0.00  0.00    -0.345 OA
BRANCH  32  37
ATOM     37  N   UNL     1       8.526  -2.185  26.350  0.00  0.00    -0.323 NA
ATOM     38  H   UNL     1       9.256  -2.801  26.708  0.00  0.00    +0.119 HD
ATOM     39  H   UNL     1       8.379  -1.508  27.096  0.00  0.00    +0.119 HD
ENDBRANCH  32  37
BRANCH  35  40
ATOM     40  C   UNL     1       9.114   0.666  21.391  0.00  0.00    +0.109 C 
BRANCH  40  41
ATOM     41  N   UNL     1       9.866   1.886  21.707  0.00  0.00    -0.328 NA
ATOM     42  H   UNL     1       9.836   2.041  22.714  0.00  0.00    +0.118 HD
ATOM     43  H   UNL     1      10.850   1.747  21.475  0.00  0.00    +0.118 HD
ENDBRANCH  40  41
ENDBRANCH  35  40
ENDBRANCH  30  31
ENDBRANCH   3  30
TORSDOF 13
ENDMDL
