MODEL 1
REMARK VINA RESULT:      -7.0      0.000      0.000
REMARK  Name = 
REMARK  10 active torsions:
REMARK  status: ('A' for Active; 'I' for Inactive)
REMARK    1  A    between atoms: C_1  and  O_2
REMARK    2  A    between atoms: O_2  and  C_3
REMARK    3  A    between atoms: C_3  and  C_5
REMARK    4  A    between atoms: C_6  and  C_7
REMARK    5  A    between atoms: C_9  and  O_10
REMARK    6  A    between atoms: O_10  and  C_11
REMARK    7  A    between atoms: C_12  and  O_13
REMARK    8  A    between atoms: C_14  and  O_15
REMARK    9  A    between atoms: C_17  and  C_18
REMARK   10  A    between atoms: C_21  and  O_22
REMARK                            x       y       z     vdW  Elec       q    Type
REMARK                         _______ _______ _______ _____ _____    ______ ____
ROOT
ATOM      1  C   UNL     1       9.340   0.167  22.794  0.00  0.00    +0.103 A 
ATOM      2  C   UNL     1       9.343  -0.927  21.912  0.00  0.00    +0.135 A 
ATOM      3  C   UNL     1       9.326  -2.235  22.391  0.00  0.00    +0.092 A 
ATOM      4  C   UNL     1       9.447  -2.469  23.760  0.00  0.00    +0.132 A 
ATOM      5  C   UNL     1       9.426  -1.397  24.653  0.00  0.00    +0.050 A 
ATOM      6  C   UNL     1       9.355  -0.067  24.188  0.00  0.00    -0.029 A 
ATOM      7  C   UNL     1       9.309   1.025  25.223  0.00  0.00    +0.045 C 
ENDROOT
BRANCH   1   8
ATOM      8  C   UNL     1       9.390   1.546  22.243  0.00  0.00    +0.343 C 
ATOM      9  O   UNL     1      10.355   2.287  22.335  0.00  0.00    -0.245 OA
BRANCH   8  11
ATOM     10  C   UNL     1       7.563   3.009  22.196  0.00  0.00    +0.280 C 
ATOM     11  O   UNL     1       8.197   1.845  21.671  0.00  0.00    -0.464 OA
ENDBRANCH   8  11
ENDBRANCH   1   8
BRANCH   2  12
ATOM     12  O   UNL     1       9.431  -0.734  20.558  0.00  0.00    -0.506 OA
ATOM     13  H   UNL     1       8.781  -0.067  20.277  0.00  0.00    +0.292 HD
ENDBRANCH   2  12
BRANCH   4  14
ATOM     14  O   UNL     1       9.585  -3.734  24.293  0.00  0.00    -0.452 OA
BRANCH  14  15
ATOM     15  C   UNL     1       8.462  -4.371  24.791  0.00  0.00    +0.174 A 
ATOM     16  C   UNL     1       7.264  -4.528  24.081  0.00  0.00    +0.053 A 
ATOM     17  C   UNL     1       6.132  -5.094  24.689  0.00  0.00    -0.043 A 
ATOM     18  C   UNL     1       4.822  -5.082  23.960  0.00  0.00    +0.044 C 
ATOM     19  C   UNL     1       6.242  -5.611  25.985  0.00  0.00    +0.052 A 
ATOM     20  C   UNL     1       7.455  -5.534  26.657  0.00  0.00    +0.162 A 
ATOM     21  C   UNL     1       8.555  -4.907  26.074  0.00  0.00    +0.201 A 
BRANCH  20  22
ATOM     22  O   UNL     1       7.554  -6.069  27.908  0.00  0.00    -0.503 OA
ATOM     23  H   UNL     1       7.673  -5.299  28.499  0.00  0.00    +0.292 HD
ENDBRANCH  20  22
BRANCH  21  24
ATOM     24  O   UNL     1       9.706  -4.823  26.816  0.00  0.00    -0.501 OA
ATOM     25  H   UNL     1       9.428  -4.587  27.722  0.00  0.00    +0.292 HD
ENDBRANCH  21  24
ENDBRANCH  14  15
ENDBRANCH   4  14
TORSDOF 7
ENDMDL
MODEL 2
REMARK VINA RESULT:      -6.8      1.187      1.960
REMARK  Name = 
REMARK  10 active torsions:
REMARK  status: ('A' for Active; 'I' for Inactive)
REMARK    1  A    between atoms: C_1  and  O_2
REMARK    2  A    between atoms: O_2  and  C_3
REMARK    3  A    between atoms: C_3  and  C_5
REMARK    4  A    between atoms: C_6  and  C_7
REMARK    5  A    between atoms: C_9  and  O_10
REMARK    6  A    between atoms: O_10  and  C_11
REMARK    7  A    between atoms: C_12  and  O_13
REMARK    8  A    between atoms: C_14  and  O_15
REMARK    9  A    between atoms: C_17  and  C_18
REMARK   10  A    between atoms: C_21  and  O_22
REMARK                            x       y       z     vdW  Elec       q    Type
REMARK                         _______ _______ _______ _____ _____    ______ ____
ROOT
ATOM      1  C   UNL     1       9.202   0.374  23.694  0.00  0.00    +0.103 A 
ATOM      2  C   UNL     1       9.211  -0.147  24.999  0.00  0.00    +0.135 A 
ATOM      3  C   UNL     1       9.417  -1.506  25.227  0.00  0.00    +0.092 A 
ATOM      4  C   UNL     1       9.477  -2.385  24.147  0.00  0.00    +0.132 A 
ATOM      5  C   UNL     1       9.489  -1.886  22.844  0.00  0.00    +0.050 A 
ATOM      6  C   UNL     1       9.370  -0.501  22.597  0.00  0.00    -0.029 A 
ATOM      7  C   UNL     1       9.421  -0.049  21.162  0.00  0.00    +0.045 C 
ENDROOT
BRANCH   1   8
ATOM      8  C   UNL     1       8.949   1.824  23.492  0.00  0.00    +0.343 C 
ATOM      9  O   UNL     1       9.819   2.646  23.257  0.00  0.00    -0.245 OA
BRANCH   8  11
ATOM     10  C   UNL     1       6.940   2.414  22.445  0.00  0.00    +0.280 C 
ATOM     11  O   UNL     1       7.625   2.076  23.648  0.00  0.00    -0.464 OA
ENDBRANCH   8  11
ENDBRANCH   1   8
BRANCH   2  12
ATOM     12  O   UNL     1       8.951   0.659  26.076  0.00  0.00    -0.506 OA
ATOM     13  H   UNL     1       9.767   1.102  26.361  0.00  0.00    +0.292 HD
ENDBRANCH   2  12
BRANCH   4  14
ATOM     14  O   UNL     1       9.531  -3.755  24.299  0.00  0.00    -0.452 OA
BRANCH  14  15
ATOM     15  C   UNL     1       8.417  -4.413  24.792  0.00  0.00    +0.174 A 
ATOM     16  C   UNL     1       7.225  -4.590  24.078  0.00  0.00    +0.053 A 
ATOM     17  C   UNL     1       6.101  -5.177  24.682  0.00  0.00    -0.043 A 
ATOM     18  C   UNL     1       4.793  -5.187  23.949  0.00  0.00    +0.044 C 
ATOM     19  C   UNL     1       6.216  -5.694  25.978  0.00  0.00    +0.052 A 
ATOM     20  C   UNL     1       7.426  -5.597  26.653  0.00  0.00    +0.162 A 
ATOM     21  C   UNL     1       8.517  -4.949  26.075  0.00  0.00    +0.201 A 
BRANCH  20  22
ATOM     22  O   UNL     1       7.531  -6.131  27.904  0.00  0.00    -0.503 OA
ATOM     23  H   UNL     1       7.092  -7.003  27.840  0.00  0.00    +0.292 HD
ENDBRANCH  20  22
BRANCH  21  24
ATOM     24  O   UNL     1       9.663  -4.846  26.821  0.00  0.00    -0.501 OA
ATOM     25  H   UNL     1       9.816  -3.891  26.953  0.00  0.00    +0.292 HD
ENDBRANCH  21  24
ENDBRANCH  14  15
ENDBRANCH   4  14
TORSDOF 7
ENDMDL
MODEL 3
REMARK VINA RESULT:      -6.6      2.016      7.015
REMARK  Name = 
REMARK  10 active torsions:
REMARK  status: ('A' for Active; 'I' for Inactive)
REMARK    1  A    between atoms: C_1  and  O_2
REMARK    2  A    between atoms: O_2  and  C_3
REMARK    3  A    between atoms: C_3  and  C_5
REMARK    4  A    between atoms: C_6  and  C_7
REMARK    5  A    between atoms: C_9  and  O_10
REMARK    6  A    between atoms: O_10  and  C_11
REMARK    7  A    between atoms: C_12  and  O_13
REMARK    8  A    between atoms: C_14  and  O_15
REMARK    9  A    between atoms: C_17  and  C_18
REMARK   10  A    between atoms: C_21  and  O_22
REMARK                            x       y       z     vdW  Elec       q    Type
REMARK                         _______ _______ _______ _____ _____    ______ ____
ROOT
ATOM      1  C   UNL     1       7.889  -3.630  23.606  0.00  0.00    +0.103 A 
ATOM      2  C   UNL     1       9.175  -3.395  24.123  0.00  0.00    +0.135 A 
ATOM      3  C   UNL     1       9.760  -2.133  24.044  0.00  0.00    +0.092 A 
ATOM      4  C   UNL     1       9.126  -1.123  23.322  0.00  0.00    +0.132 A 
ATOM      5  C   UNL     1       7.842  -1.330  22.818  0.00  0.00    +0.050 A 
ATOM      6  C   UNL     1       7.197  -2.577  22.966  0.00  0.00    -0.029 A 
ATOM      7  C   UNL     1       5.801  -2.702  22.416  0.00  0.00    +0.045 C 
ENDROOT
BRANCH   1   8
ATOM      8  C   UNL     1       7.313  -4.997  23.682  0.00  0.00    +0.343 C 
ATOM      9  O   UNL     1       6.562  -5.376  24.565  0.00  0.00    -0.245 OA
BRANCH   8  11
ATOM     10  C   UNL     1       6.789  -6.180  21.732  0.00  0.00    +0.280 C 
ATOM     11  O   UNL     1       7.785  -5.743  22.652  0.00  0.00    -0.464 OA
ENDBRANCH   8  11
ENDBRANCH   1   8
BRANCH   2  12
ATOM     12  O   UNL     1       9.911  -4.419  24.658  0.00  0.00    -0.506 OA
ATOM     13  H   UNL     1      10.457  -4.829  23.966  0.00  0.00    +0.292 HD
ENDBRANCH   2  12
BRANCH   4  14
ATOM     14  O   UNL     1       9.712   0.102  23.077  0.00  0.00    -0.452 OA
BRANCH  14  15
ATOM     15  C   UNL     1       9.080   1.244  23.539  0.00  0.00    +0.174 A 
ATOM     16  C   UNL     1       8.633   1.421  24.855  0.00  0.00    +0.053 A 
ATOM     17  C   UNL     1       7.908   2.566  25.224  0.00  0.00    -0.043 A 
ATOM     18  C   UNL     1       7.293   2.639  26.590  0.00  0.00    +0.044 C 
ATOM     19  C   UNL     1       7.732   3.592  24.288  0.00  0.00    +0.052 A 
ATOM     20  C   UNL     1       8.251   3.453  23.008  0.00  0.00    +0.162 A 
ATOM     21  C   UNL     1       8.908   2.284  22.627  0.00  0.00    +0.201 A 
BRANCH  20  22
ATOM     22  O   UNL     1       8.096   4.473  22.116  0.00  0.00    -0.503 OA
ATOM     23  H   UNL     1       7.705   4.055  21.323  0.00  0.00    +0.292 HD
ENDBRANCH  20  22
BRANCH  21  24
ATOM     24  O   UNL     1       9.350   2.197  21.331  0.00  0.00    -0.501 OA
ATOM     25  H   UNL     1       8.581   1.914  20.801  0.00  0.00    +0.292 HD
ENDBRANCH  21  24
ENDBRANCH  14  15
ENDBRANCH   4  14
TORSDOF 7
ENDMDL
MODEL 4
REMARK VINA RESULT:      -6.4      2.374      6.715
REMARK  Name = 
REMARK  10 active torsions:
REMARK  status: ('A' for Active; 'I' for Inactive)
REMARK    1  A    between atoms: C_1  and  O_2
REMARK    2  A    between atoms: O_2  and  C_3
REMARK    3  A    between atoms: C_3  and  C_5
REMARK    4  A    between atoms: C_6  and  C_7
REMARK    5  A    between atoms: C_9  and  O_10
REMARK    6  A    between atoms: O_10  and  C_11
REMARK    7  A    between atoms: C_12  and  O_13
REMARK    8  A    between atoms: C_14  and  O_15
REMARK    9  A    between atoms: C_17  and  C_18
REMARK   10  A    between atoms: C_21  and  O_22
REMARK                            x       y       z     vdW  Elec       q    Type
REMARK                         _______ _______ _______ _____ _____    ______ ____
ROOT
ATOM      1  C   UNL     1       5.910  -5.334  23.616  0.00  0.00    +0.103 A 
ATOM      2  C   UNL     1       6.437  -4.781  22.437  0.00  0.00    +0.135 A 
ATOM      3  C   UNL     1       7.635  -4.069  22.452  0.00  0.00    +0.092 A 
ATOM      4  C   UNL     1       8.250  -3.780  23.669  0.00  0.00    +0.132 A 
ATOM      5  C   UNL     1       7.754  -4.336  24.848  0.00  0.00    +0.050 A 
ATOM      6  C   UNL     1       6.589  -5.134  24.840  0.00  0.00    -0.029 A 
ATOM      7  C   UNL     1       6.141  -5.716  26.154  0.00  0.00    +0.045 C 
ENDROOT
BRANCH   1   8
ATOM      8  C   UNL     1       4.615  -6.060  23.563  0.00  0.00    +0.343 C 
ATOM      9  O   UNL     1       4.460  -7.214  23.928  0.00  0.00    -0.245 OA
BRANCH   8  11
ATOM     10  C   UNL     1       2.337  -5.746  23.128  0.00  0.00    +0.280 C 
ATOM     11  O   UNL     1       3.670  -5.255  23.017  0.00  0.00    -0.464 OA
ENDBRANCH   8  11
ENDBRANCH   1   8
BRANCH   2  12
ATOM     12  O   UNL     1       5.751  -4.871  21.254  0.00  0.00    -0.506 OA
ATOM     13  H   UNL     1       4.870  -5.249  21.413  0.00  0.00    +0.292 HD
ENDBRANCH   2  12
BRANCH   4  14
ATOM     14  O   UNL     1       9.354  -2.958  23.773  0.00  0.00    -0.452 OA
BRANCH  14  15
ATOM     15  C   UNL     1       9.163  -1.587  23.773  0.00  0.00    +0.174 A 
ATOM     16  C   UNL     1       8.646  -0.863  24.855  0.00  0.00    +0.053 A 
ATOM     17  C   UNL     1       8.384   0.513  24.745  0.00  0.00    -0.043 A 
ATOM     18  C   UNL     1       7.667   1.217  25.858  0.00  0.00    +0.044 C 
ATOM     19  C   UNL     1       8.753   1.185  23.574  0.00  0.00    +0.052 A 
ATOM     20  C   UNL     1       9.347   0.481  22.534  0.00  0.00    +0.162 A 
ATOM     21  C   UNL     1       9.539  -0.897  22.622  0.00  0.00    +0.201 A 
BRANCH  20  22
ATOM     22  O   UNL     1       9.727   1.155  21.410  0.00  0.00    -0.503 OA
ATOM     23  H   UNL     1       9.120   1.920  21.361  0.00  0.00    +0.292 HD
ENDBRANCH  20  22
BRANCH  21  24
ATOM     24  O   UNL     1      10.083  -1.533  21.536  0.00  0.00    -0.501 OA
ATOM     25  H   UNL     1      11.030  -1.295  21.529  0.00  0.00    +0.292 HD
ENDBRANCH  21  24
ENDBRANCH  14  15
ENDBRANCH   4  14
TORSDOF 7
ENDMDL
MODEL 5
REMARK VINA RESULT:      -6.4      2.066      3.266
REMARK  Name = 
REMARK  10 active torsions:
REMARK  status: ('A' for Active; 'I' for Inactive)
REMARK    1  A    between atoms: C_1  and  O_2
REMARK    2  A    between atoms: O_2  and  C_3
REMARK    3  A    between atoms: C_3  and  C_5
REMARK    4  A    between atoms: C_6  and  C_7
REMARK    5  A    between atoms: C_9  and  O_10
REMARK    6  A    between atoms: O_10  and  C_11
REMARK    7  A    between atoms: C_12  and  O_13
REMARK    8  A    between atoms: C_14  and  O_15
REMARK    9  A    between atoms: C_17  and  C_18
REMARK   10  A    between atoms: C_21  and  O_22
REMARK                            x       y       z     vdW  Elec       q    Type
REMARK                         _______ _______ _______ _____ _____    ______ ____
ROOT
ATOM      1  C   UNL     1       9.267  -0.152  24.107  0.00  0.00    +0.103 A 
ATOM      2  C   UNL     1       9.182  -0.926  25.277  0.00  0.00    +0.135 A 
ATOM      3  C   UNL     1       9.147  -2.318  25.215  0.00  0.00    +0.092 A 
ATOM      4  C   UNL     1       9.054  -2.950  23.976  0.00  0.00    +0.132 A 
ATOM      5  C   UNL     1       9.156  -2.201  22.803  0.00  0.00    +0.050 A 
ATOM      6  C   UNL     1       9.281  -0.796  22.849  0.00  0.00    -0.029 A 
ATOM      7  C   UNL     1       9.414  -0.071  21.536  0.00  0.00    +0.045 C 
ENDROOT
BRANCH   1   8
ATOM      8  C   UNL     1       9.272   1.330  24.215  0.00  0.00    +0.343 C 
ATOM      9  O   UNL     1       8.267   2.012  24.330  0.00  0.00    -0.245 OA
BRANCH   8  11
ATOM     10  C   UNL     1      10.693   3.004  23.405  0.00  0.00    +0.280 C 
ATOM     11  O   UNL     1      10.547   1.784  24.126  0.00  0.00    -0.464 OA
ENDBRANCH   8  11
ENDBRANCH   1   8
BRANCH   2  12
ATOM     12  O   UNL     1       9.064  -0.329  26.504  0.00  0.00    -0.506 OA
ATOM     13  H   UNL     1       9.838   0.236  26.672  0.00  0.00    +0.292 HD
ENDBRANCH   2  12
BRANCH   4  14
ATOM     14  O   UNL     1       8.867  -4.311  23.842  0.00  0.00    -0.452 OA
BRANCH  14  15
ATOM     15  C   UNL     1       7.617  -4.839  24.116  0.00  0.00    +0.174 A 
ATOM     16  C   UNL     1       7.115  -5.050  25.407  0.00  0.00    +0.053 A 
ATOM     17  C   UNL     1       5.880  -5.687  25.607  0.00  0.00    -0.043 A 
ATOM     18  C   UNL     1       5.458  -6.055  26.998  0.00  0.00    +0.044 C 
ATOM     19  C   UNL     1       5.092  -6.010  24.496  0.00  0.00    +0.052 A 
ATOM     20  C   UNL     1       5.552  -5.721  23.218  0.00  0.00    +0.162 A 
ATOM     21  C   UNL     1       6.811  -5.153  23.023  0.00  0.00    +0.201 A 
BRANCH  20  22
ATOM     22  O   UNL     1       4.761  -6.015  22.146  0.00  0.00    -0.503 OA
ATOM     23  H   UNL     1       4.487  -5.146  21.792  0.00  0.00    +0.292 HD
ENDBRANCH  20  22
BRANCH  21  24
ATOM     24  O   UNL     1       7.220  -4.943  21.731  0.00  0.00    -0.501 OA
ATOM     25  H   UNL     1       7.081  -3.993  21.554  0.00  0.00    +0.292 HD
ENDBRANCH  21  24
ENDBRANCH  14  15
ENDBRANCH   4  14
TORSDOF 7
ENDMDL
MODEL 6
REMARK VINA RESULT:      -6.3      2.741      6.631
REMARK  Name = 
REMARK  10 active torsions:
REMARK  status: ('A' for Active; 'I' for Inactive)
REMARK    1  A    between atoms: C_1  and  O_2
REMARK    2  A    between atoms: O_2  and  C_3
REMARK    3  A    between atoms: C_3  and  C_5
REMARK    4  A    between atoms: C_6  and  C_7
REMARK    5  A    between atoms: C_9  and  O_10
REMARK    6  A    between atoms: O_10  and  C_11
REMARK    7  A    between atoms: C_12  and  O_13
REMARK    8  A    between atoms: C_14  and  O_15
REMARK    9  A    between atoms: C_17  and  C_18
REMARK   10  A    between atoms: C_21  and  O_22
REMARK                            x       y       z     vdW  Elec       q    Type
REMARK                         _______ _______ _______ _____ _____    ______ ____
ROOT
ATOM      1  C   UNL     1       5.164  -6.031  23.789  0.00  0.00    +0.103 A 
ATOM      2  C   UNL     1       5.947  -5.839  22.638  0.00  0.00    +0.135 A 
ATOM      3  C   UNL     1       7.245  -5.342  22.728  0.00  0.00    +0.092 A 
ATOM      4  C   UNL     1       7.729  -4.897  23.957  0.00  0.00    +0.132 A 
ATOM      5  C   UNL     1       6.975  -5.096  25.115  0.00  0.00    +0.050 A 
ATOM      6  C   UNL     1       5.692  -5.681  25.052  0.00  0.00    -0.029 A 
ATOM      7  C   UNL     1       4.961  -5.883  26.353  0.00  0.00    +0.045 C 
ENDROOT
BRANCH   1   8
ATOM      8  C   UNL     1       3.774  -6.535  23.647  0.00  0.00    +0.343 C 
ATOM      9  O   UNL     1       3.392  -7.618  24.057  0.00  0.00    -0.245 OA
BRANCH   8  11
ATOM     10  C   UNL     1       1.654  -5.964  22.834  0.00  0.00    +0.280 C 
ATOM     11  O   UNL     1       3.032  -5.626  22.965  0.00  0.00    -0.464 OA
ENDBRANCH   8  11
ENDBRANCH   1   8
BRANCH   2  12
ATOM     12  O   UNL     1       5.428  -6.074  21.391  0.00  0.00    -0.506 OA
ATOM     13  H   UNL     1       4.569  -5.626  21.302  0.00  0.00    +0.292 HD
ENDBRANCH   2  12
BRANCH   4  14
ATOM     14  O   UNL     1       8.944  -4.259  24.097  0.00  0.00    -0.452 OA
BRANCH  14  15
ATOM     15  C   UNL     1       8.988  -2.881  23.980  0.00  0.00    +0.174 A 
ATOM     16  C   UNL     1       9.039  -2.193  22.760  0.00  0.00    +0.053 A 
ATOM     17  C   UNL     1       9.186  -0.797  22.723  0.00  0.00    -0.043 A 
ATOM     18  C   UNL     1       9.417  -0.117  21.407  0.00  0.00    +0.044 C 
ATOM     19  C   UNL     1       9.166  -0.078  23.923  0.00  0.00    +0.052 A 
ATOM     20  C   UNL     1       9.028  -0.753  25.129  0.00  0.00    +0.162 A 
ATOM     21  C   UNL     1       8.954  -2.145  25.164  0.00  0.00    +0.201 A 
BRANCH  20  22
ATOM     22  O   UNL     1       8.981  -0.035  26.289  0.00  0.00    -0.503 OA
ATOM     23  H   UNL     1       9.755   0.561  26.244  0.00  0.00    +0.292 HD
ENDBRANCH  20  22
BRANCH  21  24
ATOM     24  O   UNL     1       8.869  -2.746  26.393  0.00  0.00    -0.501 OA
ATOM     25  H   UNL     1       9.787  -2.939  26.664  0.00  0.00    +0.292 HD
ENDBRANCH  21  24
ENDBRANCH  14  15
ENDBRANCH   4  14
TORSDOF 7
ENDMDL
MODEL 7
REMARK VINA RESULT:      -6.2      1.507      7.182
REMARK  Name = 
REMARK  10 active torsions:
REMARK  status: ('A' for Active; 'I' for Inactive)
REMARK    1  A    between atoms: C_1  and  O_2
REMARK    2  A    between atoms: O_2  and  C_3
REMARK    3  A    between atoms: C_3  and  C_5
REMARK    4  A    between atoms: C_6  and  C_7
REMARK    5  A    between atoms: C_9  and  O_10
REMARK    6  A    between atoms: O_10  and  C_11
REMARK    7  A    between atoms: C_12  and  O_13
REMARK    8  A    between atoms: C_14  and  O_15
REMARK    9  A    between atoms: C_17  and  C_18
REMARK   10  A    between atoms: C_21  and  O_22
REMARK                            x       y       z     vdW  Elec       q    Type
REMARK                         _______ _______ _______ _____ _____    ______ ____
ROOT
ATOM      1  C   UNL     1       6.391  -5.166  25.613  0.00  0.00    +0.103 A 
ATOM      2  C   UNL     1       7.654  -5.148  26.231  0.00  0.00    +0.135 A 
ATOM      3  C   UNL     1       8.661  -4.297  25.780  0.00  0.00    +0.092 A 
ATOM      4  C   UNL     1       8.466  -3.555  24.616  0.00  0.00    +0.132 A 
ATOM      5  C   UNL     1       7.215  -3.543  23.999  0.00  0.00    +0.050 A 
ATOM      6  C   UNL     1       6.155  -4.332  24.496  0.00  0.00    -0.029 A 
ATOM      7  C   UNL     1       4.831  -4.237  23.785  0.00  0.00    +0.045 C 
ENDROOT
BRANCH   1   8
ATOM      8  C   UNL     1       5.354  -6.108  26.105  0.00  0.00    +0.343 C 
ATOM      9  O   UNL     1       4.920  -7.048  25.459  0.00  0.00    -0.245 OA
BRANCH   8  11
ATOM     10  C   UNL     1       4.717  -6.811  28.245  0.00  0.00    +0.280 C 
ATOM     11  O   UNL     1       4.955  -5.731  27.345  0.00  0.00    -0.464 OA
ENDBRANCH   8  11
ENDBRANCH   1   8
BRANCH   2  12
ATOM     12  O   UNL     1       7.946  -6.015  27.250  0.00  0.00    -0.506 OA
ATOM     13  H   UNL     1       8.303  -5.524  28.009  0.00  0.00    +0.292 HD
ENDBRANCH   2  12
BRANCH   4  14
ATOM     14  O   UNL     1       9.467  -2.807  24.030  0.00  0.00    -0.452 OA
BRANCH  14  15
ATOM     15  C   UNL     1       9.311  -1.434  23.950  0.00  0.00    +0.174 A 
ATOM     16  C   UNL     1       8.799  -0.638  24.983  0.00  0.00    +0.053 A 
ATOM     17  C   UNL     1       8.572   0.735  24.792  0.00  0.00    -0.043 A 
ATOM     18  C   UNL     1       7.859   1.518  25.855  0.00  0.00    +0.044 C 
ATOM     19  C   UNL     1       8.972   1.331  23.591  0.00  0.00    +0.052 A 
ATOM     20  C   UNL     1       9.560   0.556  22.600  0.00  0.00    +0.162 A 
ATOM     21  C   UNL     1       9.717  -0.819  22.768  0.00  0.00    +0.201 A 
BRANCH  20  22
ATOM     22  O   UNL     1       9.971   1.157  21.446  0.00  0.00    -0.503 OA
ATOM     23  H   UNL     1      10.919   1.349  21.589  0.00  0.00    +0.292 HD
ENDBRANCH  20  22
BRANCH  21  24
ATOM     24  O   UNL     1      10.259  -1.529  21.726  0.00  0.00    -0.501 OA
ATOM     25  H   UNL     1      10.921  -2.127  22.122  0.00  0.00    +0.292 HD
ENDBRANCH  21  24
ENDBRANCH  14  15
ENDBRANCH   4  14
TORSDOF 7
ENDMDL
MODEL 8
REMARK VINA RESULT:      -6.1      1.697      2.393
REMARK  Name = 
REMARK  10 active torsions:
REMARK  status: ('A' for Active; 'I' for Inactive)
REMARK    1  A    between atoms: C_1  and  O_2
REMARK    2  A    between atoms: O_2  and  C_3
REMARK    3  A    between atoms: C_3  and  C_5
REMARK    4  A    between atoms: C_6  and  C_7
REMARK    5  A    between atoms: C_9  and  O_10
REMARK    6  A    between atoms: O_10  and  C_11
REMARK    7  A    between atoms: C_12  and  O_13
REMARK    8  A    between atoms: C_14  and  O_15
REMARK    9  A    between atoms: C_17  and  C_18
REMARK   10  A    between atoms: C_21  and  O_22
REMARK                            x       y       z     vdW  Elec       q    Type
REMARK                         _______ _______ _______ _____ _____    ______ ____
ROOT
ATOM      1  C   UNL     1       8.117   1.573  22.797  0.00  0.00    +0.103 A 
ATOM      2  C   UNL     1       9.148   1.064  21.988  0.00  0.00    +0.135 A 
ATOM      3  C   UNL     1       9.226  -0.297  21.698  0.00  0.00    +0.092 A 
ATOM      4  C   UNL     1       8.356  -1.187  22.327  0.00  0.00    +0.132 A 
ATOM      5  C   UNL     1       7.315  -0.700  23.118  0.00  0.00    +0.050 A 
ATOM      6  C   UNL     1       7.168   0.684  23.351  0.00  0.00    -0.029 A 
ATOM      7  C   UNL     1       5.999   1.123  24.193  0.00  0.00    +0.045 C 
ENDROOT
BRANCH   1   8
ATOM      8  C   UNL     1       8.087   3.025  23.107  0.00  0.00    +0.343 C 
ATOM      9  O   UNL     1       7.396   3.839  22.516  0.00  0.00    -0.245 OA
BRANCH   8  11
ATOM     10  C   UNL     1       9.721   4.486  23.928  0.00  0.00    +0.280 C 
ATOM     11  O   UNL     1       8.966   3.291  24.106  0.00  0.00    -0.464 OA
ENDBRANCH   8  11
ENDBRANCH   1   8
BRANCH   2  12
ATOM     12  O   UNL     1      10.140   1.884  21.520  0.00  0.00    -0.506 OA
ATOM     13  H   UNL     1      10.618   1.445  20.797  0.00  0.00    +0.292 HD
ENDBRANCH   2  12
BRANCH   4  14
ATOM     14  O   UNL     1       8.469  -2.556  22.203  0.00  0.00    -0.452 OA
BRANCH  14  15
ATOM     15  C   UNL     1       8.014  -3.356  23.237  0.00  0.00    +0.174 A 
ATOM     16  C   UNL     1       6.696  -3.816  23.358  0.00  0.00    +0.053 A 
ATOM     17  C   UNL     1       6.284  -4.538  24.490  0.00  0.00    -0.043 A 
ATOM     18  C   UNL     1       4.830  -4.859  24.668  0.00  0.00    +0.044 C 
ATOM     19  C   UNL     1       7.234  -4.898  25.452  0.00  0.00    +0.052 A 
ATOM     20  C   UNL     1       8.559  -4.515  25.288  0.00  0.00    +0.162 A 
ATOM     21  C   UNL     1       8.949  -3.738  24.199  0.00  0.00    +0.201 A 
BRANCH  20  22
ATOM     22  O   UNL     1       9.479  -4.898  26.221  0.00  0.00    -0.503 OA
ATOM     23  H   UNL     1      10.036  -4.106  26.361  0.00  0.00    +0.292 HD
ENDBRANCH  20  22
BRANCH  21  24
ATOM     24  O   UNL     1      10.264  -3.355  24.129  0.00  0.00    -0.501 OA
ATOM     25  H   UNL     1      10.758  -4.139  23.822  0.00  0.00    +0.292 HD
ENDBRANCH  21  24
ENDBRANCH  14  15
ENDBRANCH   4  14
TORSDOF 7
ENDMDL
MODEL 9
REMARK VINA RESULT:      -6.0      2.459      3.146
REMARK  Name = 
REMARK  10 active torsions:
REMARK  status: ('A' for Active; 'I' for Inactive)
REMARK    1  A    between atoms: C_1  and  O_2
REMARK    2  A    between atoms: O_2  and  C_3
REMARK    3  A    between atoms: C_3  and  C_5
REMARK    4  A    between atoms: C_6  and  C_7
REMARK    5  A    between atoms: C_9  and  O_10
REMARK    6  A    between atoms: O_10  and  C_11
REMARK    7  A    between atoms: C_12  and  O_13
REMARK    8  A    between atoms: C_14  and  O_15
REMARK    9  A    between atoms: C_17  and  C_18
REMARK   10  A    between atoms: C_21  and  O_22
REMARK                            x       y       z     vdW  Elec       q    Type
REMARK                         _______ _______ _______ _____ _____    ______ ____
ROOT
ATOM      1  C   UNL     1       8.971  -0.488  23.472  0.00  0.00    +0.103 A 
ATOM      2  C   UNL     1       9.283  -1.707  22.847  0.00  0.00    +0.135 A 
ATOM      3  C   UNL     1       8.286  -2.628  22.531  0.00  0.00    +0.092 A 
ATOM      4  C   UNL     1       6.980  -2.404  22.964  0.00  0.00    +0.132 A 
ATOM      5  C   UNL     1       6.645  -1.192  23.569  0.00  0.00    +0.050 A 
ATOM      6  C   UNL     1       7.628  -0.210  23.816  0.00  0.00    -0.029 A 
ATOM      7  C   UNL     1       7.173   1.079  24.447  0.00  0.00    +0.045 C 
ENDROOT
BRANCH   1   8
ATOM      8  C   UNL     1      10.067   0.453  23.819  0.00  0.00    +0.343 C 
ATOM      9  O   UNL     1      10.744   0.375  24.830  0.00  0.00    -0.245 OA
BRANCH   8  11
ATOM     10  C   UNL     1      10.472   2.712  23.356  0.00  0.00    +0.280 C 
ATOM     11  O   UNL     1      10.155   1.413  22.863  0.00  0.00    -0.464 OA
ENDBRANCH   8  11
ENDBRANCH   1   8
BRANCH   2  12
ATOM     12  O   UNL     1      10.586  -2.049  22.593  0.00  0.00    -0.506 OA
ATOM     13  H   UNL     1      10.627  -2.640  21.822  0.00  0.00    +0.292 HD
ENDBRANCH   2  12
BRANCH   4  14
ATOM     14  O   UNL     1       5.974  -3.337  22.818  0.00  0.00    -0.452 OA
BRANCH  14  15
ATOM     15  C   UNL     1       5.803  -4.290  23.807  0.00  0.00    +0.174 A 
ATOM     16  C   UNL     1       6.305  -4.173  25.110  0.00  0.00    +0.053 A 
ATOM     17  C   UNL     1       6.181  -5.227  26.030  0.00  0.00    -0.043 A 
ATOM     18  C   UNL     1       6.884  -5.138  27.351  0.00  0.00    +0.044 C 
ATOM     19  C   UNL     1       5.446  -6.362  25.670  0.00  0.00    +0.052 A 
ATOM     20  C   UNL     1       4.874  -6.441  24.406  0.00  0.00    +0.162 A 
ATOM     21  C   UNL     1       5.061  -5.421  23.474  0.00  0.00    +0.201 A 
BRANCH  20  22
ATOM     22  O   UNL     1       4.136  -7.541  24.080  0.00  0.00    -0.503 OA
ATOM     23  H   UNL     1       4.760  -8.130  23.612  0.00  0.00    +0.292 HD
ENDBRANCH  20  22
BRANCH  21  24
ATOM     24  O   UNL     1       4.509  -5.590  22.229  0.00  0.00    -0.501 OA
ATOM     25  H   UNL     1       3.610  -5.942  22.376  0.00  0.00    +0.292 HD
ENDBRANCH  21  24
ENDBRANCH  14  15
ENDBRANCH   4  14
TORSDOF 7
ENDMDL
