MODEL 1
REMARK VINA RESULT:      -5.7      0.000      0.000
REMARK  Name = 
REMARK  10 active torsions:
REMARK  status: ('A' for Active; 'I' for Inactive)
REMARK    1  A    between atoms: C_2  and  C_3
REMARK    2  A    between atoms: C_2  and  O_4
REMARK    3  A    between atoms: C_2  and  C_8
REMARK    4  A    between atoms: O_4  and  C_5
REMARK    5  A    between atoms: C_5  and  C_6
REMARK    6  A    between atoms: C_13  and  C_18
REMARK    7  A    between atoms: C_18  and  O_20
REMARK    8  A    between atoms: O_20  and  C_21
REMARK    9  A    between atoms: C_21  and  C_22
REMARK   10  A    between atoms: C_22  and  C_23
REMARK                            x       y       z     vdW  Elec       q    Type
REMARK                         _______ _______ _______ _____ _____    ______ ____
ROOT
ATOM      1  C   UNL     1       9.661   1.242  24.382  0.00  0.00    +0.147 C 
ATOM      2  C   UNL     1      10.348   0.461  23.234  0.00  0.00    +0.159 C 
ATOM      3  N   UNL     1      10.209  -0.762  24.058  0.00  0.00    -0.251 N 
ATOM      4  C   UNL     1       9.602  -1.805  23.381  0.00  0.00    +0.128 C 
ATOM      5  C   UNL     1       9.155  -1.529  22.149  0.00  0.00    +0.073 C 
ATOM      6  S   UNL     1       9.425   0.122  21.684  0.00  0.00    -0.107 S 
ATOM      7  C   UNL     1       9.514  -0.132  25.054  0.00  0.00    +0.230 C 
ATOM      8  O   UNL     1       8.911  -0.564  26.009  0.00  0.00    -0.275 OA
ENDROOT
BRANCH   1   9
ATOM      9  C   UNL     1       8.369   2.020  24.153  0.00  0.00    +0.188 C 
ATOM     10  C   UNL     1       7.875   2.628  25.467  0.00  0.00    +0.053 C 
BRANCH   9  11
ATOM     11  O   UNL     1       8.687   3.083  23.229  0.00  0.00    -0.461 OA
BRANCH  11  12
ATOM     12  C   UNL     1       7.661   3.548  22.464  0.00  0.00    +0.304 C 
ATOM     13  O   UNL     1       6.928   2.861  21.768  0.00  0.00    -0.251 OA
ATOM     14  C   UNL     1       7.563   5.041  22.566  0.00  0.00    +0.136 C 
ENDBRANCH  11  12
ENDBRANCH   9  11
ENDBRANCH   1   9
BRANCH   4  15
ATOM     15  C   UNL     1       9.290  -3.100  24.046  0.00  0.00    +0.354 C 
ATOM     16  O   UNL     1      10.135  -3.906  24.398  0.00  0.00    -0.244 OA
BRANCH  15  17
ATOM     17  O   UNL     1       7.945  -3.248  24.140  0.00  0.00    -0.460 OA
BRANCH  17  18
ATOM     18  C   UNL     1       7.425  -4.540  23.797  0.00  0.00    +0.232 C 
BRANCH  18  19
ATOM     19  C   UNL     1       7.016  -4.581  22.333  0.00  0.00    +0.038 C 
ATOM     20  C   UNL     1       7.100  -5.998  21.788  0.00  0.00    +0.007 C 
ENDBRANCH  18  19
ENDBRANCH  17  18
ENDBRANCH  15  17
ENDBRANCH   4  15
TORSDOF 7
ENDMDL
MODEL 2
REMARK VINA RESULT:      -5.5      0.837      1.380
REMARK  Name = 
REMARK  10 active torsions:
REMARK  status: ('A' for Active; 'I' for Inactive)
REMARK    1  A    between atoms: C_2  and  C_3
REMARK    2  A    between atoms: C_2  and  O_4
REMARK    3  A    between atoms: C_2  and  C_8
REMARK    4  A    between atoms: O_4  and  C_5
REMARK    5  A    between atoms: C_5  and  C_6
REMARK    6  A    between atoms: C_13  and  C_18
REMARK    7  A    between atoms: C_18  and  O_20
REMARK    8  A    between atoms: O_20  and  C_21
REMARK    9  A    between atoms: C_21  and  C_22
REMARK   10  A    between atoms: C_22  and  C_23
REMARK                            x       y       z     vdW  Elec       q    Type
REMARK                         _______ _______ _______ _____ _____    ______ ____
ROOT
ATOM      1  C   UNL     1       9.689   1.219  24.322  0.00  0.00    +0.147 C 
ATOM      2  C   UNL     1      10.328   0.437  23.147  0.00  0.00    +0.159 C 
ATOM      3  N   UNL     1      10.220  -0.787  23.975  0.00  0.00    -0.251 N 
ATOM      4  C   UNL     1       9.583  -1.828  23.323  0.00  0.00    +0.128 C 
ATOM      5  C   UNL     1       9.087  -1.549  22.110  0.00  0.00    +0.073 C 
ATOM      6  S   UNL     1       9.341   0.101  21.635  0.00  0.00    -0.107 S 
ATOM      7  C   UNL     1       9.566  -0.156  24.998  0.00  0.00    +0.230 C 
ATOM      8  O   UNL     1       9.002  -0.587  25.977  0.00  0.00    -0.275 OA
ENDROOT
BRANCH   1   9
ATOM      9  C   UNL     1       8.391   2.000  24.146  0.00  0.00    +0.188 C 
ATOM     10  C   UNL     1       7.941   2.593  25.483  0.00  0.00    +0.053 C 
BRANCH   9  11
ATOM     11  O   UNL     1       8.678   3.073  23.224  0.00  0.00    -0.461 OA
BRANCH  11  12
ATOM     12  C   UNL     1       7.638   3.512  22.463  0.00  0.00    +0.304 C 
ATOM     13  O   UNL     1       6.919   2.807  21.770  0.00  0.00    -0.251 OA
ATOM     14  C   UNL     1       7.504   5.002  22.563  0.00  0.00    +0.136 C 
ENDBRANCH  11  12
ENDBRANCH   9  11
ENDBRANCH   1   9
BRANCH   4  15
ATOM     15  C   UNL     1       9.296  -3.123  23.999  0.00  0.00    +0.354 C 
ATOM     16  O   UNL     1      10.156  -3.876  24.423  0.00  0.00    -0.244 OA
BRANCH  15  17
ATOM     17  O   UNL     1       7.957  -3.338  24.012  0.00  0.00    -0.460 OA
BRANCH  17  18
ATOM     18  C   UNL     1       7.532  -4.664  24.356  0.00  0.00    +0.232 C 
BRANCH  18  19
ATOM     19  C   UNL     1       6.874  -4.676  25.727  0.00  0.00    +0.038 C 
ATOM     20  C   UNL     1       7.829  -5.213  26.782  0.00  0.00    +0.007 C 
ENDBRANCH  18  19
ENDBRANCH  17  18
ENDBRANCH  15  17
ENDBRANCH   4  15
TORSDOF 7
ENDMDL
MODEL 3
REMARK VINA RESULT:      -5.2      1.338      1.422
REMARK  Name = 
REMARK  10 active torsions:
REMARK  status: ('A' for Active; 'I' for Inactive)
REMARK    1  A    between atoms: C_2  and  C_3
REMARK    2  A    between atoms: C_2  and  O_4
REMARK    3  A    between atoms: C_2  and  C_8
REMARK    4  A    between atoms: O_4  and  C_5
REMARK    5  A    between atoms: C_5  and  C_6
REMARK    6  A    between atoms: C_13  and  C_18
REMARK    7  A    between atoms: C_18  and  O_20
REMARK    8  A    between atoms: O_20  and  C_21
REMARK    9  A    between atoms: C_21  and  C_22
REMARK   10  A    between atoms: C_22  and  C_23
REMARK                            x       y       z     vdW  Elec       q    Type
REMARK                         _______ _______ _______ _____ _____    ______ ____
ROOT
ATOM      1  C   UNL     1       9.810   1.042  24.444  0.00  0.00    +0.147 C 
ATOM      2  C   UNL     1      10.464   0.238  23.293  0.00  0.00    +0.159 C 
ATOM      3  N   UNL     1      10.258  -0.984  24.105  0.00  0.00    -0.251 N 
ATOM      4  C   UNL     1       9.603  -1.989  23.415  0.00  0.00    +0.128 C 
ATOM      5  C   UNL     1       9.177  -1.679  22.183  0.00  0.00    +0.073 C 
ATOM      6  S   UNL     1       9.534  -0.040  21.734  0.00  0.00    -0.107 S 
ATOM      7  C   UNL     1       9.589  -0.328  25.102  0.00  0.00    +0.230 C 
ATOM      8  O   UNL     1       8.960  -0.738  26.050  0.00  0.00    -0.275 OA
ENDROOT
BRANCH   1   9
ATOM      9  C   UNL     1       8.560   1.887  24.215  0.00  0.00    +0.188 C 
ATOM     10  C   UNL     1       7.304   1.023  24.338  0.00  0.00    +0.053 C 
BRANCH   9  11
ATOM     11  O   UNL     1       8.548   2.891  25.253  0.00  0.00    -0.461 OA
BRANCH  11  12
ATOM     12  C   UNL     1       8.715   4.181  24.850  0.00  0.00    +0.304 C 
ATOM     13  O   UNL     1       9.531   4.567  24.025  0.00  0.00    -0.251 OA
ATOM     14  C   UNL     1       7.770   5.088  25.581  0.00  0.00    +0.136 C 
ENDBRANCH  11  12
ENDBRANCH   9  11
ENDBRANCH   1   9
BRANCH   4  15
ATOM     15  C   UNL     1       9.222  -3.272  24.066  0.00  0.00    +0.354 C 
ATOM     16  O   UNL     1      10.024  -4.064  24.532  0.00  0.00    -0.244 OA
BRANCH  15  17
ATOM     17  O   UNL     1       7.876  -3.429  24.003  0.00  0.00    -0.460 OA
BRANCH  17  18
ATOM     18  C   UNL     1       7.408  -4.722  23.596  0.00  0.00    +0.232 C 
BRANCH  18  19
ATOM     19  C   UNL     1       6.654  -4.629  22.279  0.00  0.00    +0.038 C 
ATOM     20  C   UNL     1       6.822  -5.904  21.467  0.00  0.00    +0.007 C 
ENDBRANCH  18  19
ENDBRANCH  17  18
ENDBRANCH  15  17
ENDBRANCH   4  15
TORSDOF 7
ENDMDL
MODEL 4
REMARK VINA RESULT:      -5.2      3.698      6.047
REMARK  Name = 
REMARK  10 active torsions:
REMARK  status: ('A' for Active; 'I' for Inactive)
REMARK    1  A    between atoms: C_2  and  C_3
REMARK    2  A    between atoms: C_2  and  O_4
REMARK    3  A    between atoms: C_2  and  C_8
REMARK    4  A    between atoms: O_4  and  C_5
REMARK    5  A    between atoms: C_5  and  C_6
REMARK    6  A    between atoms: C_13  and  C_18
REMARK    7  A    between atoms: C_18  and  O_20
REMARK    8  A    between atoms: O_20  and  C_21
REMARK    9  A    between atoms: C_21  and  C_22
REMARK   10  A    between atoms: C_22  and  C_23
REMARK                            x       y       z     vdW  Elec       q    Type
REMARK                         _______ _______ _______ _____ _____    ______ ____
ROOT
ATOM      1  C   UNL     1       8.011  -5.003  24.137  0.00  0.00    +0.147 C 
ATOM      2  C   UNL     1       7.395  -4.767  22.736  0.00  0.00    +0.159 C 
ATOM      3  N   UNL     1       6.109  -5.265  23.279  0.00  0.00    -0.251 N 
ATOM      4  C   UNL     1       5.054  -4.399  23.051  0.00  0.00    +0.128 C 
ATOM      5  C   UNL     1       5.363  -3.229  22.477  0.00  0.00    +0.073 C 
ATOM      6  S   UNL     1       7.062  -3.054  22.165  0.00  0.00    -0.107 S 
ATOM      7  C   UNL     1       6.586  -5.398  24.555  0.00  0.00    +0.230 C 
ATOM      8  O   UNL     1       6.023  -5.612  25.604  0.00  0.00    -0.275 OA
ENDROOT
BRANCH   1   9
ATOM      9  C   UNL     1       8.653  -3.867  24.926  0.00  0.00    +0.188 C 
ATOM     10  C   UNL     1       8.918  -4.304  26.368  0.00  0.00    +0.053 C 
BRANCH   9  11
ATOM     11  O   UNL     1       9.911  -3.576  24.281  0.00  0.00    -0.461 OA
BRANCH  11  12
ATOM     12  C   UNL     1      10.038  -2.336  23.732  0.00  0.00    +0.304 C 
ATOM     13  O   UNL     1      10.585  -2.084  22.669  0.00  0.00    -0.251 OA
ATOM     14  C   UNL     1       9.434  -1.298  24.630  0.00  0.00    +0.136 C 
ENDBRANCH  11  12
ENDBRANCH   9  11
ENDBRANCH   1   9
BRANCH   4  15
ATOM     15  C   UNL     1       3.689  -4.665  23.583  0.00  0.00    +0.354 C 
ATOM     16  O   UNL     1       3.218  -4.107  24.560  0.00  0.00    -0.244 OA
BRANCH  15  17
ATOM     17  O   UNL     1       3.101  -5.643  22.850  0.00  0.00    -0.460 OA
BRANCH  17  18
ATOM     18  C   UNL     1       1.678  -5.764  22.983  0.00  0.00    +0.232 C 
BRANCH  18  19
ATOM     19  C   UNL     1       1.238  -7.200  22.740  0.00  0.00    +0.038 C 
ATOM     20  C   UNL     1       1.916  -8.146  23.718  0.00  0.00    +0.007 C 
ENDBRANCH  18  19
ENDBRANCH  17  18
ENDBRANCH  15  17
ENDBRANCH   4  15
TORSDOF 7
ENDMDL
MODEL 5
REMARK VINA RESULT:      -5.1      1.977      2.914
REMARK  Name = 
REMARK  10 active torsions:
REMARK  status: ('A' for Active; 'I' for Inactive)
REMARK    1  A    between atoms: C_2  and  C_3
REMARK    2  A    between atoms: C_2  and  O_4
REMARK    3  A    between atoms: C_2  and  C_8
REMARK    4  A    between atoms: O_4  and  C_5
REMARK    5  A    between atoms: C_5  and  C_6
REMARK    6  A    between atoms: C_13  and  C_18
REMARK    7  A    between atoms: C_18  and  O_20
REMARK    8  A    between atoms: O_20  and  C_21
REMARK    9  A    between atoms: C_21  and  C_22
REMARK   10  A    between atoms: C_22  and  C_23
REMARK                            x       y       z     vdW  Elec       q    Type
REMARK                         _______ _______ _______ _____ _____    ______ ____
ROOT
ATOM      1  C   UNL     1       9.825  -0.125  22.839  0.00  0.00    +0.147 C 
ATOM      2  C   UNL     1       8.469  -0.283  22.108  0.00  0.00    +0.159 C 
ATOM      3  N   UNL     1       8.573  -1.742  22.348  0.00  0.00    -0.251 N 
ATOM      4  C   UNL     1       7.446  -2.274  22.949  0.00  0.00    +0.128 C 
ATOM      5  C   UNL     1       6.496  -1.397  23.303  0.00  0.00    +0.073 C 
ATOM      6  S   UNL     1       6.920   0.247  22.940  0.00  0.00    -0.107 S 
ATOM      7  C   UNL     1       9.722  -1.639  23.083  0.00  0.00    +0.230 C 
ATOM      8  O   UNL     1      10.315  -2.444  23.763  0.00  0.00    -0.275 OA
ENDROOT
BRANCH   1   9
ATOM      9  C   UNL     1       9.963   0.748  24.082  0.00  0.00    +0.188 C 
ATOM     10  C   UNL     1      11.334   0.542  24.728  0.00  0.00    +0.053 C 
BRANCH   9  11
ATOM     11  O   UNL     1       9.849   2.117  23.638  0.00  0.00    -0.461 OA
BRANCH  11  12
ATOM     12  C   UNL     1       9.116   2.951  24.427  0.00  0.00    +0.304 C 
ATOM     13  O   UNL     1       8.367   2.600  25.326  0.00  0.00    -0.251 OA
ATOM     14  C   UNL     1       9.328   4.379  24.023  0.00  0.00    +0.136 C 
ENDBRANCH  11  12
ENDBRANCH   9  11
ENDBRANCH   1   9
BRANCH   4  15
ATOM     15  C   UNL     1       7.370  -3.704  23.353  0.00  0.00    +0.354 C 
ATOM     16  O   UNL     1       7.566  -4.638  22.594  0.00  0.00    -0.244 OA
BRANCH  15  17
ATOM     17  O   UNL     1       7.000  -3.787  24.656  0.00  0.00    -0.460 OA
BRANCH  17  18
ATOM     18  C   UNL     1       6.984  -5.102  25.227  0.00  0.00    +0.232 C 
BRANCH  18  19
ATOM     19  C   UNL     1       7.692  -5.110  26.573  0.00  0.00    +0.038 C 
ATOM     20  C   UNL     1       9.127  -4.626  26.432  0.00  0.00    +0.007 C 
ENDBRANCH  18  19
ENDBRANCH  17  18
ENDBRANCH  15  17
ENDBRANCH   4  15
TORSDOF 7
ENDMDL
MODEL 6
REMARK VINA RESULT:      -5.1      2.238      6.225
REMARK  Name = 
REMARK  10 active torsions:
REMARK  status: ('A' for Active; 'I' for Inactive)
REMARK    1  A    between atoms: C_2  and  C_3
REMARK    2  A    between atoms: C_2  and  O_4
REMARK    3  A    between atoms: C_2  and  C_8
REMARK    4  A    between atoms: O_4  and  C_5
REMARK    5  A    between atoms: C_5  and  C_6
REMARK    6  A    between atoms: C_13  and  C_18
REMARK    7  A    between atoms: C_18  and  O_20
REMARK    8  A    between atoms: O_20  and  C_21
REMARK    9  A    between atoms: C_21  and  C_22
REMARK   10  A    between atoms: C_22  and  C_23
REMARK                            x       y       z     vdW  Elec       q    Type
REMARK                         _______ _______ _______ _____ _____    ______ ____
ROOT
ATOM      1  C   UNL     1       8.603  -3.673  23.845  0.00  0.00    +0.147 C 
ATOM      2  C   UNL     1       8.711  -3.083  25.273  0.00  0.00    +0.159 C 
ATOM      3  N   UNL     1       9.644  -2.071  24.724  0.00  0.00    -0.251 N 
ATOM      4  C   UNL     1       9.280  -0.773  25.037  0.00  0.00    +0.128 C 
ATOM      5  C   UNL     1       8.118  -0.626  25.687  0.00  0.00    +0.073 C 
ATOM      6  S   UNL     1       7.305  -2.133  25.974  0.00  0.00    -0.107 S 
ATOM      7  C   UNL     1       9.503  -2.499  23.432  0.00  0.00    +0.230 C 
ATOM      8  O   UNL     1       9.861  -2.015  22.383  0.00  0.00    -0.275 OA
ENDROOT
BRANCH   1   9
ATOM      9  C   UNL     1       7.262  -3.777  23.126  0.00  0.00    +0.188 C 
ATOM     10  C   UNL     1       6.893  -2.435  22.491  0.00  0.00    +0.053 C 
BRANCH   9  11
ATOM     11  O   UNL     1       7.429  -4.764  22.085  0.00  0.00    -0.461 OA
BRANCH  11  12
ATOM     12  C   UNL     1       6.292  -5.348  21.616  0.00  0.00    +0.304 C 
ATOM     13  O   UNL     1       5.931  -5.360  20.448  0.00  0.00    -0.251 OA
ATOM     14  C   UNL     1       5.512  -5.963  22.740  0.00  0.00    +0.136 C 
ENDBRANCH  11  12
ENDBRANCH   9  11
ENDBRANCH   1   9
BRANCH   4  15
ATOM     15  C   UNL     1      10.032   0.402  24.517  0.00  0.00    +0.354 C 
ATOM     16  O   UNL     1      11.186   0.659  24.816  0.00  0.00    -0.244 OA
BRANCH  15  17
ATOM     17  O   UNL     1       9.218   1.145  23.725  0.00  0.00    -0.460 OA
BRANCH  17  18
ATOM     18  C   UNL     1       9.111   2.536  24.054  0.00  0.00    +0.232 C 
BRANCH  18  19
ATOM     19  C   UNL     1       8.419   3.299  22.936  0.00  0.00    +0.038 C 
ATOM     20  C   UNL     1       7.762   2.342  21.954  0.00  0.00    +0.007 C 
ENDBRANCH  18  19
ENDBRANCH  17  18
ENDBRANCH  15  17
ENDBRANCH   4  15
TORSDOF 7
ENDMDL
MODEL 7
REMARK VINA RESULT:      -5.0      2.206      2.922
REMARK  Name = 
REMARK  10 active torsions:
REMARK  status: ('A' for Active; 'I' for Inactive)
REMARK    1  A    between atoms: C_2  and  C_3
REMARK    2  A    between atoms: C_2  and  O_4
REMARK    3  A    between atoms: C_2  and  C_8
REMARK    4  A    between atoms: O_4  and  C_5
REMARK    5  A    between atoms: C_5  and  C_6
REMARK    6  A    between atoms: C_13  and  C_18
REMARK    7  A    between atoms: C_18  and  O_20
REMARK    8  A    between atoms: O_20  and  C_21
REMARK    9  A    between atoms: C_21  and  C_22
REMARK   10  A    between atoms: C_22  and  C_23
REMARK                            x       y       z     vdW  Elec       q    Type
REMARK                         _______ _______ _______ _____ _____    ______ ____
ROOT
ATOM      1  C   UNL     1       9.688  -0.613  24.746  0.00  0.00    +0.147 C 
ATOM      2  C   UNL     1       9.958  -1.690  23.667  0.00  0.00    +0.159 C 
ATOM      3  N   UNL     1       8.910  -2.518  24.310  0.00  0.00    -0.251 N 
ATOM      4  C   UNL     1       7.946  -2.958  23.421  0.00  0.00    +0.128 C 
ATOM      5  C   UNL     1       8.047  -2.501  22.166  0.00  0.00    +0.073 C 
ATOM      6  S   UNL     1       9.384  -1.416  21.944  0.00  0.00    -0.107 S 
ATOM      7  C   UNL     1       8.573  -1.556  25.223  0.00  0.00    +0.230 C 
ATOM      8  O   UNL     1       7.646  -1.474  25.997  0.00  0.00    -0.275 OA
ENDROOT
BRANCH   1   9
ATOM      9  C   UNL     1       9.258   0.801  24.370  0.00  0.00    +0.188 C 
ATOM     10  C   UNL     1       8.267   1.347  25.400  0.00  0.00    +0.053 C 
BRANCH   9  11
ATOM     11  O   UNL     1      10.452   1.612  24.385  0.00  0.00    -0.461 OA
BRANCH  11  12
ATOM     12  C   UNL     1      10.600   2.492  23.356  0.00  0.00    +0.304 C 
ATOM     13  O   UNL     1      11.236   3.535  23.401  0.00  0.00    -0.251 OA
ATOM     14  C   UNL     1       9.845   2.022  22.149  0.00  0.00    +0.136 C 
ENDBRANCH  11  12
ENDBRANCH   9  11
ENDBRANCH   1   9
BRANCH   4  15
ATOM     15  C   UNL     1       6.758  -3.735  23.870  0.00  0.00    +0.354 C 
ATOM     16  O   UNL     1       5.605  -3.384  23.686  0.00  0.00    -0.244 OA
BRANCH  15  17
ATOM     17  O   UNL     1       7.168  -4.838  24.545  0.00  0.00    -0.460 OA
BRANCH  17  18
ATOM     18  C   UNL     1       6.360  -5.233  25.662  0.00  0.00    +0.232 C 
BRANCH  18  19
ATOM     19  C   UNL     1       7.118  -5.041  26.966  0.00  0.00    +0.038 C 
ATOM     20  C   UNL     1       8.616  -4.966  26.716  0.00  0.00    +0.007 C 
ENDBRANCH  18  19
ENDBRANCH  17  18
ENDBRANCH  15  17
ENDBRANCH   4  15
TORSDOF 7
ENDMDL
MODEL 8
REMARK VINA RESULT:      -5.0      2.467      5.995
REMARK  Name = 
REMARK  10 active torsions:
REMARK  status: ('A' for Active; 'I' for Inactive)
REMARK    1  A    between atoms: C_2  and  C_3
REMARK    2  A    between atoms: C_2  and  O_4
REMARK    3  A    between atoms: C_2  and  C_8
REMARK    4  A    between atoms: O_4  and  C_5
REMARK    5  A    between atoms: C_5  and  C_6
REMARK    6  A    between atoms: C_13  and  C_18
REMARK    7  A    between atoms: C_18  and  O_20
REMARK    8  A    between atoms: O_20  and  C_21
REMARK    9  A    between atoms: C_21  and  C_22
REMARK   10  A    between atoms: C_22  and  C_23
REMARK                            x       y       z     vdW  Elec       q    Type
REMARK                         _______ _______ _______ _____ _____    ______ ____
ROOT
ATOM      1  C   UNL     1       7.999  -4.455  25.543  0.00  0.00    +0.147 C 
ATOM      2  C   UNL     1       7.573  -3.324  26.511  0.00  0.00    +0.159 C 
ATOM      3  N   UNL     1       8.681  -2.509  25.957  0.00  0.00    -0.251 N 
ATOM      4  C   UNL     1       8.271  -1.259  25.529  0.00  0.00    +0.128 C 
ATOM      5  C   UNL     1       6.955  -1.017  25.585  0.00  0.00    +0.073 C 
ATOM      6  S   UNL     1       6.041  -2.369  26.176  0.00  0.00    -0.107 S 
ATOM      7  C   UNL     1       9.031  -3.443  25.020  0.00  0.00    +0.230 C 
ATOM      8  O   UNL     1       9.780  -3.387  24.073  0.00  0.00    -0.275 OA
ENDROOT
BRANCH   1   9
ATOM      9  C   UNL     1       7.033  -5.024  24.508  0.00  0.00    +0.188 C 
ATOM     10  C   UNL     1       5.784  -5.579  25.195  0.00  0.00    +0.053 C 
BRANCH   9  11
ATOM     11  O   UNL     1       6.654  -3.926  23.651  0.00  0.00    -0.461 OA
BRANCH  11  12
ATOM     12  C   UNL     1       6.248  -4.251  22.393  0.00  0.00    +0.304 C 
ATOM     13  O   UNL     1       5.311  -3.740  21.796  0.00  0.00    -0.251 OA
ATOM     14  C   UNL     1       7.094  -5.356  21.835  0.00  0.00    +0.136 C 
ENDBRANCH  11  12
ENDBRANCH   9  11
ENDBRANCH   1   9
BRANCH   4  15
ATOM     15  C   UNL     1       9.206  -0.309  24.865  0.00  0.00    +0.354 C 
ATOM     16  O   UNL     1      10.311  -0.027  25.296  0.00  0.00    -0.244 OA
BRANCH  15  17
ATOM     17  O   UNL     1       8.612   0.213  23.763  0.00  0.00    -0.460 OA
BRANCH  17  18
ATOM     18  C   UNL     1       9.112   1.481  23.315  0.00  0.00    +0.232 C 
BRANCH  18  19
ATOM     19  C   UNL     1       9.743   1.351  21.937  0.00  0.00    +0.038 C 
ATOM     20  C   UNL     1       9.405   0.007  21.312  0.00  0.00    +0.007 C 
ENDBRANCH  18  19
ENDBRANCH  17  18
ENDBRANCH  15  17
ENDBRANCH   4  15
TORSDOF 7
ENDMDL
MODEL 9
REMARK VINA RESULT:      -5.0      1.127      1.639
REMARK  Name = 
REMARK  10 active torsions:
REMARK  status: ('A' for Active; 'I' for Inactive)
REMARK    1  A    between atoms: C_2  and  C_3
REMARK    2  A    between atoms: C_2  and  O_4
REMARK    3  A    between atoms: C_2  and  C_8
REMARK    4  A    between atoms: O_4  and  C_5
REMARK    5  A    between atoms: C_5  and  C_6
REMARK    6  A    between atoms: C_13  and  C_18
REMARK    7  A    between atoms: C_18  and  O_20
REMARK    8  A    between atoms: O_20  and  C_21
REMARK    9  A    between atoms: C_21  and  C_22
REMARK   10  A    between atoms: C_22  and  C_23
REMARK                            x       y       z     vdW  Elec       q    Type
REMARK                         _______ _______ _______ _____ _____    ______ ____
ROOT
ATOM      1  C   UNL     1       9.918   0.976  24.524  0.00  0.00    +0.147 C 
ATOM      2  C   UNL     1      10.516   0.197  23.326  0.00  0.00    +0.159 C 
ATOM      3  N   UNL     1      10.228  -1.053  24.067  0.00  0.00    -0.251 N 
ATOM      4  C   UNL     1       9.506  -1.970  23.322  0.00  0.00    +0.128 C 
ATOM      5  C   UNL     1       9.103  -1.561  22.112  0.00  0.00    +0.073 C 
ATOM      6  S   UNL     1       9.570   0.073  21.757  0.00  0.00    -0.107 S 
ATOM      7  C   UNL     1       9.605  -0.413  25.103  0.00  0.00    +0.230 C 
ATOM      8  O   UNL     1       8.948  -0.833  26.028  0.00  0.00    -0.275 OA
ENDROOT
BRANCH   1   9
ATOM      9  C   UNL     1       8.729   1.915  24.349  0.00  0.00    +0.188 C 
ATOM     10  C   UNL     1       9.100   3.078  23.427  0.00  0.00    +0.053 C 
BRANCH   9  11
ATOM     11  O   UNL     1       7.679   1.139  23.732  0.00  0.00    -0.461 OA
BRANCH  11  12
ATOM     12  C   UNL     1       6.401   1.504  24.029  0.00  0.00    +0.304 C 
ATOM     13  O   UNL     1       5.679   2.194  23.324  0.00  0.00    -0.251 OA
ATOM     14  C   UNL     1       5.996   0.965  25.368  0.00  0.00    +0.136 C 
ENDBRANCH  11  12
ENDBRANCH   9  11
ENDBRANCH   1   9
BRANCH   4  15
ATOM     15  C   UNL     1       9.039  -3.260  23.900  0.00  0.00    +0.354 C 
ATOM     16  O   UNL     1       9.764  -4.046  24.486  0.00  0.00    -0.244 OA
BRANCH  15  17
ATOM     17  O   UNL     1       7.722  -3.429  23.621  0.00  0.00    -0.460 OA
BRANCH  17  18
ATOM     18  C   UNL     1       7.295  -4.776  23.376  0.00  0.00    +0.232 C 
BRANCH  18  19
ATOM     19  C   UNL     1       6.149  -4.801  22.376  0.00  0.00    +0.038 C 
ATOM     20  C   UNL     1       6.482  -5.693  21.192  0.00  0.00    +0.007 C 
ENDBRANCH  18  19
ENDBRANCH  17  18
ENDBRANCH  15  17
ENDBRANCH   4  15
TORSDOF 7
ENDMDL
