MODEL 1
REMARK VINA RESULT:      -7.3      0.000      0.000
REMARK  Name = 
REMARK  6 active torsions:
REMARK  status: ('A' for Active; 'I' for Inactive)
REMARK    1  A    between atoms: C_1  and  C_2
REMARK    2  A    between atoms: C_6  and  N_7
REMARK    3  A    between atoms: C_10  and  C_14
REMARK    4  A    between atoms: N_23  and  C_24
REMARK    5  A    between atoms: C_24  and  C_25
REMARK    6  A    between atoms: C_25  and  N_26
REMARK                            x       y       z     vdW  Elec       q    Type
REMARK                         _______ _______ _______ _____ _____    ______ ____
ROOT
ATOM      1  C   UNL     1       6.584  -1.411  23.807  0.00  0.00    +0.005 A 
ATOM      2  C   UNL     1       6.176  -0.677  24.922  0.00  0.00    +0.030 A 
ATOM      3  C   UNL     1       5.115  -1.149  25.672  0.00  0.00    +0.113 A 
ATOM      4  N   UNL     1       4.444  -2.290  25.409  0.00  0.00    -0.240 NA
ATOM      5  C   UNL     1       4.809  -3.027  24.339  0.00  0.00    +0.122 A 
ATOM      6  N   UNL     1       4.095  -4.171  24.047  0.00  0.00    -0.313 N 
ATOM      7  C   UNL     1       2.777  -4.391  24.663  0.00  0.00    +0.122 C 
ATOM      8  C   UNL     1       2.757  -5.661  25.552  0.00  0.00    +0.103 C 
ATOM      9  N   UNL     1       3.298  -6.895  24.918  0.00  0.00    -0.298 NA
ATOM     10  C   UNL     1       4.654  -6.564  24.419  0.00  0.00    +0.103 C 
ATOM     11  C   UNL     1       4.734  -5.353  23.459  0.00  0.00    +0.122 C 
ATOM     12  C   UNL     1       5.867  -2.593  23.532  0.00  0.00    +0.053 A 
ENDROOT
BRANCH   1  19
ATOM     13  N   UNL     1       8.786   2.280  21.769  0.00  0.00    -0.284 N 
ATOM     14  H   UNL     1       9.645   2.462  21.271  0.00  0.00    +0.155 HD
ATOM     15  C   UNL     1       8.663   0.894  21.918  0.00  0.00    +0.220 A 
ATOM     16  N   UNL     1       9.620   0.151  21.348  0.00  0.00    -0.223 NA
ATOM     17  C   UNL     1       9.591  -1.170  21.603  0.00  0.00    +0.116 A 
ATOM     18  C   UNL     1       8.646  -1.778  22.396  0.00  0.00    +0.048 A 
ATOM     19  C   UNL     1       7.670  -0.954  22.915  0.00  0.00    +0.076 A 
ATOM     20  N   UNL     1       7.677   0.368  22.656  0.00  0.00    -0.214 NA
BRANCH  13  25
ATOM     21  C   UNL     1       7.097   6.421  25.391  0.00  0.00    +0.045 C 
ATOM     22  C   UNL     1       7.498   5.357  24.409  0.00  0.00    -0.032 A 
ATOM     23  C   UNL     1       8.665   4.620  24.654  0.00  0.00    +0.006 A 
ATOM     24  C   UNL     1       9.085   3.615  23.770  0.00  0.00    +0.023 A 
ATOM     25  C   UNL     1       8.339   3.303  22.628  0.00  0.00    +0.035 A 
ATOM     26  C   UNL     1       7.187   4.057  22.386  0.00  0.00    +0.043 A 
ATOM     27  C   UNL     1       6.751   5.049  23.270  0.00  0.00    +0.046 A 
ATOM     28 CL   UNL     1       5.261   5.840  22.891  0.00  0.00    -0.083 Cl
ENDBRANCH  13  25
ENDBRANCH   1  19
BRANCH   9  29
ATOM     29  C   UNL     1       2.391  -7.380  23.855  0.00  0.00    +0.099 C 
BRANCH  29  30
ATOM     30  C   UNL     1       1.597  -8.652  24.235  0.00  0.00    +0.093 C 
BRANCH  30  31
ATOM     31  N   UNL     1       2.295  -9.446  25.248  0.00  0.00    -0.329 NA
ATOM     32  H   UNL     1       3.050  -9.965  24.801  0.00  0.00    +0.118 HD
ATOM     33  H   UNL     1       2.738  -8.823  25.921  0.00  0.00    +0.118 HD
ENDBRANCH  30  31
ENDBRANCH  29  30
ENDBRANCH   9  29
TORSDOF 5
ENDMDL
MODEL 2
REMARK VINA RESULT:      -7.1      3.897     10.456
REMARK  Name = 
REMARK  6 active torsions:
REMARK  status: ('A' for Active; 'I' for Inactive)
REMARK    1  A    between atoms: C_1  and  C_2
REMARK    2  A    between atoms: C_6  and  N_7
REMARK    3  A    between atoms: C_10  and  C_14
REMARK    4  A    between atoms: N_23  and  C_24
REMARK    5  A    between atoms: C_24  and  C_25
REMARK    6  A    between atoms: C_25  and  N_26
REMARK                            x       y       z     vdW  Elec       q    Type
REMARK                         _______ _______ _______ _____ _____    ______ ____
ROOT
ATOM      1  C   UNL     1       7.114  -4.118  24.475  0.00  0.00    +0.005 A 
ATOM      2  C   UNL     1       6.981  -4.573  23.162  0.00  0.00    +0.030 A 
ATOM      3  C   UNL     1       7.312  -3.717  22.128  0.00  0.00    +0.113 A 
ATOM      4  N   UNL     1       7.772  -2.460  22.298  0.00  0.00    -0.240 NA
ATOM      5  C   UNL     1       7.915  -1.984  23.552  0.00  0.00    +0.122 A 
ATOM      6  N   UNL     1       8.346  -0.684  23.724  0.00  0.00    -0.313 N 
ATOM      7  C   UNL     1       8.316   0.255  22.591  0.00  0.00    +0.122 C 
ATOM      8  C   UNL     1       9.732   0.762  22.219  0.00  0.00    +0.103 C 
ATOM      9  N   UNL     1      10.547   1.274  23.356  0.00  0.00    -0.298 NA
ATOM     10  C   UNL     1      10.571   0.207  24.384  0.00  0.00    +0.103 C 
ATOM     11  C   UNL     1       9.184  -0.291  24.860  0.00  0.00    +0.122 C 
ATOM     12  C   UNL     1       7.582  -2.798  24.641  0.00  0.00    +0.053 A 
ENDROOT
BRANCH   1  19
ATOM     13  N   UNL     1       3.805  -6.873  26.496  0.00  0.00    -0.284 N 
ATOM     14  H   UNL     1       3.733  -7.517  27.270  0.00  0.00    +0.155 HD
ATOM     15  C   UNL     1       5.048  -6.236  26.584  0.00  0.00    +0.220 A 
ATOM     16  N   UNL     1       5.801  -6.552  27.645  0.00  0.00    -0.223 NA
ATOM     17  C   UNL     1       7.052  -6.056  27.668  0.00  0.00    +0.116 A 
ATOM     18  C   UNL     1       7.578  -5.257  26.681  0.00  0.00    +0.048 A 
ATOM     19  C   UNL     1       6.730  -4.942  25.640  0.00  0.00    +0.076 A 
ATOM     20  N   UNL     1       5.471  -5.418  25.611  0.00  0.00    -0.214 NA
BRANCH  13  25
ATOM     21  C   UNL     1       0.823  -8.057  21.719  0.00  0.00    +0.045 C 
ATOM     22  C   UNL     1       1.587  -7.799  22.986  0.00  0.00    -0.032 A 
ATOM     23  C   UNL     1       2.414  -6.668  23.056  0.00  0.00    +0.006 A 
ATOM     24  C   UNL     1       3.149  -6.380  24.214  0.00  0.00    +0.023 A 
ATOM     25  C   UNL     1       3.061  -7.200  25.346  0.00  0.00    +0.035 A 
ATOM     26  C   UNL     1       2.247  -8.334  25.257  0.00  0.00    +0.043 A 
ATOM     27  C   UNL     1       1.498  -8.620  24.112  0.00  0.00    +0.046 A 
ATOM     28 CL   UNL     1       0.465 -10.005  24.175  0.00  0.00    -0.083 Cl
ENDBRANCH  13  25
ENDBRANCH   1  19
BRANCH   9  29
ATOM     29  C   UNL     1      10.001   2.553  23.859  0.00  0.00    +0.099 C 
BRANCH  29  30
ATOM     30  C   UNL     1      10.851   3.791  23.488  0.00  0.00    +0.093 C 
BRANCH  30  31
ATOM     31  N   UNL     1      10.033   5.002  23.386  0.00  0.00    -0.329 NA
ATOM     32  H   UNL     1      10.513   5.767  23.858  0.00  0.00    +0.118 HD
ATOM     33  H   UNL     1       9.953   5.275  22.409  0.00  0.00    +0.118 HD
ENDBRANCH  30  31
ENDBRANCH  29  30
ENDBRANCH   9  29
TORSDOF 5
ENDMDL
MODEL 3
REMARK VINA RESULT:      -7.1      3.482     10.002
REMARK  Name = 
REMARK  6 active torsions:
REMARK  status: ('A' for Active; 'I' for Inactive)
REMARK    1  A    between atoms: C_1  and  C_2
REMARK    2  A    between atoms: C_6  and  N_7
REMARK    3  A    between atoms: C_10  and  C_14
REMARK    4  A    between atoms: N_23  and  C_24
REMARK    5  A    between atoms: C_24  and  C_25
REMARK    6  A    between atoms: C_25  and  N_26
REMARK                            x       y       z     vdW  Elec       q    Type
REMARK                         _______ _______ _______ _____ _____    ______ ____
ROOT
ATOM      1  C   UNL     1       7.264  -1.662  25.365  0.00  0.00    +0.005 A 
ATOM      2  C   UNL     1       5.951  -1.217  25.205  0.00  0.00    +0.030 A 
ATOM      3  C   UNL     1       5.737   0.111  24.886  0.00  0.00    +0.113 A 
ATOM      4  N   UNL     1       6.719   1.018  24.704  0.00  0.00    -0.240 NA
ATOM      5  C   UNL     1       8.002   0.626  24.850  0.00  0.00    +0.122 A 
ATOM      6  N   UNL     1       9.003   1.565  24.705  0.00  0.00    -0.313 N 
ATOM      7  C   UNL     1       8.675   2.999  24.737  0.00  0.00    +0.122 C 
ATOM      8  C   UNL     1       9.026   3.704  23.402  0.00  0.00    +0.103 C 
ATOM      9  N   UNL     1      10.399   3.451  22.885  0.00  0.00    -0.298 NA
ATOM     10  C   UNL     1      10.568   1.980  22.819  0.00  0.00    +0.103 C 
ATOM     11  C   UNL     1      10.312   1.219  24.143  0.00  0.00    +0.122 C 
ATOM     12  C   UNL     1       8.283  -0.703  25.188  0.00  0.00    +0.053 A 
ENDROOT
BRANCH   1  19
ATOM     13  N   UNL     1       5.677  -6.102  25.991  0.00  0.00    -0.284 N 
ATOM     14  H   UNL     1       6.060  -7.025  26.136  0.00  0.00    +0.155 HD
ATOM     15  C   UNL     1       6.727  -5.182  26.090  0.00  0.00    +0.220 A 
ATOM     16  N   UNL     1       7.928  -5.686  26.399  0.00  0.00    -0.223 NA
ATOM     17  C   UNL     1       8.970  -4.835  26.358  0.00  0.00    +0.116 A 
ATOM     18  C   UNL     1       8.860  -3.504  26.028  0.00  0.00    +0.048 A 
ATOM     19  C   UNL     1       7.586  -3.049  25.761  0.00  0.00    +0.076 A 
ATOM     20  N   UNL     1       6.532  -3.886  25.813  0.00  0.00    -0.214 NA
BRANCH  13  25
ATOM     21  C   UNL     1       1.029  -5.817  22.610  0.00  0.00    +0.045 C 
ATOM     22  C   UNL     1       2.207  -5.897  23.537  0.00  0.00    -0.032 A 
ATOM     23  C   UNL     1       3.492  -6.021  22.986  0.00  0.00    +0.006 A 
ATOM     24  C   UNL     1       4.626  -6.099  23.806  0.00  0.00    +0.023 A 
ATOM     25  C   UNL     1       4.514  -6.032  25.200  0.00  0.00    +0.035 A 
ATOM     26  C   UNL     1       3.227  -5.926  25.737  0.00  0.00    +0.043 A 
ATOM     27  C   UNL     1       2.091  -5.831  24.928  0.00  0.00    +0.046 A 
ATOM     28 CL   UNL     1       0.573  -5.613  25.726  0.00  0.00    -0.083 Cl
ENDBRANCH  13  25
ENDBRANCH   1  19
BRANCH   9  29
ATOM     29  C   UNL     1      11.411   4.114  23.735  0.00  0.00    +0.099 C 
BRANCH  29  30
ATOM     30  C   UNL     1      12.350   5.073  22.966  0.00  0.00    +0.093 C 
BRANCH  30  31
ATOM     31  N   UNL     1      13.755   4.859  23.319  0.00  0.00    -0.329 NA
ATOM     32  H   UNL     1      13.862   3.919  23.698  0.00  0.00    +0.118 HD
ATOM     33  H   UNL     1      14.325   4.892  22.476  0.00  0.00    +0.118 HD
ENDBRANCH  30  31
ENDBRANCH  29  30
ENDBRANCH   9  29
TORSDOF 5
ENDMDL
MODEL 4
REMARK VINA RESULT:      -7.0      3.545      9.395
REMARK  Name = 
REMARK  6 active torsions:
REMARK  status: ('A' for Active; 'I' for Inactive)
REMARK    1  A    between atoms: C_1  and  C_2
REMARK    2  A    between atoms: C_6  and  N_7
REMARK    3  A    between atoms: C_10  and  C_14
REMARK    4  A    between atoms: N_23  and  C_24
REMARK    5  A    between atoms: C_24  and  C_25
REMARK    6  A    between atoms: C_25  and  N_26
REMARK                            x       y       z     vdW  Elec       q    Type
REMARK                         _______ _______ _______ _____ _____    ______ ____
ROOT
ATOM      1  C   UNL     1       8.092  -2.671  23.190  0.00  0.00    +0.005 A 
ATOM      2  C   UNL     1       9.344  -2.789  23.797  0.00  0.00    +0.030 A 
ATOM      3  C   UNL     1      10.098  -1.646  23.985  0.00  0.00    +0.113 A 
ATOM      4  N   UNL     1       9.702  -0.406  23.631  0.00  0.00    -0.240 NA
ATOM      5  C   UNL     1       8.499  -0.251  23.042  0.00  0.00    +0.122 A 
ATOM      6  N   UNL     1       8.113   1.013  22.643  0.00  0.00    -0.313 N 
ATOM      7  C   UNL     1       9.113   2.088  22.544  0.00  0.00    +0.122 C 
ATOM      8  C   UNL     1       8.807   3.257  23.515  0.00  0.00    +0.103 C 
ATOM      9  N   UNL     1       7.412   3.777  23.471  0.00  0.00    -0.298 NA
ATOM     10  C   UNL     1       6.514   2.615  23.669  0.00  0.00    +0.103 C 
ATOM     11  C   UNL     1       6.712   1.442  22.678  0.00  0.00    +0.122 C 
ATOM     12  C   UNL     1       7.694  -1.372  22.810  0.00  0.00    +0.053 A 
ENDROOT
BRANCH   1  19
ATOM     13  N   UNL     1       5.302  -6.108  24.929  0.00  0.00    -0.284 N 
ATOM     14  H   UNL     1       4.639  -6.786  24.583  0.00  0.00    +0.155 HD
ATOM     15  C   UNL     1       5.932  -5.523  23.824  0.00  0.00    +0.220 A 
ATOM     16  N   UNL     1       5.587  -6.003  22.623  0.00  0.00    -0.223 NA
ATOM     17  C   UNL     1       6.077  -5.355  21.550  0.00  0.00    +0.116 A 
ATOM     18  C   UNL     1       6.898  -4.256  21.627  0.00  0.00    +0.048 A 
ATOM     19  C   UNL     1       7.242  -3.844  22.897  0.00  0.00    +0.076 A 
ATOM     20  N   UNL     1       6.771  -4.490  23.981  0.00  0.00    -0.214 NA
BRANCH  13  25
ATOM     21  C   UNL     1       4.001  -3.639  29.961  0.00  0.00    +0.045 C 
ATOM     22  C   UNL     1       4.363  -4.327  28.677  0.00  0.00    -0.032 A 
ATOM     23  C   UNL     1       3.873  -3.804  27.471  0.00  0.00    +0.006 A 
ATOM     24  C   UNL     1       4.180  -4.407  26.243  0.00  0.00    +0.023 A 
ATOM     25  C   UNL     1       5.006  -5.536  26.181  0.00  0.00    +0.035 A 
ATOM     26  C   UNL     1       5.473  -6.058  27.391  0.00  0.00    +0.043 A 
ATOM     27  C   UNL     1       5.185  -5.454  28.619  0.00  0.00    +0.046 A 
ATOM     28 CL   UNL     1       5.904  -6.155  30.027  0.00  0.00    -0.083 Cl
ENDBRANCH  13  25
ENDBRANCH   1  19
BRANCH   9  29
ATOM     29  C   UNL     1       7.159   4.496  22.204  0.00  0.00    +0.099 C 
BRANCH  29  30
ATOM     30  C   UNL     1       7.587   5.982  22.227  0.00  0.00    +0.093 C 
BRANCH  30  31
ATOM     31  N   UNL     1       6.812   6.786  21.278  0.00  0.00    -0.329 NA
ATOM     32  H   UNL     1       7.455   7.321  20.695  0.00  0.00    +0.118 HD
ATOM     33  H   UNL     1       6.303   6.169  20.649  0.00  0.00    +0.118 HD
ENDBRANCH  30  31
ENDBRANCH  29  30
ENDBRANCH   9  29
TORSDOF 5
ENDMDL
MODEL 5
REMARK VINA RESULT:      -6.9      3.963      5.828
REMARK  Name = 
REMARK  6 active torsions:
REMARK  status: ('A' for Active; 'I' for Inactive)
REMARK    1  A    between atoms: C_1  and  C_2
REMARK    2  A    between atoms: C_6  and  N_7
REMARK    3  A    between atoms: C_10  and  C_14
REMARK    4  A    between atoms: N_23  and  C_24
REMARK    5  A    between atoms: C_24  and  C_25
REMARK    6  A    between atoms: C_25  and  N_26
REMARK                            x       y       z     vdW  Elec       q    Type
REMARK                         _______ _______ _______ _____ _____    ______ ____
ROOT
ATOM      1  C   UNL     1       9.864   2.206  22.913  0.00  0.00    +0.005 A 
ATOM      2  C   UNL     1       9.496   1.925  21.596  0.00  0.00    +0.030 A 
ATOM      3  C   UNL     1       9.105   0.637  21.279  0.00  0.00    +0.113 A 
ATOM      4  N   UNL     1       9.041  -0.379  22.165  0.00  0.00    -0.240 NA
ATOM      5  C   UNL     1       9.388  -0.147  23.447  0.00  0.00    +0.122 A 
ATOM      6  N   UNL     1       9.362  -1.197  24.343  0.00  0.00    -0.313 N 
ATOM      7  C   UNL     1       9.298  -2.582  23.848  0.00  0.00    +0.122 C 
ATOM      8  C   UNL     1       8.008  -3.304  24.311  0.00  0.00    +0.103 C 
ATOM      9  N   UNL     1       7.709  -3.210  25.767  0.00  0.00    -0.298 NA
ATOM     10  C   UNL     1       7.717  -1.769  26.115  0.00  0.00    +0.103 C 
ATOM     11  C   UNL     1       9.013  -1.003  25.753  0.00  0.00    +0.122 C 
ATOM     12  C   UNL     1       9.808   1.133  23.828  0.00  0.00    +0.053 A 
ENDROOT
BRANCH   1  19
ATOM     13  N   UNL     1       8.803   6.390  24.910  0.00  0.00    -0.284 N 
ATOM     14  H   UNL     1       9.291   7.193  25.279  0.00  0.00    +0.155 HD
ATOM     15  C   UNL     1       9.744   5.574  24.272  0.00  0.00    +0.220 A 
ATOM     16  N   UNL     1      11.000   6.035  24.235  0.00  0.00    -0.223 NA
ATOM     17  C   UNL     1      11.937   5.198  23.752  0.00  0.00    +0.116 A 
ATOM     18  C   UNL     1      11.671   3.927  23.300  0.00  0.00    +0.048 A 
ATOM     19  C   UNL     1      10.349   3.538  23.332  0.00  0.00    +0.076 A 
ATOM     20  N   UNL     1       9.397   4.369  23.799  0.00  0.00    -0.214 NA
BRANCH  13  25
ATOM     21  C   UNL     1       3.890   4.946  27.535  0.00  0.00    +0.045 C 
ATOM     22  C   UNL     1       5.200   5.293  26.889  0.00  0.00    -0.032 A 
ATOM     23  C   UNL     1       5.188   5.924  25.636  0.00  0.00    +0.006 A 
ATOM     24  C   UNL     1       6.383   6.271  24.989  0.00  0.00    +0.023 A 
ATOM     25  C   UNL     1       7.625   6.018  25.585  0.00  0.00    +0.035 A 
ATOM     26  C   UNL     1       7.623   5.372  26.825  0.00  0.00    +0.043 A 
ATOM     27  C   UNL     1       6.437   5.038  27.486  0.00  0.00    +0.046 A 
ATOM     28 CL   UNL     1       6.585   4.325  29.054  0.00  0.00    -0.083 Cl
ENDBRANCH  13  25
ENDBRANCH   1  19
BRANCH   9  29
ATOM     29  C   UNL     1       8.677  -4.003  26.555  0.00  0.00    +0.099 C 
BRANCH  29  30
ATOM     30  C   UNL     1       8.924  -5.426  26.001  0.00  0.00    +0.093 C 
BRANCH  30  31
ATOM     31  N   UNL     1      10.295  -5.587  25.509  0.00  0.00    -0.329 NA
ATOM     32  H   UNL     1      10.848  -6.065  26.220  0.00  0.00    +0.118 HD
ATOM     33  H   UNL     1      10.292  -6.197  24.694  0.00  0.00    +0.118 HD
ENDBRANCH  30  31
ENDBRANCH  29  30
ENDBRANCH   9  29
TORSDOF 5
ENDMDL
MODEL 6
REMARK VINA RESULT:      -6.8      3.144      4.862
REMARK  Name = 
REMARK  6 active torsions:
REMARK  status: ('A' for Active; 'I' for Inactive)
REMARK    1  A    between atoms: C_1  and  C_2
REMARK    2  A    between atoms: C_6  and  N_7
REMARK    3  A    between atoms: C_10  and  C_14
REMARK    4  A    between atoms: N_23  and  C_24
REMARK    5  A    between atoms: C_24  and  C_25
REMARK    6  A    between atoms: C_25  and  N_26
REMARK                            x       y       z     vdW  Elec       q    Type
REMARK                         _______ _______ _______ _____ _____    ______ ____
ROOT
ATOM      1  C   UNL     1       9.306   0.950  22.771  0.00  0.00    +0.005 A 
ATOM      2  C   UNL     1       9.532   0.440  21.491  0.00  0.00    +0.030 A 
ATOM      3  C   UNL     1       9.437  -0.925  21.297  0.00  0.00    +0.113 A 
ATOM      4  N   UNL     1       9.126  -1.812  22.265  0.00  0.00    -0.240 NA
ATOM      5  C   UNL     1       8.900  -1.358  23.515  0.00  0.00    +0.122 A 
ATOM      6  N   UNL     1       8.623  -2.271  24.512  0.00  0.00    -0.313 N 
ATOM      7  C   UNL     1       8.907  -3.700  24.299  0.00  0.00    +0.122 C 
ATOM      8  C   UNL     1       7.621  -4.562  24.363  0.00  0.00    +0.103 C 
ATOM      9  N   UNL     1       6.752  -4.330  25.550  0.00  0.00    -0.298 NA
ATOM     10  C   UNL     1       6.471  -2.875  25.598  0.00  0.00    +0.103 C 
ATOM     11  C   UNL     1       7.716  -1.955  25.620  0.00  0.00    +0.122 C 
ATOM     12  C   UNL     1       8.996   0.013  23.779  0.00  0.00    +0.053 A 
ENDROOT
BRANCH   1  19
ATOM     13  N   UNL     1       7.099   5.107  23.455  0.00  0.00    -0.284 N 
ATOM     14  H   UNL     1       7.316   6.023  23.822  0.00  0.00    +0.155 HD
ATOM     15  C   UNL     1       8.298   4.391  23.357  0.00  0.00    +0.220 A 
ATOM     16  N   UNL     1       9.412   5.054  23.690  0.00  0.00    -0.223 NA
ATOM     17  C   UNL     1      10.551   4.338  23.736  0.00  0.00    +0.116 A 
ATOM     18  C   UNL     1      10.622   2.993  23.459  0.00  0.00    +0.048 A 
ATOM     19  C   UNL     1       9.441   2.388  23.085  0.00  0.00    +0.076 A 
ATOM     20  N   UNL     1       8.296   3.095  23.020  0.00  0.00    -0.214 NA
BRANCH  13  25
ATOM     21  C   UNL     1       1.835   3.151  24.709  0.00  0.00    +0.045 C 
ATOM     22  C   UNL     1       3.194   3.663  24.327  0.00  0.00    -0.032 A 
ATOM     23  C   UNL     1       4.077   4.055  25.344  0.00  0.00    +0.006 A 
ATOM     24  C   UNL     1       5.357   4.540  25.043  0.00  0.00    +0.023 A 
ATOM     25  C   UNL     1       5.803   4.626  23.718  0.00  0.00    +0.035 A 
ATOM     26  C   UNL     1       4.906   4.249  22.713  0.00  0.00    +0.043 A 
ATOM     27  C   UNL     1       3.634   3.748  23.004  0.00  0.00    +0.046 A 
ATOM     28 CL   UNL     1       2.666   3.236  21.667  0.00  0.00    -0.083 Cl
ENDBRANCH  13  25
ENDBRANCH   1  19
BRANCH   9  29
ATOM     29  C   UNL     1       7.396  -4.837  26.780  0.00  0.00    +0.099 C 
BRANCH  29  30
ATOM     30  C   UNL     1       6.399  -5.247  27.890  0.00  0.00    +0.093 C 
BRANCH  30  31
ATOM     31  N   UNL     1       6.865  -6.420  28.634  0.00  0.00    -0.329 NA
ATOM     32  H   UNL     1       7.808  -6.655  28.326  0.00  0.00    +0.118 HD
ATOM     33  H   UNL     1       6.938  -6.187  29.622  0.00  0.00    +0.118 HD
ENDBRANCH  30  31
ENDBRANCH  29  30
ENDBRANCH   9  29
TORSDOF 5
ENDMDL
MODEL 7
REMARK VINA RESULT:      -6.8      3.709      5.472
REMARK  Name = 
REMARK  6 active torsions:
REMARK  status: ('A' for Active; 'I' for Inactive)
REMARK    1  A    between atoms: C_1  and  C_2
REMARK    2  A    between atoms: C_6  and  N_7
REMARK    3  A    between atoms: C_10  and  C_14
REMARK    4  A    between atoms: N_23  and  C_24
REMARK    5  A    between atoms: C_24  and  C_25
REMARK    6  A    between atoms: C_25  and  N_26
REMARK                            x       y       z     vdW  Elec       q    Type
REMARK                         _______ _______ _______ _____ _____    ______ ____
ROOT
ATOM      1  C   UNL     1       9.487   0.435  23.707  0.00  0.00    +0.005 A 
ATOM      2  C   UNL     1      10.100  -0.059  22.554  0.00  0.00    +0.030 A 
ATOM      3  C   UNL     1      10.228  -1.428  22.409  0.00  0.00    +0.113 A 
ATOM      4  N   UNL     1       9.787  -2.334  23.307  0.00  0.00    -0.240 NA
ATOM      5  C   UNL     1       9.189  -1.895  24.433  0.00  0.00    +0.122 A 
ATOM      6  N   UNL     1       8.776  -2.821  25.370  0.00  0.00    -0.313 N 
ATOM      7  C   UNL     1       9.280  -4.203  25.307  0.00  0.00    +0.122 C 
ATOM      8  C   UNL     1       8.138  -5.226  25.080  0.00  0.00    +0.103 C 
ATOM      9  N   UNL     1       6.968  -5.093  25.991  0.00  0.00    -0.298 NA
ATOM     10  C   UNL     1       6.507  -3.687  25.895  0.00  0.00    +0.103 C 
ATOM     11  C   UNL     1       7.580  -2.611  26.190  0.00  0.00    +0.122 C 
ATOM     12  C   UNL     1       9.043  -0.519  24.646  0.00  0.00    +0.053 A 
ENDROOT
BRANCH   1  19
ATOM     13  N   UNL     1       7.087   3.877  25.947  0.00  0.00    -0.284 N 
ATOM     14  H   UNL     1       7.203   4.857  26.163  0.00  0.00    +0.155 HD
ATOM     15  C   UNL     1       8.106   3.512  25.059  0.00  0.00    +0.220 A 
ATOM     16  N   UNL     1       8.927   4.494  24.664  0.00  0.00    -0.223 NA
ATOM     17  C   UNL     1       9.992   4.130  23.926  0.00  0.00    +0.116 A 
ATOM     18  C   UNL     1      10.267   2.833  23.564  0.00  0.00    +0.048 A 
ATOM     19  C   UNL     1       9.356   1.883  23.974  0.00  0.00    +0.076 A 
ATOM     20  N   UNL     1       8.277   2.233  24.700  0.00  0.00    -0.214 NA
BRANCH  13  25
ATOM     21  C   UNL     1       4.337   0.699  29.877  0.00  0.00    +0.045 C 
ATOM     22  C   UNL     1       5.104   1.518  28.879  0.00  0.00    -0.032 A 
ATOM     23  C   UNL     1       4.446   1.955  27.719  0.00  0.00    +0.006 A 
ATOM     24  C   UNL     1       5.115   2.723  26.754  0.00  0.00    +0.023 A 
ATOM     25  C   UNL     1       6.453   3.096  26.931  0.00  0.00    +0.035 A 
ATOM     26  C   UNL     1       7.101   2.639  28.083  0.00  0.00    +0.043 A 
ATOM     27  C   UNL     1       6.439   1.888  29.058  0.00  0.00    +0.046 A 
ATOM     28 CL   UNL     1       7.339   1.468  30.473  0.00  0.00    -0.083 Cl
ENDBRANCH  13  25
ENDBRANCH   1  19
BRANCH   9  29
ATOM     29  C   UNL     1       7.326  -5.492  27.369  0.00  0.00    +0.099 C 
BRANCH  29  30
ATOM     30  C   UNL     1       6.110  -5.836  28.261  0.00  0.00    +0.093 C 
BRANCH  30  31
ATOM     31  N   UNL     1       6.105  -7.248  28.654  0.00  0.00    -0.329 NA
ATOM     32  H   UNL     1       5.896  -7.819  27.836  0.00  0.00    +0.118 HD
ATOM     33  H   UNL     1       7.039  -7.517  28.958  0.00  0.00    +0.118 HD
ENDBRANCH  30  31
ENDBRANCH  29  30
ENDBRANCH   9  29
TORSDOF 5
ENDMDL
MODEL 8
REMARK VINA RESULT:      -6.8      3.304      9.696
REMARK  Name = 
REMARK  6 active torsions:
REMARK  status: ('A' for Active; 'I' for Inactive)
REMARK    1  A    between atoms: C_1  and  C_2
REMARK    2  A    between atoms: C_6  and  N_7
REMARK    3  A    between atoms: C_10  and  C_14
REMARK    4  A    between atoms: N_23  and  C_24
REMARK    5  A    between atoms: C_24  and  C_25
REMARK    6  A    between atoms: C_25  and  N_26
REMARK                            x       y       z     vdW  Elec       q    Type
REMARK                         _______ _______ _______ _____ _____    ______ ____
ROOT
ATOM      1  C   UNL     1       7.408  -2.878  24.063  0.00  0.00    +0.005 A 
ATOM      2  C   UNL     1       7.947  -3.104  25.331  0.00  0.00    +0.030 A 
ATOM      3  C   UNL     1       8.517  -2.041  26.006  0.00  0.00    +0.113 A 
ATOM      4  N   UNL     1       8.578  -0.780  25.529  0.00  0.00    -0.240 NA
ATOM      5  C   UNL     1       8.067  -0.522  24.307  0.00  0.00    +0.122 A 
ATOM      6  N   UNL     1       8.169   0.759  23.803  0.00  0.00    -0.313 N 
ATOM      7  C   UNL     1       9.102   1.717  24.416  0.00  0.00    +0.122 C 
ATOM      8  C   UNL     1       8.367   2.949  25.003  0.00  0.00    +0.103 C 
ATOM      9  N   UNL     1       7.397   3.612  24.087  0.00  0.00    -0.298 NA
ATOM     10  C   UNL     1       6.468   2.560  23.611  0.00  0.00    +0.103 C 
ATOM     11  C   UNL     1       7.134   1.335  22.940  0.00  0.00    +0.122 C 
ATOM     12  C   UNL     1       7.491  -1.560  23.567  0.00  0.00    +0.053 A 
ENDROOT
BRANCH   1  19
ATOM     13  N   UNL     1       4.827  -6.872  23.983  0.00  0.00    -0.284 N 
ATOM     14  H   UNL     1       4.370  -7.459  23.301  0.00  0.00    +0.155 HD
ATOM     15  C   UNL     1       5.603  -5.935  23.291  0.00  0.00    +0.220 A 
ATOM     16  N   UNL     1       5.621  -6.052  21.958  0.00  0.00    -0.223 NA
ATOM     17  C   UNL     1       6.246  -5.076  21.274  0.00  0.00    +0.116 A 
ATOM     18  C   UNL     1       6.856  -3.995  21.866  0.00  0.00    +0.048 A 
ATOM     19  C   UNL     1       6.831  -3.964  23.244  0.00  0.00    +0.076 A 
ATOM     20  N   UNL     1       6.222  -4.942  23.943  0.00  0.00    -0.214 NA
BRANCH  13  25
ATOM     21  C   UNL     1       2.288  -6.329  29.119  0.00  0.00    +0.045 C 
ATOM     22  C   UNL     1       2.902  -6.454  27.754  0.00  0.00    -0.032 A 
ATOM     23  C   UNL     1       4.283  -6.679  27.655  0.00  0.00    +0.006 A 
ATOM     24  C   UNL     1       4.908  -6.804  26.406  0.00  0.00    +0.023 A 
ATOM     25  C   UNL     1       4.167  -6.731  25.219  0.00  0.00    +0.035 A 
ATOM     26  C   UNL     1       2.795  -6.488  25.332  0.00  0.00    +0.043 A 
ATOM     27  C   UNL     1       2.160  -6.379  26.573  0.00  0.00    +0.046 A 
ATOM     28 CL   UNL     1       0.444  -6.170  26.563  0.00  0.00    -0.083 Cl
ENDBRANCH  13  25
ENDBRANCH   1  19
BRANCH   9  29
ATOM     29  C   UNL     1       8.102   4.304  22.987  0.00  0.00    +0.099 C 
BRANCH  29  30
ATOM     30  C   UNL     1       7.746   5.803  22.853  0.00  0.00    +0.093 C 
BRANCH  30  31
ATOM     31  N   UNL     1       7.505   6.183  21.459  0.00  0.00    -0.329 NA
ATOM     32  H   UNL     1       7.332   7.187  21.415  0.00  0.00    +0.118 HD
ATOM     33  H   UNL     1       8.347   6.014  20.912  0.00  0.00    +0.118 HD
ENDBRANCH  30  31
ENDBRANCH  29  30
ENDBRANCH   9  29
TORSDOF 5
ENDMDL
MODEL 9
REMARK VINA RESULT:      -6.7      3.716      6.693
REMARK  Name = 
REMARK  6 active torsions:
REMARK  status: ('A' for Active; 'I' for Inactive)
REMARK    1  A    between atoms: C_1  and  C_2
REMARK    2  A    between atoms: C_6  and  N_7
REMARK    3  A    between atoms: C_10  and  C_14
REMARK    4  A    between atoms: N_23  and  C_24
REMARK    5  A    between atoms: C_24  and  C_25
REMARK    6  A    between atoms: C_25  and  N_26
REMARK                            x       y       z     vdW  Elec       q    Type
REMARK                         _______ _______ _______ _____ _____    ______ ____
ROOT
ATOM      1  C   UNL     1       4.104  -3.419  24.805  0.00  0.00    +0.005 A 
ATOM      2  C   UNL     1       2.740  -3.636  25.008  0.00  0.00    +0.030 A 
ATOM      3  C   UNL     1       2.134  -3.051  26.104  0.00  0.00    +0.113 A 
ATOM      4  N   UNL     1       2.770  -2.265  26.997  0.00  0.00    -0.240 NA
ATOM      5  C   UNL     1       4.088  -2.031  26.835  0.00  0.00    +0.122 A 
ATOM      6  N   UNL     1       4.746  -1.261  27.773  0.00  0.00    -0.313 N 
ATOM      7  C   UNL     1       4.118  -0.999  29.077  0.00  0.00    +0.122 C 
ATOM      8  C   UNL     1       3.861   0.513  29.303  0.00  0.00    +0.103 C 
ATOM      9  N   UNL     1       5.025   1.406  29.047  0.00  0.00    -0.298 NA
ATOM     10  C   UNL     1       5.505   1.103  27.677  0.00  0.00    +0.103 C 
ATOM     11  C   UNL     1       5.859  -0.380  27.407  0.00  0.00    +0.122 C 
ATOM     12  C   UNL     1       4.763  -2.608  25.753  0.00  0.00    +0.053 A 
ENDROOT
BRANCH   1  19
ATOM     13  N   UNL     1       7.748  -3.108  21.763  0.00  0.00    -0.284 N 
ATOM     14  H   UNL     1       8.246  -3.708  21.123  0.00  0.00    +0.155 HD
ATOM     15  C   UNL     1       6.617  -3.803  22.209  0.00  0.00    +0.220 A 
ATOM     16  N   UNL     1       6.420  -5.015  21.675  0.00  0.00    -0.223 NA
ATOM     17  C   UNL     1       5.420  -5.749  22.198  0.00  0.00    +0.116 A 
ATOM     18  C   UNL     1       4.610  -5.322  23.224  0.00  0.00    +0.048 A 
ATOM     19  C   UNL     1       4.849  -4.049  23.694  0.00  0.00    +0.076 A 
ATOM     20  N   UNL     1       5.836  -3.296  23.171  0.00  0.00    -0.214 NA
BRANCH  13  25
ATOM     21  C   UNL     1      10.917   0.689  24.706  0.00  0.00    +0.045 C 
ATOM     22  C   UNL     1      10.096  -0.269  23.891  0.00  0.00    -0.032 A 
ATOM     23  C   UNL     1       9.759  -1.512  24.450  0.00  0.00    +0.006 A 
ATOM     24  C   UNL     1       8.994  -2.443  23.734  0.00  0.00    +0.023 A 
ATOM     25  C   UNL     1       8.523  -2.152  22.447  0.00  0.00    +0.035 A 
ATOM     26  C   UNL     1       8.881  -0.918  21.895  0.00  0.00    +0.043 A 
ATOM     27  C   UNL     1       9.629   0.024  22.608  0.00  0.00    +0.046 A 
ATOM     28 CL   UNL     1       9.920   1.543  21.836  0.00  0.00    -0.083 Cl
ENDBRANCH  13  25
ENDBRANCH   1  19
BRANCH   9  29
ATOM     29  C   UNL     1       6.067   1.222  30.080  0.00  0.00    +0.099 C 
BRANCH  29  30
ATOM     30  C   UNL     1       7.374   2.001  29.803  0.00  0.00    +0.093 C 
BRANCH  30  31
ATOM     31  N   UNL     1       8.560   1.166  30.013  0.00  0.00    -0.329 NA
ATOM     32  H   UNL     1       9.388   1.694  29.741  0.00  0.00    +0.118 HD
ATOM     33  H   UNL     1       8.662   0.968  31.007  0.00  0.00    +0.118 HD
ENDBRANCH  30  31
ENDBRANCH  29  30
ENDBRANCH   9  29
TORSDOF 5
ENDMDL
