MODEL 1
REMARK VINA RESULT:      -6.3      0.000      0.000
REMARK  Name = 
REMARK  19 active torsions:
REMARK  status: ('A' for Active; 'I' for Inactive)
REMARK    1  A    between atoms: N_1  and  C_2
REMARK    2  A    between atoms: C_2  and  C_3
REMARK    3  A    between atoms: C_3  and  C_4
REMARK    4  A    between atoms: C_4  and  N_5
REMARK    5  A    between atoms: N_8  and  C_9
REMARK    6  A    between atoms: C_9  and  C_10
REMARK    7  A    between atoms: C_10  and  C_11
REMARK    8  A    between atoms: C_11  and  N_12
REMARK    9  A    between atoms: C_13  and  C_15
REMARK   10  A    between atoms: C_17  and  N_18
REMARK   11  A    between atoms: C_19  and  C_21
REMARK   12  A    between atoms: C_21  and  C_22
REMARK   13  A    between atoms: C_28  and  O_29
REMARK   14  A    between atoms: O_29  and  C_30
REMARK   15  A    between atoms: C_33  and  C_35
REMARK   16  A    between atoms: C_35  and  O_36
REMARK   17  A    between atoms: C_37  and  O_39
REMARK   18  A    between atoms: C_40  and  O_42
REMARK   19  A    between atoms: C_43  and  O_45
REMARK                            x       y       z     vdW  Elec       q    Type
REMARK                         _______ _______ _______ _____ _____    ______ ____
ROOT
ATOM      1  C   UNL     1       9.857   1.158  23.914  0.00  0.00    +0.042 A 
ATOM      2  C   UNL     1      10.119  -0.167  23.542  0.00  0.00    +0.059 A 
ATOM      3  C   UNL     1       9.644  -1.223  24.316  0.00  0.00    +0.126 A 
ATOM      4  C   UNL     1       8.896  -0.951  25.462  0.00  0.00    +0.069 A 
ATOM      5  C   UNL     1       8.599   0.363  25.821  0.00  0.00    +0.038 A 
ATOM      6  C   UNL     1       9.084   1.423  25.054  0.00  0.00    +0.036 A 
ENDROOT
BRANCH   5   7
ATOM      7  N   UNL     1       7.841   0.555  26.990  0.00  0.00    -0.285 N 
ATOM      8  H   UNL     1       8.280   0.295  27.867  0.00  0.00    +0.155 HD
ATOM      9  C   UNL     1       6.456   0.614  27.014  0.00  0.00    +0.222 C 
ATOM     10  O   UNL     1       5.727   0.510  26.030  0.00  0.00    -0.275 OA
BRANCH   9  11
ATOM     11  C   UNL     1       5.895   0.800  28.416  0.00  0.00    +0.138 C 
BRANCH  11  12
ATOM     12  C   UNL     1       6.143   2.199  28.907  0.00  0.00    -0.001 A 
ATOM     13  S   UNL     1       5.284   3.523  28.233  0.00  0.00    -0.101 S 
ATOM     14  C   UNL     1       6.062   4.636  29.261  0.00  0.00    +0.045 A 
ATOM     15  C   UNL     1       6.957   4.022  30.111  0.00  0.00    +0.008 A 
ATOM     16  C   UNL     1       6.997   2.615  29.911  0.00  0.00    +0.011 A 
ENDBRANCH  11  12
ENDBRANCH   9  11
ENDBRANCH   5   7
BRANCH   1  19
ATOM     17  N   UNL     1      11.058   3.282  23.801  0.00  0.00    -0.311 N 
ATOM     18  H   UNL     1      10.872   3.383  24.791  0.00  0.00    +0.149 HD
ATOM     19  C   UNL     1      10.481   2.242  23.103  0.00  0.00    +0.244 C 
ATOM     20  O   UNL     1      10.458   2.183  21.878  0.00  0.00    -0.270 OA
BRANCH  17  21
ATOM     21  C   UNL     1      11.679   4.390  23.108  0.00  0.00    +0.106 C 
BRANCH  21  22
ATOM     22  C   UNL     1      11.004   5.711  23.465  0.00  0.00    +0.034 C 
BRANCH  22  23
ATOM     23  C   UNL     1       9.935   5.544  24.550  0.00  0.00    +0.086 C 
BRANCH  23  27
ATOM     24  N   UNL     1       6.516   4.205  23.663  0.00  0.00    -0.300 NA
ATOM     25  C   UNL     1       6.993   4.478  25.041  0.00  0.00    +0.100 C 
ATOM     26  C   UNL     1       7.626   5.880  25.249  0.00  0.00    +0.100 C 
ATOM     27  N   UNL     1       8.672   6.246  24.269  0.00  0.00    -0.300 NA
ATOM     28  C   UNL     1       8.160   5.979  22.905  0.00  0.00    +0.100 C 
ATOM     29  C   UNL     1       7.609   4.546  22.724  0.00  0.00    +0.100 C 
BRANCH  24  30
ATOM     30  C   UNL     1       5.277   4.960  23.391  0.00  0.00    +0.086 C 
BRANCH  30  31
ATOM     31  C   UNL     1       4.109   4.591  24.316  0.00  0.00    +0.030 C 
BRANCH  31  32
ATOM     32  C   UNL     1       3.437   3.304  23.845  0.00  0.00    +0.079 C 
BRANCH  32  33
ATOM     33  N   UNL     1       4.353   2.178  23.982  0.00  0.00    -0.330 NA
ATOM     34  H   UNL     1       3.984   1.371  23.480  0.00  0.00    +0.118 HD
ATOM     35  H   UNL     1       5.246   2.408  23.550  0.00  0.00    +0.118 HD
ENDBRANCH  32  33
ENDBRANCH  31  32
ENDBRANCH  30  31
ENDBRANCH  24  30
ENDBRANCH  23  27
ENDBRANCH  22  23
ENDBRANCH  21  22
ENDBRANCH  17  21
ENDBRANCH   1  19
BRANCH   3  36
ATOM     36  O   UNL     1       9.958  -2.474  23.858  0.00  0.00    -0.461 OA
BRANCH  36  37
ATOM     37  C   UNL     1       8.929  -3.463  23.977  0.00  0.00    +0.339 C 
ATOM     38  C   UNL     1       9.185  -4.314  25.240  0.00  0.00    +0.214 C 
ATOM     39  C   UNL     1       8.011  -5.291  25.427  0.00  0.00    +0.180 C 
ATOM     40  C   UNL     1       6.660  -4.566  25.391  0.00  0.00    +0.177 C 
ATOM     41  C   UNL     1       6.561  -3.743  24.106  0.00  0.00    +0.179 C 
ATOM     42  O   UNL     1       7.650  -2.823  24.033  0.00  0.00    -0.331 OA
BRANCH  40  43
ATOM     43  O   UNL     1       5.612  -5.536  25.500  0.00  0.00    -0.386 OA
ATOM     44  H   UNL     1       5.159  -5.423  26.354  0.00  0.00    +0.210 HD
ENDBRANCH  40  43
BRANCH  38  45
ATOM     45  O   UNL     1      10.430  -5.022  25.099  0.00  0.00    -0.383 OA
ATOM     46  H   UNL     1      11.089  -4.431  24.697  0.00  0.00    +0.210 HD
ENDBRANCH  38  45
BRANCH  39  47
ATOM     47  O   UNL     1       8.145  -6.013  26.656  0.00  0.00    -0.386 OA
ATOM     48  H   UNL     1       8.383  -6.932  26.417  0.00  0.00    +0.210 HD
ENDBRANCH  39  47
BRANCH  41  49
ATOM     49  C   UNL     1       5.268  -2.930  24.041  0.00  0.00    +0.190 C 
BRANCH  49  50
ATOM     50  O   UNL     1       5.595  -1.540  23.956  0.00  0.00    -0.392 OA
ATOM     51  H   UNL     1       6.066  -1.333  24.787  0.00  0.00    +0.210 HD
ENDBRANCH  49  50
ENDBRANCH  41  49
ENDBRANCH  36  37
ENDBRANCH   3  36
TORSDOF 19
ENDMDL
MODEL 2
REMARK VINA RESULT:      -6.2      2.894      7.881
REMARK  Name = 
REMARK  19 active torsions:
REMARK  status: ('A' for Active; 'I' for Inactive)
REMARK    1  A    between atoms: N_1  and  C_2
REMARK    2  A    between atoms: C_2  and  C_3
REMARK    3  A    between atoms: C_3  and  C_4
REMARK    4  A    between atoms: C_4  and  N_5
REMARK    5  A    between atoms: N_8  and  C_9
REMARK    6  A    between atoms: C_9  and  C_10
REMARK    7  A    between atoms: C_10  and  C_11
REMARK    8  A    between atoms: C_11  and  N_12
REMARK    9  A    between atoms: C_13  and  C_15
REMARK   10  A    between atoms: C_17  and  N_18
REMARK   11  A    between atoms: C_19  and  C_21
REMARK   12  A    between atoms: C_21  and  C_22
REMARK   13  A    between atoms: C_28  and  O_29
REMARK   14  A    between atoms: O_29  and  C_30
REMARK   15  A    between atoms: C_33  and  C_35
REMARK   16  A    between atoms: C_35  and  O_36
REMARK   17  A    between atoms: C_37  and  O_39
REMARK   18  A    between atoms: C_40  and  O_42
REMARK   19  A    between atoms: C_43  and  O_45
REMARK                            x       y       z     vdW  Elec       q    Type
REMARK                         _______ _______ _______ _____ _____    ______ ____
ROOT
ATOM      1  C   UNL     1       5.221  -0.657  26.667  0.00  0.00    +0.042 A 
ATOM      2  C   UNL     1       6.578  -0.977  26.527  0.00  0.00    +0.059 A 
ATOM      3  C   UNL     1       7.502   0.008  26.183  0.00  0.00    +0.126 A 
ATOM      4  C   UNL     1       7.066   1.319  25.988  0.00  0.00    +0.069 A 
ATOM      5  C   UNL     1       5.724   1.654  26.161  0.00  0.00    +0.038 A 
ATOM      6  C   UNL     1       4.795   0.668  26.493  0.00  0.00    +0.036 A 
ENDROOT
BRANCH   5   7
ATOM      7  N   UNL     1       5.364   2.997  25.945  0.00  0.00    -0.285 N 
ATOM      8  H   UNL     1       5.182   3.560  26.769  0.00  0.00    +0.155 HD
ATOM      9  C   UNL     1       4.801   3.468  24.769  0.00  0.00    +0.222 C 
ATOM     10  O   UNL     1       4.552   2.782  23.780  0.00  0.00    -0.275 OA
BRANCH   9  11
ATOM     11  C   UNL     1       4.484   4.955  24.817  0.00  0.00    +0.138 C 
BRANCH  11  12
ATOM     12  C   UNL     1       5.512   5.744  24.057  0.00  0.00    -0.001 A 
ATOM     13  S   UNL     1       6.815   6.499  24.882  0.00  0.00    -0.101 S 
ATOM     14  C   UNL     1       7.468   7.107  23.432  0.00  0.00    +0.045 A 
ATOM     15  C   UNL     1       6.720   6.744  22.332  0.00  0.00    +0.008 A 
ATOM     16  C   UNL     1       5.597   5.952  22.693  0.00  0.00    +0.011 A 
ENDBRANCH  11  12
ENDBRANCH   9  11
ENDBRANCH   5   7
BRANCH   1  19
ATOM     17  N   UNL     1       4.593  -2.625  27.969  0.00  0.00    -0.311 N 
ATOM     18  H   UNL     1       5.521  -2.596  28.370  0.00  0.00    +0.149 HD
ATOM     19  C   UNL     1       4.270  -1.774  26.933  0.00  0.00    +0.244 C 
ATOM     20  O   UNL     1       3.267  -1.903  26.240  0.00  0.00    -0.270 OA
BRANCH  17  21
ATOM     21  C   UNL     1       3.743  -3.749  28.301  0.00  0.00    +0.106 C 
BRANCH  21  22
ATOM     22  C   UNL     1       4.541  -5.049  28.346  0.00  0.00    +0.034 C 
BRANCH  22  23
ATOM     23  C   UNL     1       6.024  -4.832  28.024  0.00  0.00    +0.086 C 
BRANCH  23  27
ATOM     24  N   UNL     1       7.379  -4.071  24.581  0.00  0.00    -0.300 NA
ATOM     25  C   UNL     1       8.192  -4.143  25.820  0.00  0.00    +0.100 C 
ATOM     26  C   UNL     1       7.968  -5.417  26.678  0.00  0.00    +0.100 C 
ATOM     27  N   UNL     1       6.553  -5.727  26.981  0.00  0.00    -0.300 NA
ATOM     28  C   UNL     1       5.773  -5.664  25.724  0.00  0.00    +0.100 C 
ATOM     29  C   UNL     1       5.970  -4.345  24.942  0.00  0.00    +0.100 C 
BRANCH  24  30
ATOM     30  C   UNL     1       7.901  -5.013  23.571  0.00  0.00    +0.086 C 
BRANCH  30  31
ATOM     31  C   UNL     1       7.312  -4.808  22.169  0.00  0.00    +0.030 C 
BRANCH  31  32
ATOM     32  C   UNL     1       6.679  -6.100  21.658  0.00  0.00    +0.079 C 
BRANCH  32  33
ATOM     33  N   UNL     1       5.231  -6.052  21.825  0.00  0.00    -0.330 NA
ATOM     34  H   UNL     1       4.775  -6.368  20.969  0.00  0.00    +0.118 HD
ATOM     35  H   UNL     1       4.950  -6.698  22.561  0.00  0.00    +0.118 HD
ENDBRANCH  32  33
ENDBRANCH  31  32
ENDBRANCH  30  31
ENDBRANCH  24  30
ENDBRANCH  23  27
ENDBRANCH  22  23
ENDBRANCH  21  22
ENDBRANCH  17  21
ENDBRANCH   1  19
BRANCH   3  36
ATOM     36  O   UNL     1       8.798  -0.417  26.075  0.00  0.00    -0.461 OA
BRANCH  36  37
ATOM     37  C   UNL     1       9.560   0.157  25.007  0.00  0.00    +0.339 C 
ATOM     38  C   UNL     1       9.280  -0.623  23.705  0.00  0.00    +0.214 C 
ATOM     39  C   UNL     1      10.005   0.074  22.541  0.00  0.00    +0.180 C 
ATOM     40  C   UNL     1       9.679   1.572  22.487  0.00  0.00    +0.177 C 
ATOM     41  C   UNL     1       9.974   2.204  23.848  0.00  0.00    +0.179 C 
ATOM     42  O   UNL     1       9.223   1.541  24.865  0.00  0.00    -0.331 OA
BRANCH  40  43
ATOM     43  O   UNL     1      10.436   2.173  21.431  0.00  0.00    -0.386 OA
ATOM     44  H   UNL     1      11.325   1.776  21.408  0.00  0.00    +0.210 HD
ENDBRANCH  40  43
BRANCH  38  45
ATOM     45  O   UNL     1       9.728  -1.983  23.852  0.00  0.00    -0.383 OA
ATOM     46  H   UNL     1      10.594  -1.987  24.294  0.00  0.00    +0.210 HD
ENDBRANCH  38  45
BRANCH  39  47
ATOM     47  O   UNL     1       9.671  -0.542  21.293  0.00  0.00    -0.386 OA
ATOM     48  H   UNL     1      10.402  -0.340  20.675  0.00  0.00    +0.210 HD
ENDBRANCH  39  47
BRANCH  41  49
ATOM     49  C   UNL     1       9.597   3.685  23.890  0.00  0.00    +0.190 C 
BRANCH  49  50
ATOM     50  O   UNL     1       8.763   3.986  22.768  0.00  0.00    -0.392 OA
ATOM     51  H   UNL     1       9.355   4.396  22.107  0.00  0.00    +0.210 HD
ENDBRANCH  49  50
ENDBRANCH  41  49
ENDBRANCH  36  37
ENDBRANCH   3  36
TORSDOF 19
ENDMDL
MODEL 3
REMARK VINA RESULT:      -6.2      1.602      2.189
REMARK  Name = 
REMARK  19 active torsions:
REMARK  status: ('A' for Active; 'I' for Inactive)
REMARK    1  A    between atoms: N_1  and  C_2
REMARK    2  A    between atoms: C_2  and  C_3
REMARK    3  A    between atoms: C_3  and  C_4
REMARK    4  A    between atoms: C_4  and  N_5
REMARK    5  A    between atoms: N_8  and  C_9
REMARK    6  A    between atoms: C_9  and  C_10
REMARK    7  A    between atoms: C_10  and  C_11
REMARK    8  A    between atoms: C_11  and  N_12
REMARK    9  A    between atoms: C_13  and  C_15
REMARK   10  A    between atoms: C_17  and  N_18
REMARK   11  A    between atoms: C_19  and  C_21
REMARK   12  A    between atoms: C_21  and  C_22
REMARK   13  A    between atoms: C_28  and  O_29
REMARK   14  A    between atoms: O_29  and  C_30
REMARK   15  A    between atoms: C_33  and  C_35
REMARK   16  A    between atoms: C_35  and  O_36
REMARK   17  A    between atoms: C_37  and  O_39
REMARK   18  A    between atoms: C_40  and  O_42
REMARK   19  A    between atoms: C_43  and  O_45
REMARK                            x       y       z     vdW  Elec       q    Type
REMARK                         _______ _______ _______ _____ _____    ______ ____
ROOT
ATOM      1  C   UNL     1       9.479   0.915  23.943  0.00  0.00    +0.042 A 
ATOM      2  C   UNL     1       9.912  -0.410  23.794  0.00  0.00    +0.059 A 
ATOM      3  C   UNL     1       9.359  -1.423  24.573  0.00  0.00    +0.126 A 
ATOM      4  C   UNL     1       8.362  -1.111  25.498  0.00  0.00    +0.069 A 
ATOM      5  C   UNL     1       7.899   0.198  25.629  0.00  0.00    +0.038 A 
ATOM      6  C   UNL     1       8.461   1.217  24.859  0.00  0.00    +0.036 A 
ENDROOT
BRANCH   5   7
ATOM      7  N   UNL     1       6.894   0.432  26.584  0.00  0.00    -0.285 N 
ATOM      8  H   UNL     1       7.119   0.211  27.549  0.00  0.00    +0.155 HD
ATOM      9  C   UNL     1       5.540   0.483  26.288  0.00  0.00    +0.222 C 
ATOM     10  O   UNL     1       5.056   0.335  25.168  0.00  0.00    -0.275 OA
BRANCH   9  11
ATOM     11  C   UNL     1       4.673   0.722  27.514  0.00  0.00    +0.138 C 
BRANCH  11  12
ATOM     12  C   UNL     1       4.391  -0.571  28.227  0.00  0.00    -0.001 A 
ATOM     13  S   UNL     1       3.966  -0.573  29.890  0.00  0.00    -0.101 S 
ATOM     14  C   UNL     1       3.806  -2.268  29.915  0.00  0.00    +0.045 A 
ATOM     15  C   UNL     1       4.064  -2.834  28.684  0.00  0.00    +0.008 A 
ATOM     16  C   UNL     1       4.394  -1.853  27.710  0.00  0.00    +0.011 A 
ENDBRANCH  11  12
ENDBRANCH   9  11
ENDBRANCH   5   7
BRANCH   1  19
ATOM     17  N   UNL     1      10.710   3.023  23.870  0.00  0.00    -0.311 N 
ATOM     18  H   UNL     1      10.441   3.157  24.836  0.00  0.00    +0.149 HD
ATOM     19  C   UNL     1      10.183   1.966  23.156  0.00  0.00    +0.244 C 
ATOM     20  O   UNL     1      10.264   1.869  21.937  0.00  0.00    -0.270 OA
BRANCH  17  21
ATOM     21  C   UNL     1      11.402   4.103  23.199  0.00  0.00    +0.106 C 
BRANCH  21  22
ATOM     22  C   UNL     1      10.926   5.461  23.707  0.00  0.00    +0.034 C 
BRANCH  22  23
ATOM     23  C   UNL     1       9.627   5.358  24.515  0.00  0.00    +0.086 C 
BRANCH  23  27
ATOM     24  N   UNL     1       6.135   4.564  23.313  0.00  0.00    -0.300 NA
ATOM     25  C   UNL     1       6.506   4.862  24.719  0.00  0.00    +0.100 C 
ATOM     26  C   UNL     1       7.357   6.145  24.914  0.00  0.00    +0.100 C 
ATOM     27  N   UNL     1       8.550   6.243  24.044  0.00  0.00    -0.300 NA
ATOM     28  C   UNL     1       8.144   5.959  22.648  0.00  0.00    +0.100 C 
ATOM     29  C   UNL     1       7.365   4.634  22.491  0.00  0.00    +0.100 C 
BRANCH  24  30
ATOM     30  C   UNL     1       5.089   5.499  22.851  0.00  0.00    +0.086 C 
BRANCH  30  31
ATOM     31  C   UNL     1       3.662   4.955  22.999  0.00  0.00    +0.030 C 
BRANCH  31  32
ATOM     32  C   UNL     1       3.570   3.531  22.454  0.00  0.00    +0.079 C 
BRANCH  32  33
ATOM     33  N   UNL     1       3.909   2.570  23.497  0.00  0.00    -0.330 NA
ATOM     34  H   UNL     1       4.491   1.829  23.106  0.00  0.00    +0.118 HD
ATOM     35  H   UNL     1       4.462   3.028  24.218  0.00  0.00    +0.118 HD
ENDBRANCH  32  33
ENDBRANCH  31  32
ENDBRANCH  30  31
ENDBRANCH  24  30
ENDBRANCH  23  27
ENDBRANCH  22  23
ENDBRANCH  21  22
ENDBRANCH  17  21
ENDBRANCH   1  19
BRANCH   3  36
ATOM     36  O   UNL     1       9.855  -2.677  24.342  0.00  0.00    -0.461 OA
BRANCH  36  37
ATOM     37  C   UNL     1       8.894  -3.738  24.313  0.00  0.00    +0.339 C 
ATOM     38  C   UNL     1       8.843  -4.418  25.698  0.00  0.00    +0.214 C 
ATOM     39  C   UNL     1       7.723  -5.472  25.694  0.00  0.00    +0.180 C 
ATOM     40  C   UNL     1       6.393  -4.884  25.208  0.00  0.00    +0.177 C 
ATOM     41  C   UNL     1       6.601  -4.220  23.846  0.00  0.00    +0.179 C 
ATOM     42  O   UNL     1       7.612  -3.217  23.944  0.00  0.00    -0.331 OA
BRANCH  40  43
ATOM     43  O   UNL     1       5.414  -5.928  25.161  0.00  0.00    -0.386 OA
ATOM     44  H   UNL     1       5.011  -6.029  26.042  0.00  0.00    +0.210 HD
ENDBRANCH  40  43
BRANCH  38  45
ATOM     45  O   UNL     1      10.119  -5.019  25.986  0.00  0.00    -0.383 OA
ATOM     46  H   UNL     1      10.699  -4.920  25.213  0.00  0.00    +0.210 HD
ENDBRANCH  38  45
BRANCH  39  47
ATOM     47  O   UNL     1       7.556  -6.040  26.998  0.00  0.00    -0.386 OA
ATOM     48  H   UNL     1       7.232  -6.954  26.867  0.00  0.00    +0.210 HD
ENDBRANCH  39  47
BRANCH  41  49
ATOM     49  C   UNL     1       5.330  -3.541  23.334  0.00  0.00    +0.190 C 
BRANCH  49  50
ATOM     50  O   UNL     1       4.543  -4.501  22.623  0.00  0.00    -0.392 OA
ATOM     51  H   UNL     1       4.624  -5.331  23.131  0.00  0.00    +0.210 HD
ENDBRANCH  49  50
ENDBRANCH  41  49
ENDBRANCH  36  37
ENDBRANCH   3  36
TORSDOF 19
ENDMDL
MODEL 4
REMARK VINA RESULT:      -6.1      3.781      7.589
REMARK  Name = 
REMARK  19 active torsions:
REMARK  status: ('A' for Active; 'I' for Inactive)
REMARK    1  A    between atoms: N_1  and  C_2
REMARK    2  A    between atoms: C_2  and  C_3
REMARK    3  A    between atoms: C_3  and  C_4
REMARK    4  A    between atoms: C_4  and  N_5
REMARK    5  A    between atoms: N_8  and  C_9
REMARK    6  A    between atoms: C_9  and  C_10
REMARK    7  A    between atoms: C_10  and  C_11
REMARK    8  A    between atoms: C_11  and  N_12
REMARK    9  A    between atoms: C_13  and  C_15
REMARK   10  A    between atoms: C_17  and  N_18
REMARK   11  A    between atoms: C_19  and  C_21
REMARK   12  A    between atoms: C_21  and  C_22
REMARK   13  A    between atoms: C_28  and  O_29
REMARK   14  A    between atoms: O_29  and  C_30
REMARK   15  A    between atoms: C_33  and  C_35
REMARK   16  A    between atoms: C_35  and  O_36
REMARK   17  A    between atoms: C_37  and  O_39
REMARK   18  A    between atoms: C_40  and  O_42
REMARK   19  A    between atoms: C_43  and  O_45
REMARK                            x       y       z     vdW  Elec       q    Type
REMARK                         _______ _______ _______ _____ _____    ______ ____
ROOT
ATOM      1  C   UNL     1       6.641  -0.484  26.692  0.00  0.00    +0.042 A 
ATOM      2  C   UNL     1       7.192  -1.767  26.801  0.00  0.00    +0.059 A 
ATOM      3  C   UNL     1       8.240  -2.156  25.971  0.00  0.00    +0.126 A 
ATOM      4  C   UNL     1       8.745  -1.254  25.034  0.00  0.00    +0.069 A 
ATOM      5  C   UNL     1       8.227   0.037  24.941  0.00  0.00    +0.038 A 
ATOM      6  C   UNL     1       7.168   0.425  25.763  0.00  0.00    +0.036 A 
ENDROOT
BRANCH   5   7
ATOM      7  N   UNL     1       8.788   0.887  23.971  0.00  0.00    -0.285 N 
ATOM      8  H   UNL     1       8.332   0.910  23.064  0.00  0.00    +0.155 HD
ATOM      9  C   UNL     1      10.108   1.311  23.982  0.00  0.00    +0.222 C 
ATOM     10  O   UNL     1      10.942   1.003  24.830  0.00  0.00    -0.275 OA
BRANCH   9  11
ATOM     11  C   UNL     1      10.455   2.200  22.798  0.00  0.00    +0.138 C 
BRANCH  11  12
ATOM     12  C   UNL     1      10.728   3.607  23.250  0.00  0.00    -0.001 A 
ATOM     13  S   UNL     1       9.472   4.564  23.922  0.00  0.00    -0.101 S 
ATOM     14  C   UNL     1      10.519   5.884  24.171  0.00  0.00    +0.045 A 
ATOM     15  C   UNL     1      11.807   5.610  23.759  0.00  0.00    +0.008 A 
ATOM     16  C   UNL     1      11.928   4.294  23.236  0.00  0.00    +0.011 A 
ENDBRANCH  11  12
ENDBRANCH   9  11
ENDBRANCH   5   7
BRANCH   1  19
ATOM     17  N   UNL     1       4.224  -0.210  26.913  0.00  0.00    -0.311 N 
ATOM     18  H   UNL     1       4.176  -0.254  25.903  0.00  0.00    +0.149 HD
ATOM     19  C   UNL     1       5.454  -0.165  27.535  0.00  0.00    +0.244 C 
ATOM     20  O   UNL     1       5.602   0.126  28.717  0.00  0.00    -0.270 OA
BRANCH  17  21
ATOM     21  C   UNL     1       3.010   0.094  27.640  0.00  0.00    +0.106 C 
BRANCH  21  22
ATOM     22  C   UNL     1       1.854  -0.786  27.174  0.00  0.00    +0.034 C 
BRANCH  22  23
ATOM     23  C   UNL     1       2.017  -2.244  27.618  0.00  0.00    +0.086 C 
BRANCH  23  27
ATOM     24  N   UNL     1       2.226  -5.671  26.044  0.00  0.00    -0.300 NA
ATOM     25  C   UNL     1       2.094  -5.407  27.498  0.00  0.00    +0.100 C 
ATOM     26  C   UNL     1       0.959  -4.421  27.885  0.00  0.00    +0.100 C 
ATOM     27  N   UNL     1       0.957  -3.145  27.137  0.00  0.00    -0.300 NA
ATOM     28  C   UNL     1       1.072  -3.442  25.691  0.00  0.00    +0.100 C 
ATOM     29  C   UNL     1       2.261  -4.367  25.344  0.00  0.00    +0.100 C 
BRANCH  24  30
ATOM     30  C   UNL     1       1.123  -6.536  25.579  0.00  0.00    +0.086 C 
BRANCH  30  31
ATOM     31  C   UNL     1       1.260  -6.983  24.117  0.00  0.00    +0.030 C 
BRANCH  31  32
ATOM     32  C   UNL     1       1.952  -8.342  24.034  0.00  0.00    +0.079 C 
BRANCH  32  33
ATOM     33  N   UNL     1       2.997  -8.439  25.046  0.00  0.00    -0.330 NA
ATOM     34  H   UNL     1       3.899  -8.201  24.634  0.00  0.00    +0.118 HD
ATOM     35  H   UNL     1       2.823  -7.757  25.783  0.00  0.00    +0.118 HD
ENDBRANCH  32  33
ENDBRANCH  31  32
ENDBRANCH  30  31
ENDBRANCH  24  30
ENDBRANCH  23  27
ENDBRANCH  22  23
ENDBRANCH  21  22
ENDBRANCH  17  21
ENDBRANCH   1  19
BRANCH   3  36
ATOM     36  O   UNL     1       8.701  -3.430  26.166  0.00  0.00    -0.461 OA
BRANCH  36  37
ATOM     37  C   UNL     1       8.012  -4.464  25.454  0.00  0.00    +0.339 C 
ATOM     38  C   UNL     1       6.971  -5.119  26.387  0.00  0.00    +0.214 C 
ATOM     39  C   UNL     1       6.153  -6.141  25.579  0.00  0.00    +0.180 C 
ATOM     40  C   UNL     1       5.582  -5.523  24.298  0.00  0.00    +0.177 C 
ATOM     41  C   UNL     1       6.716  -4.888  23.493  0.00  0.00    +0.179 C 
ATOM     42  O   UNL     1       7.389  -3.912  24.289  0.00  0.00    -0.331 OA
BRANCH  40  43
ATOM     43  O   UNL     1       4.894  -6.540  23.561  0.00  0.00    -0.386 OA
ATOM     44  H   UNL     1       4.933  -7.377  24.056  0.00  0.00    +0.210 HD
ENDBRANCH  40  43
BRANCH  38  45
ATOM     45  O   UNL     1       7.645  -5.751  27.491  0.00  0.00    -0.383 OA
ATOM     46  H   UNL     1       8.507  -6.083  27.189  0.00  0.00    +0.210 HD
ENDBRANCH  38  45
BRANCH  39  47
ATOM     47  O   UNL     1       5.092  -6.683  26.374  0.00  0.00    -0.386 OA
ATOM     48  H   UNL     1       4.255  -6.372  25.974  0.00  0.00    +0.210 HD
ENDBRANCH  39  47
BRANCH  41  49
ATOM     49  C   UNL     1       6.207  -4.182  22.235  0.00  0.00    +0.190 C 
BRANCH  49  50
ATOM     50  O   UNL     1       4.807  -3.923  22.381  0.00  0.00    -0.392 OA
ATOM     51  H   UNL     1       4.579  -4.229  23.280  0.00  0.00    +0.210 HD
ENDBRANCH  49  50
ENDBRANCH  41  49
ENDBRANCH  36  37
ENDBRANCH   3  36
TORSDOF 19
ENDMDL
MODEL 5
REMARK VINA RESULT:      -6.1      3.543      8.081
REMARK  Name = 
REMARK  19 active torsions:
REMARK  status: ('A' for Active; 'I' for Inactive)
REMARK    1  A    between atoms: N_1  and  C_2
REMARK    2  A    between atoms: C_2  and  C_3
REMARK    3  A    between atoms: C_3  and  C_4
REMARK    4  A    between atoms: C_4  and  N_5
REMARK    5  A    between atoms: N_8  and  C_9
REMARK    6  A    between atoms: C_9  and  C_10
REMARK    7  A    between atoms: C_10  and  C_11
REMARK    8  A    between atoms: C_11  and  N_12
REMARK    9  A    between atoms: C_13  and  C_15
REMARK   10  A    between atoms: C_17  and  N_18
REMARK   11  A    between atoms: C_19  and  C_21
REMARK   12  A    between atoms: C_21  and  C_22
REMARK   13  A    between atoms: C_28  and  O_29
REMARK   14  A    between atoms: O_29  and  C_30
REMARK   15  A    between atoms: C_33  and  C_35
REMARK   16  A    between atoms: C_35  and  O_36
REMARK   17  A    between atoms: C_37  and  O_39
REMARK   18  A    between atoms: C_40  and  O_42
REMARK   19  A    between atoms: C_43  and  O_45
REMARK                            x       y       z     vdW  Elec       q    Type
REMARK                         _______ _______ _______ _____ _____    ______ ____
ROOT
ATOM      1  C   UNL     1       8.432  -2.968  24.803  0.00  0.00    +0.042 A 
ATOM      2  C   UNL     1       9.457  -2.062  24.497  0.00  0.00    +0.059 A 
ATOM      3  C   UNL     1       9.453  -0.782  25.047  0.00  0.00    +0.126 A 
ATOM      4  C   UNL     1       8.424  -0.411  25.913  0.00  0.00    +0.069 A 
ATOM      5  C   UNL     1       7.420  -1.317  26.253  0.00  0.00    +0.038 A 
ATOM      6  C   UNL     1       7.415  -2.595  25.693  0.00  0.00    +0.036 A 
ENDROOT
BRANCH   5   7
ATOM      7  N   UNL     1       6.418  -0.867  27.132  0.00  0.00    -0.285 N 
ATOM      8  H   UNL     1       6.415  -1.266  28.064  0.00  0.00    +0.155 HD
ATOM      9  C   UNL     1       5.214  -0.317  26.717  0.00  0.00    +0.222 C 
ATOM     10  O   UNL     1       4.878  -0.154  25.547  0.00  0.00    -0.275 OA
BRANCH   9  11
ATOM     11  C   UNL     1       4.303   0.057  27.877  0.00  0.00    +0.138 C 
BRANCH  11  12
ATOM     12  C   UNL     1       2.891  -0.380  27.606  0.00  0.00    -0.001 A 
ATOM     13  S   UNL     1       1.672   0.780  27.265  0.00  0.00    -0.101 S 
ATOM     14  C   UNL     1       0.485  -0.426  27.074  0.00  0.00    +0.045 A 
ATOM     15  C   UNL     1       0.997  -1.693  27.259  0.00  0.00    +0.008 A 
ATOM     16  C   UNL     1       2.386  -1.666  27.558  0.00  0.00    +0.011 A 
ENDBRANCH  11  12
ENDBRANCH   9  11
ENDBRANCH   5   7
BRANCH   1  19
ATOM     17  N   UNL     1       7.573  -4.417  23.036  0.00  0.00    -0.311 N 
ATOM     18  H   UNL     1       6.846  -3.729  22.892  0.00  0.00    +0.149 HD
ATOM     19  C   UNL     1       8.438  -4.283  24.101  0.00  0.00    +0.244 C 
ATOM     20  O   UNL     1       9.181  -5.179  24.484  0.00  0.00    -0.270 OA
BRANCH  17  21
ATOM     21  C   UNL     1       7.491  -5.658  22.295  0.00  0.00    +0.106 C 
BRANCH  21  22
ATOM     22  C   UNL     1       6.048  -5.985  21.925  0.00  0.00    +0.034 C 
BRANCH  22  23
ATOM     23  C   UNL     1       5.045  -5.049  22.610  0.00  0.00    +0.086 C 
BRANCH  23  27
ATOM     24  N   UNL     1       4.713  -5.098  26.373  0.00  0.00    -0.300 NA
ATOM     25  C   UNL     1       4.043  -4.129  25.470  0.00  0.00    +0.100 C 
ATOM     26  C   UNL     1       3.288  -4.764  24.272  0.00  0.00    +0.100 C 
ATOM     27  N   UNL     1       4.074  -5.734  23.479  0.00  0.00    -0.300 NA
ATOM     28  C   UNL     1       4.715  -6.696  24.405  0.00  0.00    +0.100 C 
ATOM     29  C   UNL     1       5.518  -6.018  25.538  0.00  0.00    +0.100 C 
BRANCH  24  30
ATOM     30  C   UNL     1       3.713  -5.806  27.196  0.00  0.00    +0.086 C 
BRANCH  30  31
ATOM     31  C   UNL     1       3.858  -5.553  28.703  0.00  0.00    +0.030 C 
BRANCH  31  32
ATOM     32  C   UNL     1       5.125  -6.216  29.239  0.00  0.00    +0.079 C 
BRANCH  32  33
ATOM     33  N   UNL     1       5.318  -7.517  28.610  0.00  0.00    -0.330 NA
ATOM     34  H   UNL     1       4.413  -7.934  28.396  0.00  0.00    +0.118 HD
ATOM     35  H   UNL     1       5.803  -7.399  27.722  0.00  0.00    +0.118 HD
ENDBRANCH  32  33
ENDBRANCH  31  32
ENDBRANCH  30  31
ENDBRANCH  24  30
ENDBRANCH  23  27
ENDBRANCH  22  23
ENDBRANCH  21  22
ENDBRANCH  17  21
ENDBRANCH   1  19
BRANCH   3  36
ATOM     36  O   UNL     1      10.501   0.017  24.680  0.00  0.00    -0.461 OA
BRANCH  36  37
ATOM     37  C   UNL     1      10.163   1.202  23.950  0.00  0.00    +0.339 C 
ATOM     38  C   UNL     1       9.365   0.813  22.687  0.00  0.00    +0.214 C 
ATOM     39  C   UNL     1       8.902   2.096  21.977  0.00  0.00    +0.180 C 
ATOM     40  C   UNL     1       8.177   3.045  22.939  0.00  0.00    +0.177 C 
ATOM     41  C   UNL     1       9.069   3.316  24.151  0.00  0.00    +0.179 C 
ATOM     42  O   UNL     1       9.409   2.084  24.789  0.00  0.00    -0.331 OA
BRANCH  40  43
ATOM     43  O   UNL     1       7.835   4.245  22.236  0.00  0.00    -0.386 OA
ATOM     44  H   UNL     1       7.184   4.035  21.542  0.00  0.00    +0.210 HD
ENDBRANCH  40  43
BRANCH  38  45
ATOM     45  O   UNL     1      10.193   0.013  21.823  0.00  0.00    -0.383 OA
ATOM     46  H   UNL     1       9.709  -0.792  21.573  0.00  0.00    +0.210 HD
ENDBRANCH  38  45
BRANCH  39  47
ATOM     47  O   UNL     1       8.051   1.783  20.869  0.00  0.00    -0.386 OA
ATOM     48  H   UNL     1       7.138   1.996  21.147  0.00  0.00    +0.210 HD
ENDBRANCH  39  47
BRANCH  41  49
ATOM     49  C   UNL     1       8.376   4.196  25.193  0.00  0.00    +0.190 C 
BRANCH  49  50
ATOM     50  O   UNL     1       9.068   5.444  25.282  0.00  0.00    -0.392 OA
ATOM     51  H   UNL     1       9.969   5.221  25.589  0.00  0.00    +0.210 HD
ENDBRANCH  49  50
ENDBRANCH  41  49
ENDBRANCH  36  37
ENDBRANCH   3  36
TORSDOF 19
ENDMDL
MODEL 6
REMARK VINA RESULT:      -6.1      3.022      7.631
REMARK  Name = 
REMARK  19 active torsions:
REMARK  status: ('A' for Active; 'I' for Inactive)
REMARK    1  A    between atoms: N_1  and  C_2
REMARK    2  A    between atoms: C_2  and  C_3
REMARK    3  A    between atoms: C_3  and  C_4
REMARK    4  A    between atoms: C_4  and  N_5
REMARK    5  A    between atoms: N_8  and  C_9
REMARK    6  A    between atoms: C_9  and  C_10
REMARK    7  A    between atoms: C_10  and  C_11
REMARK    8  A    between atoms: C_11  and  N_12
REMARK    9  A    between atoms: C_13  and  C_15
REMARK   10  A    between atoms: C_17  and  N_18
REMARK   11  A    between atoms: C_19  and  C_21
REMARK   12  A    between atoms: C_21  and  C_22
REMARK   13  A    between atoms: C_28  and  O_29
REMARK   14  A    between atoms: O_29  and  C_30
REMARK   15  A    between atoms: C_33  and  C_35
REMARK   16  A    between atoms: C_35  and  O_36
REMARK   17  A    between atoms: C_37  and  O_39
REMARK   18  A    between atoms: C_40  and  O_42
REMARK   19  A    between atoms: C_43  and  O_45
REMARK                            x       y       z     vdW  Elec       q    Type
REMARK                         _______ _______ _______ _____ _____    ______ ____
ROOT
ATOM      1  C   UNL     1       5.456   0.007  26.920  0.00  0.00    +0.042 A 
ATOM      2  C   UNL     1       6.731  -0.559  26.791  0.00  0.00    +0.059 A 
ATOM      3  C   UNL     1       7.810   0.220  26.381  0.00  0.00    +0.126 A 
ATOM      4  C   UNL     1       7.614   1.574  26.109  0.00  0.00    +0.069 A 
ATOM      5  C   UNL     1       6.357   2.156  26.269  0.00  0.00    +0.038 A 
ATOM      6  C   UNL     1       5.272   1.374  26.667  0.00  0.00    +0.036 A 
ENDROOT
BRANCH   5   7
ATOM      7  N   UNL     1       6.240   3.526  25.973  0.00  0.00    -0.285 N 
ATOM      8  H   UNL     1       6.101   3.774  24.999  0.00  0.00    +0.155 HD
ATOM      9  C   UNL     1       6.744   4.538  26.776  0.00  0.00    +0.222 C 
ATOM     10  O   UNL     1       7.347   4.366  27.833  0.00  0.00    -0.275 OA
BRANCH   9  11
ATOM     11  C   UNL     1       6.502   5.926  26.204  0.00  0.00    +0.138 C 
BRANCH  11  12
ATOM     12  C   UNL     1       7.305   6.132  24.950  0.00  0.00    -0.001 A 
ATOM     13  S   UNL     1       6.521   6.288  23.431  0.00  0.00    -0.101 S 
ATOM     14  C   UNL     1       8.001   6.495  22.614  0.00  0.00    +0.045 A 
ATOM     15  C   UNL     1       9.079   6.455  23.473  0.00  0.00    +0.008 A 
ATOM     16  C   UNL     1       8.676   6.253  24.820  0.00  0.00    +0.011 A 
ENDBRANCH  11  12
ENDBRANCH   9  11
ENDBRANCH   5   7
BRANCH   1  19
ATOM     17  N   UNL     1       4.511  -1.740  28.340  0.00  0.00    -0.311 N 
ATOM     18  H   UNL     1       5.437  -1.858  28.728  0.00  0.00    +0.149 HD
ATOM     19  C   UNL     1       4.326  -0.902  27.260  0.00  0.00    +0.244 C 
ATOM     20  O   UNL     1       3.301  -0.886  26.587  0.00  0.00    -0.270 OA
BRANCH  17  21
ATOM     21  C   UNL     1       3.479  -2.671  28.745  0.00  0.00    +0.106 C 
BRANCH  21  22
ATOM     22  C   UNL     1       4.038  -4.083  28.890  0.00  0.00    +0.034 C 
BRANCH  22  23
ATOM     23  C   UNL     1       3.849  -4.917  27.618  0.00  0.00    +0.086 C 
BRANCH  23  27
ATOM     24  N   UNL     1       5.115  -4.772  24.062  0.00  0.00    -0.300 NA
ATOM     25  C   UNL     1       5.374  -3.745  25.102  0.00  0.00    +0.100 C 
ATOM     26  C   UNL     1       5.897  -4.300  26.454  0.00  0.00    +0.100 C 
ATOM     27  N   UNL     1       5.103  -5.409  27.025  0.00  0.00    -0.300 NA
ATOM     28  C   UNL     1       4.876  -6.424  25.969  0.00  0.00    +0.100 C 
ATOM     29  C   UNL     1       4.284  -5.836  24.668  0.00  0.00    +0.100 C 
BRANCH  24  30
ATOM     30  C   UNL     1       6.389  -5.284  23.520  0.00  0.00    +0.086 C 
BRANCH  30  31
ATOM     31  C   UNL     1       6.216  -6.286  22.370  0.00  0.00    +0.030 C 
BRANCH  31  32
ATOM     32  C   UNL     1       6.263  -5.569  21.023  0.00  0.00    +0.079 C 
BRANCH  32  33
ATOM     33  N   UNL     1       5.744  -4.213  21.154  0.00  0.00    -0.330 NA
ATOM     34  H   UNL     1       4.913  -4.105  20.573  0.00  0.00    +0.118 HD
ATOM     35  H   UNL     1       5.451  -4.051  22.116  0.00  0.00    +0.118 HD
ENDBRANCH  32  33
ENDBRANCH  31  32
ENDBRANCH  30  31
ENDBRANCH  24  30
ENDBRANCH  23  27
ENDBRANCH  22  23
ENDBRANCH  21  22
ENDBRANCH  17  21
ENDBRANCH   1  19
BRANCH   3  36
ATOM     36  O   UNL     1       9.008  -0.437  26.290  0.00  0.00    -0.461 OA
BRANCH  36  37
ATOM     37  C   UNL     1       9.501  -0.664  24.965  0.00  0.00    +0.339 C 
ATOM     38  C   UNL     1       8.624  -1.726  24.269  0.00  0.00    +0.214 C 
ATOM     39  C   UNL     1       9.085  -1.872  22.809  0.00  0.00    +0.180 C 
ATOM     40  C   UNL     1       9.153  -0.515  22.098  0.00  0.00    +0.177 C 
ATOM     41  C   UNL     1      10.025   0.440  22.913  0.00  0.00    +0.179 C 
ATOM     42  O   UNL     1       9.502   0.568  24.235  0.00  0.00    -0.331 OA
BRANCH  40  43
ATOM     43  O   UNL     1       9.653  -0.713  20.771  0.00  0.00    -0.386 OA
ATOM     44  H   UNL     1      10.627  -0.723  20.794  0.00  0.00    +0.210 HD
ENDBRANCH  40  43
BRANCH  38  45
ATOM     45  O   UNL     1       8.732  -2.976  24.974  0.00  0.00    -0.383 OA
ATOM     46  H   UNL     1       7.881  -3.179  25.396  0.00  0.00    +0.210 HD
ENDBRANCH  38  45
BRANCH  39  47
ATOM     47  O   UNL     1       8.218  -2.756  22.090  0.00  0.00    -0.386 OA
ATOM     48  H   UNL     1       7.465  -2.954  22.682  0.00  0.00    +0.210 HD
ENDBRANCH  39  47
BRANCH  41  49
ATOM     49  C   UNL     1      10.074   1.841  22.301  0.00  0.00    +0.190 C 
BRANCH  49  50
ATOM     50  O   UNL     1       9.125   1.917  21.234  0.00  0.00    -0.392 OA
ATOM     51  H   UNL     1       9.176   1.054  20.779  0.00  0.00    +0.210 HD
ENDBRANCH  49  50
ENDBRANCH  41  49
ENDBRANCH  36  37
ENDBRANCH   3  36
TORSDOF 19
ENDMDL
MODEL 7
REMARK VINA RESULT:      -6.1      2.898      4.880
REMARK  Name = 
REMARK  19 active torsions:
REMARK  status: ('A' for Active; 'I' for Inactive)
REMARK    1  A    between atoms: N_1  and  C_2
REMARK    2  A    between atoms: C_2  and  C_3
REMARK    3  A    between atoms: C_3  and  C_4
REMARK    4  A    between atoms: C_4  and  N_5
REMARK    5  A    between atoms: N_8  and  C_9
REMARK    6  A    between atoms: C_9  and  C_10
REMARK    7  A    between atoms: C_10  and  C_11
REMARK    8  A    between atoms: C_11  and  N_12
REMARK    9  A    between atoms: C_13  and  C_15
REMARK   10  A    between atoms: C_17  and  N_18
REMARK   11  A    between atoms: C_19  and  C_21
REMARK   12  A    between atoms: C_21  and  C_22
REMARK   13  A    between atoms: C_28  and  O_29
REMARK   14  A    between atoms: O_29  and  C_30
REMARK   15  A    between atoms: C_33  and  C_35
REMARK   16  A    between atoms: C_35  and  O_36
REMARK   17  A    between atoms: C_37  and  O_39
REMARK   18  A    between atoms: C_40  and  O_42
REMARK   19  A    between atoms: C_43  and  O_45
REMARK                            x       y       z     vdW  Elec       q    Type
REMARK                         _______ _______ _______ _____ _____    ______ ____
ROOT
ATOM      1  C   UNL     1       7.855  -3.189  25.144  0.00  0.00    +0.042 A 
ATOM      2  C   UNL     1       7.307  -4.476  25.221  0.00  0.00    +0.059 A 
ATOM      3  C   UNL     1       6.240  -4.736  26.077  0.00  0.00    +0.126 A 
ATOM      4  C   UNL     1       5.712  -3.702  26.851  0.00  0.00    +0.069 A 
ATOM      5  C   UNL     1       6.227  -2.410  26.754  0.00  0.00    +0.038 A 
ATOM      6  C   UNL     1       7.305  -2.149  25.907  0.00  0.00    +0.036 A 
ENDROOT
BRANCH   5   7
ATOM      7  N   UNL     1       5.642  -1.422  27.567  0.00  0.00    -0.285 N 
ATOM      8  H   UNL     1       5.681  -1.574  28.570  0.00  0.00    +0.155 HD
ATOM      9  C   UNL     1       4.655  -0.548  27.137  0.00  0.00    +0.222 C 
ATOM     10  O   UNL     1       4.176  -0.526  26.006  0.00  0.00    -0.275 OA
BRANCH   9  11
ATOM     11  C   UNL     1       4.182   0.397  28.231  0.00  0.00    +0.138 C 
BRANCH  11  12
ATOM     12  C   UNL     1       5.261   1.380  28.589  0.00  0.00    -0.001 A 
ATOM     13  S   UNL     1       5.929   1.402  30.170  0.00  0.00    -0.101 S 
ATOM     14  C   UNL     1       6.998   2.667  29.773  0.00  0.00    +0.045 A 
ATOM     15  C   UNL     1       6.862   3.070  28.461  0.00  0.00    +0.008 A 
ATOM     16  C   UNL     1       5.866   2.322  27.777  0.00  0.00    +0.011 A 
ENDBRANCH  11  12
ENDBRANCH   9  11
ENDBRANCH   5   7
BRANCH   1  19
ATOM     17  N   UNL     1       9.069  -1.891  23.469  0.00  0.00    -0.311 N 
ATOM     18  H   UNL     1       8.214  -1.372  23.322  0.00  0.00    +0.149 HD
ATOM     19  C   UNL     1       9.062  -3.000  24.289  0.00  0.00    +0.244 C 
ATOM     20  O   UNL     1       9.978  -3.813  24.333  0.00  0.00    -0.270 OA
BRANCH  17  21
ATOM     21  C   UNL     1      10.188  -1.623  22.590  0.00  0.00    +0.106 C 
BRANCH  21  22
ATOM     22  C   UNL     1       9.917  -0.408  21.708  0.00  0.00    +0.034 C 
BRANCH  22  23
ATOM     23  C   UNL     1      10.082   0.912  22.470  0.00  0.00    +0.086 C 
BRANCH  23  27
ATOM     24  N   UNL     1       8.112   4.102  22.932  0.00  0.00    -0.300 NA
ATOM     25  C   UNL     1       7.753   3.005  21.999  0.00  0.00    +0.100 C 
ATOM     26  C   UNL     1       7.747   1.586  22.627  0.00  0.00    +0.100 C 
ATOM     27  N   UNL     1       8.969   1.230  23.380  0.00  0.00    -0.300 NA
ATOM     28  C   UNL     1       9.292   2.334  24.313  0.00  0.00    +0.100 C 
ATOM     29  C   UNL     1       9.361   3.718  23.629  0.00  0.00    +0.100 C 
BRANCH  24  30
ATOM     30  C   UNL     1       6.999   4.365  23.865  0.00  0.00    +0.086 C 
BRANCH  30  31
ATOM     31  C   UNL     1       6.251   5.676  23.584  0.00  0.00    +0.030 C 
BRANCH  31  32
ATOM     32  C   UNL     1       7.169   6.680  22.891  0.00  0.00    +0.079 C 
BRANCH  32  33
ATOM     33  N   UNL     1       7.067   6.542  21.443  0.00  0.00    -0.330 NA
ATOM     34  H   UNL     1       6.672   5.630  21.212  0.00  0.00    +0.118 HD
ATOM     35  H   UNL     1       6.423   7.241  21.077  0.00  0.00    +0.118 HD
ENDBRANCH  32  33
ENDBRANCH  31  32
ENDBRANCH  30  31
ENDBRANCH  24  30
ENDBRANCH  23  27
ENDBRANCH  22  23
ENDBRANCH  21  22
ENDBRANCH  17  21
ENDBRANCH   1  19
BRANCH   3  36
ATOM     36  O   UNL     1       5.785  -6.027  26.071  0.00  0.00    -0.461 OA
BRANCH  36  37
ATOM     37  C   UNL     1       4.380  -6.197  25.845  0.00  0.00    +0.339 C 
ATOM     38  C   UNL     1       4.167  -7.191  24.684  0.00  0.00    +0.214 C 
ATOM     39  C   UNL     1       2.660  -7.461  24.530  0.00  0.00    +0.180 C 
ATOM     40  C   UNL     1       2.020  -7.869  25.863  0.00  0.00    +0.177 C 
ATOM     41  C   UNL     1       2.339  -6.813  26.922  0.00  0.00    +0.179 C 
ATOM     42  O   UNL     1       3.753  -6.661  27.046  0.00  0.00    -0.331 OA
BRANCH  40  43
ATOM     43  O   UNL     1       0.612  -8.037  25.667  0.00  0.00    -0.386 OA
ATOM     44  H   UNL     1       0.300  -8.785  26.207  0.00  0.00    +0.210 HD
ENDBRANCH  40  43
BRANCH  38  45
ATOM     45  O   UNL     1       4.720  -6.642  23.473  0.00  0.00    -0.383 OA
ATOM     46  H   UNL     1       5.439  -7.217  23.162  0.00  0.00    +0.210 HD
ENDBRANCH  38  45
BRANCH  39  47
ATOM     47  O   UNL     1       2.424  -8.474  23.546  0.00  0.00    -0.386 OA
ATOM     48  H   UNL     1       3.303  -8.791  23.254  0.00  0.00    +0.210 HD
ENDBRANCH  39  47
BRANCH  41  49
ATOM     49  C   UNL     1       1.796  -7.195  28.300  0.00  0.00    +0.190 C 
BRANCH  49  50
ATOM     50  O   UNL     1       2.817  -7.880  29.030  0.00  0.00    -0.392 OA
ATOM     51  H   UNL     1       3.532  -8.044  28.384  0.00  0.00    +0.210 HD
ENDBRANCH  49  50
ENDBRANCH  41  49
ENDBRANCH  36  37
ENDBRANCH   3  36
TORSDOF 19
ENDMDL
MODEL 8
REMARK VINA RESULT:      -6.0      2.655      4.822
REMARK  Name = 
REMARK  19 active torsions:
REMARK  status: ('A' for Active; 'I' for Inactive)
REMARK    1  A    between atoms: N_1  and  C_2
REMARK    2  A    between atoms: C_2  and  C_3
REMARK    3  A    between atoms: C_3  and  C_4
REMARK    4  A    between atoms: C_4  and  N_5
REMARK    5  A    between atoms: N_8  and  C_9
REMARK    6  A    between atoms: C_9  and  C_10
REMARK    7  A    between atoms: C_10  and  C_11
REMARK    8  A    between atoms: C_11  and  N_12
REMARK    9  A    between atoms: C_13  and  C_15
REMARK   10  A    between atoms: C_17  and  N_18
REMARK   11  A    between atoms: C_19  and  C_21
REMARK   12  A    between atoms: C_21  and  C_22
REMARK   13  A    between atoms: C_28  and  O_29
REMARK   14  A    between atoms: O_29  and  C_30
REMARK   15  A    between atoms: C_33  and  C_35
REMARK   16  A    between atoms: C_35  and  O_36
REMARK   17  A    between atoms: C_37  and  O_39
REMARK   18  A    between atoms: C_40  and  O_42
REMARK   19  A    between atoms: C_43  and  O_45
REMARK                            x       y       z     vdW  Elec       q    Type
REMARK                         _______ _______ _______ _____ _____    ______ ____
ROOT
ATOM      1  C   UNL     1       7.985  -3.422  25.401  0.00  0.00    +0.042 A 
ATOM      2  C   UNL     1       7.611  -4.737  25.709  0.00  0.00    +0.059 A 
ATOM      3  C   UNL     1       6.587  -4.983  26.620  0.00  0.00    +0.126 A 
ATOM      4  C   UNL     1       5.928  -3.908  27.217  0.00  0.00    +0.069 A 
ATOM      5  C   UNL     1       6.267  -2.596  26.890  0.00  0.00    +0.038 A 
ATOM      6  C   UNL     1       7.302  -2.347  25.987  0.00  0.00    +0.036 A 
ENDROOT
BRANCH   5   7
ATOM      7  N   UNL     1       5.557  -1.568  27.536  0.00  0.00    -0.285 N 
ATOM      8  H   UNL     1       5.566  -1.574  28.551  0.00  0.00    +0.155 HD
ATOM      9  C   UNL     1       4.513  -0.864  26.955  0.00  0.00    +0.222 C 
ATOM     10  O   UNL     1       4.083  -1.048  25.819  0.00  0.00    -0.275 OA
BRANCH   9  11
ATOM     11  C   UNL     1       3.905   0.172  27.888  0.00  0.00    +0.138 C 
BRANCH  11  12
ATOM     12  C   UNL     1       4.915   1.228  28.241  0.00  0.00    -0.001 A 
ATOM     13  S   UNL     1       5.390   1.465  29.873  0.00  0.00    -0.101 S 
ATOM     14  C   UNL     1       6.475   2.708  29.446  0.00  0.00    +0.045 A 
ATOM     15  C   UNL     1       6.487   2.942  28.087  0.00  0.00    +0.008 A 
ATOM     16  C   UNL     1       5.593   2.083  27.393  0.00  0.00    +0.011 A 
ENDBRANCH  11  12
ENDBRANCH   9  11
ENDBRANCH   5   7
BRANCH   1  19
ATOM     17  N   UNL     1       9.199  -2.047  23.790  0.00  0.00    -0.311 N 
ATOM     18  H   UNL     1       8.376  -1.461  23.742  0.00  0.00    +0.149 HD
ATOM     19  C   UNL     1       9.156  -3.228  24.499  0.00  0.00    +0.244 C 
ATOM     20  O   UNL     1      10.014  -4.100  24.412  0.00  0.00    -0.270 OA
BRANCH  17  21
ATOM     21  C   UNL     1      10.288  -1.766  22.877  0.00  0.00    +0.106 C 
BRANCH  21  22
ATOM     22  C   UNL     1       9.807  -0.946  21.683  0.00  0.00    +0.034 C 
BRANCH  22  23
ATOM     23  C   UNL     1       8.684   0.026  22.059  0.00  0.00    +0.086 C 
BRANCH  23  27
ATOM     24  N   UNL     1       9.110   3.116  24.189  0.00  0.00    -0.300 NA
ATOM     25  C   UNL     1      10.212   2.224  23.750  0.00  0.00    +0.100 C 
ATOM     26  C   UNL     1      10.229   1.901  22.233  0.00  0.00    +0.100 C 
ATOM     27  N   UNL     1       8.942   1.425  21.680  0.00  0.00    -0.300 NA
ATOM     28  C   UNL     1       7.866   2.344  22.120  0.00  0.00    +0.100 C 
ATOM     29  C   UNL     1       7.842   2.576  23.648  0.00  0.00    +0.100 C 
BRANCH  24  30
ATOM     30  C   UNL     1       9.370   4.502  23.753  0.00  0.00    +0.086 C 
BRANCH  30  31
ATOM     31  C   UNL     1       8.244   5.484  24.104  0.00  0.00    +0.030 C 
BRANCH  31  32
ATOM     32  C   UNL     1       8.151   6.592  23.057  0.00  0.00    +0.079 C 
BRANCH  32  33
ATOM     33  N   UNL     1       7.838   6.025  21.751  0.00  0.00    -0.330 NA
ATOM     34  H   UNL     1       7.620   5.034  21.849  0.00  0.00    +0.118 HD
ATOM     35  H   UNL     1       7.004   6.473  21.375  0.00  0.00    +0.118 HD
ENDBRANCH  32  33
ENDBRANCH  31  32
ENDBRANCH  30  31
ENDBRANCH  24  30
ENDBRANCH  23  27
ENDBRANCH  22  23
ENDBRANCH  21  22
ENDBRANCH  17  21
ENDBRANCH   1  19
BRANCH   3  36
ATOM     36  O   UNL     1       6.306  -6.303  26.844  0.00  0.00    -0.461 OA
BRANCH  36  37
ATOM     37  C   UNL     1       5.037  -6.766  26.367  0.00  0.00    +0.339 C 
ATOM     38  C   UNL     1       3.981  -6.598  27.480  0.00  0.00    +0.214 C 
ATOM     39  C   UNL     1       2.601  -6.981  26.919  0.00  0.00    +0.180 C 
ATOM     40  C   UNL     1       2.295  -6.237  25.613  0.00  0.00    +0.177 C 
ATOM     41  C   UNL     1       3.435  -6.468  24.620  0.00  0.00    +0.179 C 
ATOM     42  O   UNL     1       4.671  -6.036  25.191  0.00  0.00    -0.331 OA
BRANCH  40  43
ATOM     43  O   UNL     1       1.034  -6.689  25.108  0.00  0.00    -0.386 OA
ATOM     44  H   UNL     1       0.762  -7.488  25.593  0.00  0.00    +0.210 HD
ENDBRANCH  40  43
BRANCH  38  45
ATOM     45  O   UNL     1       4.331  -7.427  28.604  0.00  0.00    -0.383 OA
ATOM     46  H   UNL     1       5.275  -7.654  28.551  0.00  0.00    +0.210 HD
ENDBRANCH  38  45
BRANCH  39  47
ATOM     47  O   UNL     1       1.573  -6.721  27.880  0.00  0.00    -0.386 OA
ATOM     48  H   UNL     1       2.023  -6.538  28.730  0.00  0.00    +0.210 HD
ENDBRANCH  39  47
BRANCH  41  49
ATOM     49  C   UNL     1       3.234  -5.689  23.319  0.00  0.00    +0.190 C 
BRANCH  49  50
ATOM     50  O   UNL     1       4.296  -6.008  22.416  0.00  0.00    -0.392 OA
ATOM     51  H   UNL     1       4.973  -6.456  22.959  0.00  0.00    +0.210 HD
ENDBRANCH  49  50
ENDBRANCH  41  49
ENDBRANCH  36  37
ENDBRANCH   3  36
TORSDOF 19
ENDMDL
MODEL 9
REMARK VINA RESULT:      -5.9      3.147      7.382
REMARK  Name = 
REMARK  19 active torsions:
REMARK  status: ('A' for Active; 'I' for Inactive)
REMARK    1  A    between atoms: N_1  and  C_2
REMARK    2  A    between atoms: C_2  and  C_3
REMARK    3  A    between atoms: C_3  and  C_4
REMARK    4  A    between atoms: C_4  and  N_5
REMARK    5  A    between atoms: N_8  and  C_9
REMARK    6  A    between atoms: C_9  and  C_10
REMARK    7  A    between atoms: C_10  and  C_11
REMARK    8  A    between atoms: C_11  and  N_12
REMARK    9  A    between atoms: C_13  and  C_15
REMARK   10  A    between atoms: C_17  and  N_18
REMARK   11  A    between atoms: C_19  and  C_21
REMARK   12  A    between atoms: C_21  and  C_22
REMARK   13  A    between atoms: C_28  and  O_29
REMARK   14  A    between atoms: O_29  and  C_30
REMARK   15  A    between atoms: C_33  and  C_35
REMARK   16  A    between atoms: C_35  and  O_36
REMARK   17  A    between atoms: C_37  and  O_39
REMARK   18  A    between atoms: C_40  and  O_42
REMARK   19  A    between atoms: C_43  and  O_45
REMARK                            x       y       z     vdW  Elec       q    Type
REMARK                         _______ _______ _______ _____ _____    ______ ____
ROOT
ATOM      1  C   UNL     1       7.142   1.398  26.755  0.00  0.00    +0.042 A 
ATOM      2  C   UNL     1       7.585   0.287  26.025  0.00  0.00    +0.059 A 
ATOM      3  C   UNL     1       8.347   0.459  24.873  0.00  0.00    +0.126 A 
ATOM      4  C   UNL     1       8.676   1.749  24.455  0.00  0.00    +0.069 A 
ATOM      5  C   UNL     1       8.272   2.860  25.194  0.00  0.00    +0.038 A 
ATOM      6  C   UNL     1       7.497   2.690  26.342  0.00  0.00    +0.036 A 
ENDROOT
BRANCH   5   7
ATOM      7  N   UNL     1       8.642   4.127  24.706  0.00  0.00    -0.285 N 
ATOM      8  H   UNL     1       9.056   4.770  25.373  0.00  0.00    +0.155 HD
ATOM      9  C   UNL     1       8.090   4.714  23.578  0.00  0.00    +0.222 C 
ATOM     10  O   UNL     1       7.221   4.208  22.872  0.00  0.00    -0.275 OA
BRANCH   9  11
ATOM     11  C   UNL     1       8.653   6.098  23.295  0.00  0.00    +0.138 C 
BRANCH  11  12
ATOM     12  C   UNL     1      10.039   6.235  23.860  0.00  0.00    -0.001 A 
ATOM     13  S   UNL     1      10.303   7.108  25.315  0.00  0.00    -0.101 S 
ATOM     14  C   UNL     1      11.977   6.795  25.277  0.00  0.00    +0.045 A 
ATOM     15  C   UNL     1      12.339   6.036  24.184  0.00  0.00    +0.008 A 
ATOM     16  C   UNL     1      11.220   5.707  23.372  0.00  0.00    +0.011 A 
ENDBRANCH  11  12
ENDBRANCH   9  11
ENDBRANCH   5   7
BRANCH   1  19
ATOM     17  N   UNL     1       5.114   0.397  27.675  0.00  0.00    -0.311 N 
ATOM     18  H   UNL     1       4.830   0.215  26.721  0.00  0.00    +0.149 HD
ATOM     19  C   UNL     1       6.243   1.150  27.918  0.00  0.00    +0.244 C 
ATOM     20  O   UNL     1       6.521   1.615  29.018  0.00  0.00    -0.270 OA
BRANCH  17  21
ATOM     21  C   UNL     1       4.169   0.109  28.733  0.00  0.00    +0.106 C 
BRANCH  21  22
ATOM     22  C   UNL     1       3.315  -1.108  28.393  0.00  0.00    +0.034 C 
BRANCH  22  23
ATOM     23  C   UNL     1       4.099  -2.420  28.510  0.00  0.00    +0.086 C 
BRANCH  23  27
ATOM     24  N   UNL     1       3.807  -5.032  25.797  0.00  0.00    -0.300 NA
ATOM     25  C   UNL     1       4.747  -5.095  26.944  0.00  0.00    +0.100 C 
ATOM     26  C   UNL     1       4.102  -4.849  28.333  0.00  0.00    +0.100 C 
ATOM     27  N   UNL     1       3.267  -3.632  28.429  0.00  0.00    -0.300 NA
ATOM     28  C   UNL     1       2.330  -3.607  27.283  0.00  0.00    +0.100 C 
ATOM     29  C   UNL     1       3.026  -3.780  25.914  0.00  0.00    +0.100 C 
BRANCH  24  30
ATOM     30  C   UNL     1       2.952  -6.235  25.769  0.00  0.00    +0.086 C 
BRANCH  30  31
ATOM     31  C   UNL     1       3.270  -7.197  24.617  0.00  0.00    +0.030 C 
BRANCH  31  32
ATOM     32  C   UNL     1       2.611  -6.722  23.323  0.00  0.00    +0.079 C 
BRANCH  32  33
ATOM     33  N   UNL     1       3.273  -5.519  22.833  0.00  0.00    -0.330 NA
ATOM     34  H   UNL     1       4.267  -5.703  22.698  0.00  0.00    +0.118 HD
ATOM     35  H   UNL     1       2.896  -5.269  21.921  0.00  0.00    +0.118 HD
ENDBRANCH  32  33
ENDBRANCH  31  32
ENDBRANCH  30  31
ENDBRANCH  24  30
ENDBRANCH  23  27
ENDBRANCH  22  23
ENDBRANCH  21  22
ENDBRANCH  17  21
ENDBRANCH   1  19
BRANCH   3  36
ATOM     36  O   UNL     1       8.725  -0.695  24.241  0.00  0.00    -0.461 OA
BRANCH  36  37
ATOM     37  C   UNL     1       7.836  -1.809  24.385  0.00  0.00    +0.339 C 
ATOM     38  C   UNL     1       7.012  -1.973  23.090  0.00  0.00    +0.214 C 
ATOM     39  C   UNL     1       6.151  -3.243  23.206  0.00  0.00    +0.180 C 
ATOM     40  C   UNL     1       6.992  -4.462  23.602  0.00  0.00    +0.177 C 
ATOM     41  C   UNL     1       7.775  -4.145  24.877  0.00  0.00    +0.179 C 
ATOM     42  O   UNL     1       8.590  -2.991  24.673  0.00  0.00    -0.331 OA
BRANCH  40  43
ATOM     43  O   UNL     1       6.125  -5.591  23.762  0.00  0.00    -0.386 OA
ATOM     44  H   UNL     1       5.612  -5.718  22.944  0.00  0.00    +0.210 HD
ENDBRANCH  40  43
BRANCH  38  45
ATOM     45  O   UNL     1       6.190  -0.808  22.892  0.00  0.00    -0.383 OA
ATOM     46  H   UNL     1       6.652  -0.188  22.303  0.00  0.00    +0.210 HD
ENDBRANCH  38  45
BRANCH  39  47
ATOM     47  O   UNL     1       5.463  -3.503  21.978  0.00  0.00    -0.386 OA
ATOM     48  H   UNL     1       5.943  -3.015  21.279  0.00  0.00    +0.210 HD
ENDBRANCH  39  47
BRANCH  41  49
ATOM     49  C   UNL     1       8.698  -5.293  25.288  0.00  0.00    +0.190 C 
BRANCH  49  50
ATOM     50  O   UNL     1       8.252  -5.826  26.538  0.00  0.00    -0.392 OA
ATOM     51  H   UNL     1       7.286  -5.681  26.552  0.00  0.00    +0.210 HD
ENDBRANCH  49  50
ENDBRANCH  41  49
ENDBRANCH  36  37
ENDBRANCH   3  36
TORSDOF 19
ENDMDL
