MODEL 1
REMARK VINA RESULT:      -2.6      0.000      0.000
REMARK  Name = 
REMARK  3 active torsions:
REMARK  status: ('A' for Active; 'I' for Inactive)
REMARK    1  A    between atoms: O_1  and  C_2
REMARK    2  A    between atoms: C_2  and  C_3
REMARK    3  A    between atoms: C_3  and  S_4
REMARK                            x       y       z     vdW  Elec       q    Type
REMARK                         _______ _______ _______ _____ _____    ______ ____
ROOT
ATOM      1  C   UNL     1      12.928   5.180  22.932  0.00  0.00    +0.166 C 
ENDROOT
BRANCH   1   2
ATOM      2  O   UNL     1      14.333   5.091  23.160  0.00  0.00    -0.394 OA
ATOM      3  H   UNL     1      14.581   4.159  23.038  0.00  0.00    +0.209 HD
ENDBRANCH   1   2
BRANCH   1   4
ATOM      4  C   UNL     1      12.255   5.982  24.042  0.00  0.00    +0.093 C 
BRANCH   4   5
ATOM      5  S   UNL     1      10.443   5.961  23.868  0.00  0.00    -0.176 S 
ATOM      6  H   UNL     1      10.303   7.297  23.862  0.00  0.00    +0.102 HD
ENDBRANCH   4   5
ENDBRANCH   1   4
TORSDOF 3
ENDMDL
MODEL 2
REMARK VINA RESULT:      -2.3      6.106      6.291
REMARK  Name = 
REMARK  3 active torsions:
REMARK  status: ('A' for Active; 'I' for Inactive)
REMARK    1  A    between atoms: O_1  and  C_2
REMARK    2  A    between atoms: C_2  and  C_3
REMARK    3  A    between atoms: C_3  and  S_4
REMARK                            x       y       z     vdW  Elec       q    Type
REMARK                         _______ _______ _______ _____ _____    ______ ____
ROOT
ATOM      1  C   UNL     1       9.799   1.265  22.397  0.00  0.00    +0.166 C 
ENDROOT
BRANCH   1   2
ATOM      2  O   UNL     1      10.260   2.306  21.538  0.00  0.00    -0.394 OA
ATOM      3  H   UNL     1      11.227   2.220  21.483  0.00  0.00    +0.209 HD
ENDBRANCH   1   2
BRANCH   1   4
ATOM      4  C   UNL     1       9.626  -0.035  21.617  0.00  0.00    +0.093 C 
BRANCH   4   5
ATOM      5  S   UNL     1      10.170  -1.471  22.594  0.00  0.00    -0.176 S 
ATOM      6  H   UNL     1      11.426  -1.477  22.117  0.00  0.00    +0.102 HD
ENDBRANCH   4   5
ENDBRANCH   1   4
TORSDOF 3
ENDMDL
MODEL 3
REMARK VINA RESULT:      -2.1      5.200      5.271
REMARK  Name = 
REMARK  3 active torsions:
REMARK  status: ('A' for Active; 'I' for Inactive)
REMARK    1  A    between atoms: O_1  and  C_2
REMARK    2  A    between atoms: C_2  and  C_3
REMARK    3  A    between atoms: C_3  and  S_4
REMARK                            x       y       z     vdW  Elec       q    Type
REMARK                         _______ _______ _______ _____ _____    ______ ____
ROOT
ATOM      1  C   UNL     1      10.022   1.179  22.366  0.00  0.00    +0.166 C 
ENDROOT
BRANCH   1   2
ATOM      2  O   UNL     1      10.156   2.321  21.521  0.00  0.00    -0.394 OA
ATOM      3  H   UNL     1       9.693   3.054  21.961  0.00  0.00    +0.209 HD
ENDBRANCH   1   2
BRANCH   1   4
ATOM      4  C   UNL     1      10.449   1.516  23.792  0.00  0.00    +0.093 C 
BRANCH   4   5
ATOM      5  S   UNL     1      10.137   0.123  24.921  0.00  0.00    -0.176 S 
ATOM      6  H   UNL     1       9.414  -0.591  24.042  0.00  0.00    +0.102 HD
ENDBRANCH   4   5
ENDBRANCH   1   4
TORSDOF 3
ENDMDL
MODEL 4
REMARK VINA RESULT:      -2.1      6.686      6.806
REMARK  Name = 
REMARK  3 active torsions:
REMARK  status: ('A' for Active; 'I' for Inactive)
REMARK    1  A    between atoms: O_1  and  C_2
REMARK    2  A    between atoms: C_2  and  C_3
REMARK    3  A    between atoms: C_3  and  S_4
REMARK                            x       y       z     vdW  Elec       q    Type
REMARK                         _______ _______ _______ _____ _____    ______ ____
ROOT
ATOM      1  C   UNL     1      10.148  -1.508  22.841  0.00  0.00    +0.166 C 
ENDROOT
BRANCH   1   2
ATOM      2  O   UNL     1      10.198  -1.598  21.419  0.00  0.00    -0.394 OA
ATOM      3  H   UNL     1       9.304  -1.402  21.091  0.00  0.00    +0.209 HD
ENDBRANCH   1   2
BRANCH   1   4
ATOM      4  C   UNL     1      10.368  -0.068  23.294  0.00  0.00    +0.093 C 
BRANCH   4   5
ATOM      5  S   UNL     1       9.793   1.116  22.037  0.00  0.00    -0.176 S 
ATOM      6  H   UNL     1       8.873   1.697  22.825  0.00  0.00    +0.102 HD
ENDBRANCH   4   5
ENDBRANCH   1   4
TORSDOF 3
ENDMDL
MODEL 5
REMARK VINA RESULT:      -2.0     10.436     10.540
REMARK  Name = 
REMARK  3 active torsions:
REMARK  status: ('A' for Active; 'I' for Inactive)
REMARK    1  A    between atoms: O_1  and  C_2
REMARK    2  A    between atoms: C_2  and  C_3
REMARK    3  A    between atoms: C_3  and  S_4
REMARK                            x       y       z     vdW  Elec       q    Type
REMARK                         _______ _______ _______ _____ _____    ______ ____
ROOT
ATOM      1  C   UNL     1       8.960  -5.164  25.059  0.00  0.00    +0.166 C 
ENDROOT
BRANCH   1   2
ATOM      2  O   UNL     1      10.385  -5.213  25.034  0.00  0.00    -0.394 OA
ATOM      3  H   UNL     1      10.703  -4.521  25.639  0.00  0.00    +0.209 HD
ENDBRANCH   1   2
BRANCH   1   4
ATOM      4  C   UNL     1       8.444  -4.116  24.077  0.00  0.00    +0.093 C 
BRANCH   4   5
ATOM      5  S   UNL     1       9.546  -2.669  24.014  0.00  0.00    -0.176 S 
ATOM      6  H   UNL     1       8.811  -1.917  24.851  0.00  0.00    +0.102 HD
ENDBRANCH   4   5
ENDBRANCH   1   4
TORSDOF 3
ENDMDL
MODEL 6
REMARK VINA RESULT:      -2.0     11.881     11.931
REMARK  Name = 
REMARK  3 active torsions:
REMARK  status: ('A' for Active; 'I' for Inactive)
REMARK    1  A    between atoms: O_1  and  C_2
REMARK    2  A    between atoms: C_2  and  C_3
REMARK    3  A    between atoms: C_3  and  S_4
REMARK                            x       y       z     vdW  Elec       q    Type
REMARK                         _______ _______ _______ _____ _____    ______ ____
ROOT
ATOM      1  C   UNL     1       7.620  -5.239  26.655  0.00  0.00    +0.166 C 
ENDROOT
BRANCH   1   2
ATOM      2  O   UNL     1       7.628  -6.068  27.815  0.00  0.00    -0.394 OA
ATOM      3  H   UNL     1       6.714  -6.373  27.951  0.00  0.00    +0.209 HD
ENDBRANCH   1   2
BRANCH   1   4
ATOM      4  C   UNL     1       8.974  -4.559  26.474  0.00  0.00    +0.093 C 
BRANCH   4   5
ATOM      5  S   UNL     1       9.165  -3.905  24.786  0.00  0.00    -0.176 S 
ATOM      6  H   UNL     1      10.276  -4.607  24.506  0.00  0.00    +0.102 HD
ENDBRANCH   4   5
ENDBRANCH   1   4
TORSDOF 3
ENDMDL
MODEL 7
REMARK VINA RESULT:      -2.0     11.558     11.605
REMARK  Name = 
REMARK  3 active torsions:
REMARK  status: ('A' for Active; 'I' for Inactive)
REMARK    1  A    between atoms: O_1  and  C_2
REMARK    2  A    between atoms: C_2  and  C_3
REMARK    3  A    between atoms: C_3  and  S_4
REMARK                            x       y       z     vdW  Elec       q    Type
REMARK                         _______ _______ _______ _____ _____    ______ ____
ROOT
ATOM      1  C   UNL     1       9.258  -4.818  25.297  0.00  0.00    +0.166 C 
ENDROOT
BRANCH   1   2
ATOM      2  O   UNL     1      10.493  -5.515  25.450  0.00  0.00    -0.394 OA
ATOM      3  H   UNL     1      10.322  -6.269  26.040  0.00  0.00    +0.209 HD
ENDBRANCH   1   2
BRANCH   1   4
ATOM      4  C   UNL     1       8.421  -4.928  26.568  0.00  0.00    +0.093 C 
BRANCH   4   5
ATOM      5  S   UNL     1       6.689  -5.336  26.186  0.00  0.00    -0.176 S 
ATOM      6  H   UNL     1       6.665  -4.688  25.009  0.00  0.00    +0.102 HD
ENDBRANCH   4   5
ENDBRANCH   1   4
TORSDOF 3
ENDMDL
MODEL 8
REMARK VINA RESULT:      -2.0      8.580      8.610
REMARK  Name = 
REMARK  3 active torsions:
REMARK  status: ('A' for Active; 'I' for Inactive)
REMARK    1  A    between atoms: O_1  and  C_2
REMARK    2  A    between atoms: C_2  and  C_3
REMARK    3  A    between atoms: C_3  and  S_4
REMARK                            x       y       z     vdW  Elec       q    Type
REMARK                         _______ _______ _______ _____ _____    ______ ____
ROOT
ATOM      1  C   UNL     1       9.221  -1.812  22.431  0.00  0.00    +0.166 C 
ENDROOT
BRANCH   1   2
ATOM      2  O   UNL     1      10.169  -1.533  21.402  0.00  0.00    -0.394 OA
ATOM      3  H   UNL     1      10.788  -2.283  21.377  0.00  0.00    +0.209 HD
ENDBRANCH   1   2
BRANCH   1   4
ATOM      4  C   UNL     1       9.926  -2.325  23.683  0.00  0.00    +0.093 C 
BRANCH   4   5
ATOM      5  S   UNL     1       8.963  -3.640  24.492  0.00  0.00    -0.176 S 
ATOM      6  H   UNL     1       8.141  -3.852  23.450  0.00  0.00    +0.102 HD
ENDBRANCH   4   5
ENDBRANCH   1   4
TORSDOF 3
ENDMDL
MODEL 9
REMARK VINA RESULT:      -2.0      5.511      5.593
REMARK  Name = 
REMARK  3 active torsions:
REMARK  status: ('A' for Active; 'I' for Inactive)
REMARK    1  A    between atoms: O_1  and  C_2
REMARK    2  A    between atoms: C_2  and  C_3
REMARK    3  A    between atoms: C_3  and  S_4
REMARK                            x       y       z     vdW  Elec       q    Type
REMARK                         _______ _______ _______ _____ _____    ______ ____
ROOT
ATOM      1  C   UNL     1       9.636   0.964  21.756  0.00  0.00    +0.166 C 
ENDROOT
BRANCH   1   2
ATOM      2  O   UNL     1      10.199   2.267  21.609  0.00  0.00    -0.394 OA
ATOM      3  H   UNL     1      10.486   2.348  20.684  0.00  0.00    +0.209 HD
ENDBRANCH   1   2
BRANCH   1   4
ATOM      4  C   UNL     1       8.348   1.027  22.572  0.00  0.00    +0.093 C 
BRANCH   4   5
ATOM      5  S   UNL     1       7.302   2.422  22.050  0.00  0.00    -0.176 S 
ATOM      6  H   UNL     1       7.921   3.336  22.816  0.00  0.00    +0.102 HD
ENDBRANCH   4   5
ENDBRANCH   1   4
TORSDOF 3
ENDMDL
