MODEL 1
REMARK VINA RESULT:      -6.9      0.000      0.000
REMARK  Name = 
REMARK  5 active torsions:
REMARK  status: ('A' for Active; 'I' for Inactive)
REMARK    1  A    between atoms: C_2  and  C_26
REMARK    2  A    between atoms: CA_16  and  CB_18
REMARK    3  A    between atoms: CB_18  and  CG1_19
REMARK    4  A    between atoms: CB_18  and  CG2_20
REMARK    5  A    between atoms: C_26  and  O_27
REMARK                            x       y       z     vdW  Elec       q    Type
REMARK                         _______ _______ _______ _____ _____    ______ ____
ROOT
ATOM      1  C   UNK A   1       6.320   1.645  25.150  0.00  0.00    +0.186 C 
ATOM      2  N   UNK A   1       6.147   0.085  24.610  0.00  0.00    -0.301 N 
ATOM      3  H   UNK A   1       7.034  -0.293  24.320  0.00  0.00    +0.150 HD
ATOM      4  C   UNK A   1       5.318  -0.914  25.287  0.00  0.00    +0.234 C 
ATOM      5  O   UNK A   1       4.914  -0.580  26.414  0.00  0.00    -0.274 OA
ATOM      6  C   UNK A   1       4.978  -2.645  24.816  0.00  0.00    +0.161 C 
ATOM      7  N   UNK A   1       5.997  -3.452  24.167  0.00  0.00    -0.304 N 
ATOM      8  H   UNK A   1       6.593  -4.002  24.777  0.00  0.00    +0.149 HD
ATOM      9  C   UNK A   0       6.092  -3.676  22.814  0.00  0.00    +0.214 C 
ATOM     10  O   UNK A   0       5.243  -3.344  21.973  0.00  0.00    -0.276 OA
ATOM     11  C   UNK A   0       7.506  -4.021  22.460  0.00  0.00    +0.096 C 
ATOM     12  C   UNK A   0       8.200  -2.773  22.983  0.00  0.00    +0.012 C 
ATOM     13  C   UNK A   0       9.230  -2.094  22.119  0.00  0.00    +0.041 C 
ATOM     14  C   UNK A   0       9.042  -0.613  22.425  0.00  0.00    +0.229 C 
ATOM     15  O   UNK A   1       9.845   0.250  21.618  0.00  0.00    -0.492 OA
ATOM     16  C   UNK A   1       9.414   1.531  21.921  0.00  0.00    +0.121 A 
ATOM     17  C   UNK A   1       8.068   1.890  21.711  0.00  0.00    +0.046 A 
ATOM     18  C   UNK A   1       7.525   2.886  22.483  0.00  0.00    +0.007 A 
ATOM     19  C   UNK A   1       8.237   3.180  23.613  0.00  0.00    -0.045 A 
ATOM     20  C   UNK A   1       9.639   3.288  23.462  0.00  0.00    +0.007 A 
ATOM     21  C   UNK A   1      10.254   2.358  22.648  0.00  0.00    +0.046 A 
ATOM     22  C   UNK A   1       7.668   2.647  24.950  0.00  0.00    +0.069 C 
ENDROOT
BRANCH   6  23
ATOM     23  C   UNK A   1       3.586  -3.570  24.778  0.00  0.00    +0.012 C 
ATOM     24  C   UNK A   1       2.661  -3.151  25.972  0.00  0.00    +0.009 C 
ATOM     25  C   UNK A   1       3.640  -5.130  25.021  0.00  0.00    +0.009 C 
ENDBRANCH   6  23
BRANCH   1  26
ATOM     26  C   UNK A   1       5.167   2.637  24.866  0.00  0.00    +0.326 C 
ATOM     27  O   UNK A   1       4.874   3.651  25.482  0.00  0.00    -0.249 OA
BRANCH  26  28
ATOM     28  O   UNK A   1       4.316   2.159  23.915  0.00  0.00    -0.479 OA
ATOM     29  H   UNK A   1       3.661   2.868  23.744  0.00  0.00    +0.295 HD
ENDBRANCH  26  28
ENDBRANCH   1  26
TORSDOF 3
ENDMDL
MODEL 2
REMARK VINA RESULT:      -6.8      2.645      7.271
REMARK  Name = 
REMARK  5 active torsions:
REMARK  status: ('A' for Active; 'I' for Inactive)
REMARK    1  A    between atoms: C_2  and  C_26
REMARK    2  A    between atoms: CA_16  and  CB_18
REMARK    3  A    between atoms: CB_18  and  CG1_19
REMARK    4  A    between atoms: CB_18  and  CG2_20
REMARK    5  A    between atoms: C_26  and  O_27
REMARK                            x       y       z     vdW  Elec       q    Type
REMARK                         _______ _______ _______ _____ _____    ______ ____
ROOT
ATOM      1  C   UNK A   1       9.919  -0.228  23.446  0.00  0.00    +0.186 C 
ATOM      2  N   UNK A   1       9.068   1.027  24.121  0.00  0.00    -0.301 N 
ATOM      3  H   UNK A   1       8.752   0.788  25.046  0.00  0.00    +0.150 HD
ATOM      4  C   UNK A   1       9.490   2.426  24.029  0.00  0.00    +0.234 C 
ATOM      5  O   UNK A   1      10.641   2.597  23.590  0.00  0.00    -0.274 OA
ATOM      6  C   UNK A   1       8.666   3.927  24.664  0.00  0.00    +0.161 C 
ATOM      7  N   UNK A   1       7.918   3.892  25.908  0.00  0.00    -0.304 N 
ATOM      8  H   UNK A   1       8.433   4.127  26.750  0.00  0.00    +0.149 HD
ATOM      9  C   UNK A   0       6.554   3.760  26.013  0.00  0.00    +0.214 C 
ATOM     10  O   UNK A   0       5.757   3.797  25.063  0.00  0.00    -0.276 OA
ATOM     11  C   UNK A   0       6.205   3.190  27.354  0.00  0.00    +0.096 C 
ATOM     12  C   UNK A   0       7.001   1.896  27.283  0.00  0.00    +0.012 C 
ATOM     13  C   UNK A   0       6.342   0.609  27.705  0.00  0.00    +0.041 C 
ATOM     14  C   UNK A   0       6.929  -0.428  26.756  0.00  0.00    +0.229 C 
ATOM     15  O   UNK A   1       6.351  -1.728  26.892  0.00  0.00    -0.492 OA
ATOM     16  C   UNK A   1       6.884  -2.470  25.851  0.00  0.00    +0.121 A 
ATOM     17  C   UNK A   1       6.686  -2.059  24.518  0.00  0.00    +0.046 A 
ATOM     18  C   UNK A   1       7.616  -2.417  23.574  0.00  0.00    +0.007 A 
ATOM     19  C   UNK A   1       8.815  -2.829  24.087  0.00  0.00    -0.045 A 
ATOM     20  C   UNK A   1       8.756  -3.721  25.183  0.00  0.00    +0.007 A 
ATOM     21  C   UNK A   1       7.802  -3.464  26.148  0.00  0.00    +0.046 A 
ATOM     22  C   UNK A   1       9.989  -1.825  24.003  0.00  0.00    +0.069 C 
ENDROOT
BRANCH   6  23
ATOM     23  C   UNK A   1       8.376   5.438  24.011  0.00  0.00    +0.012 C 
ATOM     24  C   UNK A   1       7.649   5.268  22.633  0.00  0.00    +0.009 C 
ATOM     25  C   UNK A   1       9.569   6.373  23.565  0.00  0.00    +0.009 C 
ENDBRANCH   6  23
BRANCH   1  26
ATOM     26  C   UNK A   1       9.784  -0.452  21.920  0.00  0.00    +0.326 C 
ATOM     27  O   UNK A   1       9.061   0.138  21.132  0.00  0.00    -0.249 OA
BRANCH  26  28
ATOM     28  O   UNK A   1      10.444  -1.573  21.517  0.00  0.00    -0.479 OA
ATOM     29  H   UNK A   1      10.243  -2.269  22.178  0.00  0.00    +0.295 HD
ENDBRANCH  26  28
ENDBRANCH   1  26
TORSDOF 3
ENDMDL
MODEL 3
REMARK VINA RESULT:      -6.7      2.067      6.118
REMARK  Name = 
REMARK  5 active torsions:
REMARK  status: ('A' for Active; 'I' for Inactive)
REMARK    1  A    between atoms: C_2  and  C_26
REMARK    2  A    between atoms: CA_16  and  CB_18
REMARK    3  A    between atoms: CB_18  and  CG1_19
REMARK    4  A    between atoms: CB_18  and  CG2_20
REMARK    5  A    between atoms: C_26  and  O_27
REMARK                            x       y       z     vdW  Elec       q    Type
REMARK                         _______ _______ _______ _____ _____    ______ ____
ROOT
ATOM      1  C   UNK A   1       5.403  -0.985  25.316  0.00  0.00    +0.186 C 
ATOM      2  N   UNK A   1       6.432   0.124  24.633  0.00  0.00    -0.301 N 
ATOM      3  H   UNK A   1       7.012  -0.309  23.934  0.00  0.00    +0.150 HD
ATOM      4  C   UNK A   1       6.018   1.473  24.243  0.00  0.00    +0.234 C 
ATOM      5  O   UNK A   1       4.790   1.669  24.263  0.00  0.00    -0.274 OA
ATOM      6  C   UNK A   1       7.013   2.828  23.529  0.00  0.00    +0.161 C 
ATOM      7  N   UNK A   1       8.103   2.543  22.612  0.00  0.00    -0.304 N 
ATOM      8  H   UNK A   1       7.872   2.534  21.625  0.00  0.00    +0.149 HD
ATOM      9  C   UNK A   0       9.434   2.479  22.954  0.00  0.00    +0.214 C 
ATOM     10  O   UNK A   0       9.905   2.796  24.057  0.00  0.00    -0.276 OA
ATOM     11  C   UNK A   0      10.167   1.627  21.964  0.00  0.00    +0.096 C 
ATOM     12  C   UNK A   0       9.373   0.339  22.115  0.00  0.00    +0.012 C 
ATOM     13  C   UNK A   0      10.114  -0.965  22.243  0.00  0.00    +0.041 C 
ATOM     14  C   UNK A   0       9.255  -1.780  23.202  0.00  0.00    +0.229 C 
ATOM     15  O   UNK A   1       9.833  -3.033  23.573  0.00  0.00    -0.492 OA
ATOM     16  C   UNK A   1       9.000  -3.535  24.559  0.00  0.00    +0.121 A 
ATOM     17  C   UNK A   1       8.788  -2.803  25.744  0.00  0.00    +0.046 A 
ATOM     18  C   UNK A   1       7.612  -2.983  26.428  0.00  0.00    +0.007 A 
ATOM     19  C   UNK A   1       6.621  -3.585  25.702  0.00  0.00    -0.045 A 
ATOM     20  C   UNK A   1       7.000  -4.709  24.931  0.00  0.00    +0.007 A 
ATOM     21  C   UNK A   1       8.205  -4.630  24.261  0.00  0.00    +0.046 A 
ATOM     22  C   UNK A   1       5.488  -2.669  25.180  0.00  0.00    +0.069 C 
ENDROOT
BRANCH   6  23
ATOM     23  C   UNK A   1       7.108   4.467  23.839  0.00  0.00    +0.012 C 
ATOM     24  C   UNK A   1       5.679   5.002  24.202  0.00  0.00    +0.009 C 
ATOM     25  C   UNK A   1       7.489   5.490  22.698  0.00  0.00    +0.009 C 
ENDBRANCH   6  23
BRANCH   1  26
ATOM     26  C   UNK A   1       5.066  -0.824  26.818  0.00  0.00    +0.326 C 
ATOM     27  O   UNK A   1       5.700  -0.227  27.675  0.00  0.00    -0.249 OA
BRANCH  26  28
ATOM     28  O   UNK A   1       4.024  -1.621  27.186  0.00  0.00    -0.479 OA
ATOM     29  H   UNK A   1       3.225  -1.258  26.748  0.00  0.00    +0.295 HD
ENDBRANCH  26  28
ENDBRANCH   1  26
TORSDOF 3
ENDMDL
MODEL 4
REMARK VINA RESULT:      -6.6      1.840      2.813
REMARK  Name = 
REMARK  5 active torsions:
REMARK  status: ('A' for Active; 'I' for Inactive)
REMARK    1  A    between atoms: C_2  and  C_26
REMARK    2  A    between atoms: CA_16  and  CB_18
REMARK    3  A    between atoms: CB_18  and  CG1_19
REMARK    4  A    between atoms: CB_18  and  CG2_20
REMARK    5  A    between atoms: C_26  and  O_27
REMARK                            x       y       z     vdW  Elec       q    Type
REMARK                         _______ _______ _______ _____ _____    ______ ____
ROOT
ATOM      1  C   UNK A   1       5.493   2.212  24.938  0.00  0.00    +0.186 C 
ATOM      2  N   UNK A   1       6.395   0.905  24.456  0.00  0.00    -0.301 N 
ATOM      3  H   UNK A   1       7.366   1.036  24.687  0.00  0.00    +0.150 HD
ATOM      4  C   UNK A   1       5.968  -0.482  24.648  0.00  0.00    +0.234 C 
ATOM      5  O   UNK A   1       4.977  -0.627  25.386  0.00  0.00    -0.274 OA
ATOM      6  C   UNK A   1       6.799  -2.028  24.147  0.00  0.00    +0.161 C 
ATOM      7  N   UNK A   1       8.248  -2.128  24.157  0.00  0.00    -0.304 N 
ATOM      8  H   UNK A   1       8.670  -2.478  25.012  0.00  0.00    +0.149 HD
ATOM      9  C   UNK A   0       9.065  -1.976  23.062  0.00  0.00    +0.214 C 
ATOM     10  O   UNK A   0       8.676  -1.875  21.888  0.00  0.00    -0.276 OA
ATOM     11  C   UNK A   0      10.435  -1.567  23.509  0.00  0.00    +0.096 C 
ATOM     12  C   UNK A   0      10.076  -0.294  24.260  0.00  0.00    +0.012 C 
ATOM     13  C   UNK A   0      10.897   0.947  24.028  0.00  0.00    +0.041 C 
ATOM     14  C   UNK A   0       9.881   2.078  24.125  0.00  0.00    +0.229 C 
ATOM     15  O   UNK A   1      10.418   3.365  23.815  0.00  0.00    -0.492 OA
ATOM     16  C   UNK A   1       9.325   4.216  23.794  0.00  0.00    +0.121 A 
ATOM     17  C   UNK A   1       8.263   3.977  22.899  0.00  0.00    +0.046 A 
ATOM     18  C   UNK A   1       7.009   4.425  23.232  0.00  0.00    +0.007 A 
ATOM     19  C   UNK A   1       6.853   4.741  24.554  0.00  0.00    -0.045 A 
ATOM     20  C   UNK A   1       7.894   5.493  25.148  0.00  0.00    +0.007 A 
ATOM     21  C   UNK A   1       9.187   5.143  24.814  0.00  0.00    +0.046 A 
ATOM     22  C   UNK A   1       6.074   3.726  25.423  0.00  0.00    +0.069 C 
ENDROOT
BRANCH   6  23
ATOM     23  C   UNK A   1       6.260  -3.440  23.432  0.00  0.00    +0.012 C 
ATOM     24  C   UNK A   1       5.527  -3.087  22.093  0.00  0.00    +0.009 C 
ATOM     25  C   UNK A   1       5.145  -4.324  24.118  0.00  0.00    +0.009 C 
ENDBRANCH   6  23
BRANCH   1  26
ATOM     26  C   UNK A   1       4.292   2.624  24.053  0.00  0.00    +0.326 C 
ATOM     27  O   UNK A   1       3.161   2.923  24.405  0.00  0.00    -0.249 OA
BRANCH  26  28
ATOM     28  O   UNK A   1       4.555   2.431  22.729  0.00  0.00    -0.479 OA
ATOM     29  H   UNK A   1       4.265   1.519  22.517  0.00  0.00    +0.295 HD
ENDBRANCH  26  28
ENDBRANCH   1  26
TORSDOF 3
ENDMDL
MODEL 5
REMARK VINA RESULT:      -6.5      2.335      7.447
REMARK  Name = 
REMARK  5 active torsions:
REMARK  status: ('A' for Active; 'I' for Inactive)
REMARK    1  A    between atoms: C_2  and  C_26
REMARK    2  A    between atoms: CA_16  and  CB_18
REMARK    3  A    between atoms: CB_18  and  CG1_19
REMARK    4  A    between atoms: CB_18  and  CG2_20
REMARK    5  A    between atoms: C_26  and  O_27
REMARK                            x       y       z     vdW  Elec       q    Type
REMARK                         _______ _______ _______ _____ _____    ______ ____
ROOT
ATOM      1  C   UNK A   1       9.205  -1.745  25.071  0.00  0.00    +0.186 C 
ATOM      2  N   UNK A   1       8.672  -0.186  24.873  0.00  0.00    -0.301 N 
ATOM      3  H   UNK A   1       7.885   0.002  25.472  0.00  0.00    +0.150 HD
ATOM      4  C   UNK A   1       9.571   0.966  24.773  0.00  0.00    +0.234 C 
ATOM      5  O   UNK A   1      10.759   0.727  25.055  0.00  0.00    -0.274 OA
ATOM      6  C   UNK A   1       9.170   2.727  24.511  0.00  0.00    +0.161 C 
ATOM      7  N   UNK A   1       7.962   3.305  25.074  0.00  0.00    -0.304 N 
ATOM      8  H   UNK A   1       8.049   3.724  25.994  0.00  0.00    +0.149 HD
ATOM      9  C   UNK A   0       6.781   3.498  24.397  0.00  0.00    +0.214 C 
ATOM     10  O   UNK A   0       6.623   3.343  23.176  0.00  0.00    -0.276 OA
ATOM     11  C   UNK A   0       5.644   3.545  25.371  0.00  0.00    +0.096 C 
ATOM     12  C   UNK A   0       5.827   2.184  26.024  0.00  0.00    +0.012 C 
ATOM     13  C   UNK A   0       4.622   1.304  26.229  0.00  0.00    +0.041 C 
ATOM     14  C   UNK A   0       5.160  -0.105  26.015  0.00  0.00    +0.229 C 
ATOM     15  O   UNK A   1       4.153  -1.119  26.041  0.00  0.00    -0.492 OA
ATOM     16  C   UNK A   1       4.804  -2.283  25.666  0.00  0.00    +0.121 A 
ATOM     17  C   UNK A   1       5.445  -2.360  24.414  0.00  0.00    +0.046 A 
ATOM     18  C   UNK A   1       6.505  -3.220  24.270  0.00  0.00    +0.007 A 
ATOM     19  C   UNK A   1       7.052  -3.647  25.448  0.00  0.00    -0.045 A 
ATOM     20  C   UNK A   1       6.143  -4.041  26.458  0.00  0.00    +0.007 A 
ATOM     21  C   UNK A   1       5.017  -3.261  26.624  0.00  0.00    +0.046 A 
ATOM     22  C   UNK A   1       8.397  -3.003  25.863  0.00  0.00    +0.069 C 
ENDROOT
BRANCH   6  23
ATOM     23  C   UNK A   1       9.818   3.917  23.532  0.00  0.00    +0.012 C 
ATOM     24  C   UNK A   1      11.354   3.656  23.359  0.00  0.00    +0.009 C 
ATOM     25  C   UNK A   1       9.860   5.424  24.004  0.00  0.00    +0.009 C 
ENDBRANCH   6  23
BRANCH   1  26
ATOM     26  C   UNK A   1       9.754  -2.481  23.826  0.00  0.00    +0.326 C 
ATOM     27  O   UNK A   1       9.707  -2.127  22.657  0.00  0.00    -0.249 OA
BRANCH  26  28
ATOM     28  O   UNK A   1      10.157  -3.747  24.129  0.00  0.00    -0.479 OA
ATOM     29  H   UNK A   1       9.343  -4.275  24.268  0.00  0.00    +0.295 HD
ENDBRANCH  26  28
ENDBRANCH   1  26
TORSDOF 3
ENDMDL
MODEL 6
REMARK VINA RESULT:      -6.4      2.707      6.665
REMARK  Name = 
REMARK  5 active torsions:
REMARK  status: ('A' for Active; 'I' for Inactive)
REMARK    1  A    between atoms: C_2  and  C_26
REMARK    2  A    between atoms: CA_16  and  CB_18
REMARK    3  A    between atoms: CB_18  and  CG1_19
REMARK    4  A    between atoms: CB_18  and  CG2_20
REMARK    5  A    between atoms: C_26  and  O_27
REMARK                            x       y       z     vdW  Elec       q    Type
REMARK                         _______ _______ _______ _____ _____    ______ ____
ROOT
ATOM      1  C   UNK A   1       8.483  -2.708  24.675  0.00  0.00    +0.186 C 
ATOM      2  N   UNK A   1       7.281  -1.888  25.472  0.00  0.00    -0.301 N 
ATOM      3  H   UNK A   1       6.483  -2.482  25.624  0.00  0.00    +0.150 HD
ATOM      4  C   UNK A   1       7.530  -1.003  26.612  0.00  0.00    +0.234 C 
ATOM      5  O   UNK A   1       8.681  -1.065  27.080  0.00  0.00    -0.274 OA
ATOM      6  C   UNK A   1       6.350   0.006  27.573  0.00  0.00    +0.161 C 
ATOM      7  N   UNK A   1       4.997  -0.465  27.815  0.00  0.00    -0.304 N 
ATOM      8  H   UNK A   1       4.850  -0.993  28.669  0.00  0.00    +0.149 HD
ATOM      9  C   UNK A   0       3.885  -0.097  27.095  0.00  0.00    +0.214 C 
ATOM     10  O   UNK A   0       3.854   0.796  26.234  0.00  0.00    -0.276 OA
ATOM     11  C   UNK A   0       2.835  -1.158  27.213  0.00  0.00    +0.096 C 
ATOM     12  C   UNK A   0       3.623  -2.341  26.672  0.00  0.00    +0.012 C 
ATOM     13  C   UNK A   0       2.973  -3.251  25.662  0.00  0.00    +0.041 C 
ATOM     14  C   UNK A   0       4.120  -3.653  24.744  0.00  0.00    +0.229 C 
ATOM     15  O   UNK A   1       3.713  -4.434  23.619  0.00  0.00    -0.492 OA
ATOM     16  C   UNK A   1       4.848  -4.552  22.833  0.00  0.00    +0.121 A 
ATOM     17  C   UNK A   1       5.484  -3.398  22.336  0.00  0.00    +0.046 A 
ATOM     18  C   UNK A   1       6.828  -3.453  22.065  0.00  0.00    +0.007 A 
ATOM     19  C   UNK A   1       7.479  -4.509  22.640  0.00  0.00    -0.045 A 
ATOM     20  C   UNK A   1       6.838  -5.767  22.552  0.00  0.00    +0.007 A 
ATOM     21  C   UNK A   1       5.471  -5.786  22.751  0.00  0.00    +0.046 A 
ATOM     22  C   UNK A   1       8.346  -4.197  23.883  0.00  0.00    +0.069 C 
ENDROOT
BRANCH   6  23
ATOM     23  C   UNK A   1       6.385   1.575  28.146  0.00  0.00    +0.012 C 
ATOM     24  C   UNK A   1       7.002   2.507  27.047  0.00  0.00    +0.009 C 
ATOM     25  C   UNK A   1       7.299   1.973  29.372  0.00  0.00    +0.009 C 
ENDBRANCH   6  23
BRANCH   1  26
ATOM     26  C   UNK A   1       9.351  -1.915  23.668  0.00  0.00    +0.326 C 
ATOM     27  O   UNK A   1       9.101  -0.843  23.137  0.00  0.00    -0.249 OA
BRANCH  26  28
ATOM     28  O   UNK A   1      10.414  -2.649  23.234  0.00  0.00    -0.479 OA
ATOM     29  H   UNK A   1      10.788  -3.094  24.024  0.00  0.00    +0.295 HD
ENDBRANCH  26  28
ENDBRANCH   1  26
TORSDOF 3
ENDMDL
MODEL 7
REMARK VINA RESULT:      -6.4      2.450      3.508
REMARK  Name = 
REMARK  5 active torsions:
REMARK  status: ('A' for Active; 'I' for Inactive)
REMARK    1  A    between atoms: C_2  and  C_26
REMARK    2  A    between atoms: CA_16  and  CB_18
REMARK    3  A    between atoms: CB_18  and  CG1_19
REMARK    4  A    between atoms: CB_18  and  CG2_20
REMARK    5  A    between atoms: C_26  and  O_27
REMARK                            x       y       z     vdW  Elec       q    Type
REMARK                         _______ _______ _______ _____ _____    ______ ____
ROOT
ATOM      1  C   UNK A   1       6.326   1.386  26.345  0.00  0.00    +0.186 C 
ATOM      2  N   UNK A   1       7.174   0.313  25.404  0.00  0.00    -0.301 N 
ATOM      3  H   UNK A   1       7.776   0.800  24.761  0.00  0.00    +0.150 HD
ATOM      4  C   UNK A   1       7.801  -0.900  25.933  0.00  0.00    +0.234 C 
ATOM      5  O   UNK A   1       7.837  -0.970  27.174  0.00  0.00    -0.274 OA
ATOM      6  C   UNK A   1       8.724  -2.204  25.050  0.00  0.00    +0.161 C 
ATOM      7  N   UNK A   1       9.557  -1.878  23.905  0.00  0.00    -0.304 N 
ATOM      8  H   UNK A   1      10.532  -1.675  24.100  0.00  0.00    +0.149 HD
ATOM      9  C   UNK A   0       9.186  -2.008  22.588  0.00  0.00    +0.214 C 
ATOM     10  O   UNK A   0       8.148  -2.557  22.188  0.00  0.00    -0.276 OA
ATOM     11  C   UNK A   0       9.999  -1.077  21.742  0.00  0.00    +0.096 C 
ATOM     12  C   UNK A   0       9.638   0.239  22.412  0.00  0.00    +0.012 C 
ATOM     13  C   UNK A   0       9.271   1.420  21.553  0.00  0.00    +0.041 C 
ATOM     14  C   UNK A   0       8.199   2.140  22.363  0.00  0.00    +0.229 C 
ATOM     15  O   UNK A   1       7.605   3.245  21.680  0.00  0.00    -0.492 OA
ATOM     16  C   UNK A   1       6.561   3.652  22.495  0.00  0.00    +0.121 A 
ATOM     17  C   UNK A   1       5.526   2.752  22.817  0.00  0.00    +0.046 A 
ATOM     18  C   UNK A   1       4.842   2.929  23.994  0.00  0.00    +0.007 A 
ATOM     19  C   UNK A   1       5.469   3.744  24.896  0.00  0.00    -0.045 A 
ATOM     20  C   UNK A   1       6.025   4.940  24.383  0.00  0.00    +0.007 A 
ATOM     21  C   UNK A   1       6.677   4.856  23.169  0.00  0.00    +0.046 A 
ATOM     22  C   UNK A   1       6.163   3.051  26.093  0.00  0.00    +0.069 C 
ENDROOT
BRANCH   6  23
ATOM     23  C   UNK A   1       8.703  -3.874  25.124  0.00  0.00    +0.012 C 
ATOM     24  C   UNK A   1       7.223  -4.373  24.995  0.00  0.00    +0.009 C 
ATOM     25  C   UNK A   1       9.122  -4.633  26.444  0.00  0.00    +0.009 C 
ENDBRANCH   6  23
BRANCH   1  26
ATOM     26  C   UNK A   1       4.882   1.004  26.749  0.00  0.00    +0.326 C 
ATOM     27  O   UNK A   1       4.252   1.366  27.731  0.00  0.00    -0.249 OA
BRANCH  26  28
ATOM     28  O   UNK A   1       4.389   0.003  25.966  0.00  0.00    -0.479 OA
ATOM     29  H   UNK A   1       4.480   0.305  25.037  0.00  0.00    +0.295 HD
ENDBRANCH  26  28
ENDBRANCH   1  26
TORSDOF 3
ENDMDL
MODEL 8
REMARK VINA RESULT:      -6.3      2.078      6.915
REMARK  Name = 
REMARK  5 active torsions:
REMARK  status: ('A' for Active; 'I' for Inactive)
REMARK    1  A    between atoms: C_2  and  C_26
REMARK    2  A    between atoms: CA_16  and  CB_18
REMARK    3  A    between atoms: CB_18  and  CG1_19
REMARK    4  A    between atoms: CB_18  and  CG2_20
REMARK    5  A    between atoms: C_26  and  O_27
REMARK                            x       y       z     vdW  Elec       q    Type
REMARK                         _______ _______ _______ _____ _____    ______ ____
ROOT
ATOM      1  C   UNK A   1       9.311  -1.465  24.106  0.00  0.00    +0.186 C 
ATOM      2  N   UNK A   1       8.156  -0.345  24.509  0.00  0.00    -0.301 N 
ATOM      3  H   UNK A   1       7.532  -0.710  25.209  0.00  0.00    +0.150 HD
ATOM      4  C   UNK A   1       8.450   1.074  24.723  0.00  0.00    +0.234 C 
ATOM      5  O   UNK A   1       9.660   1.352  24.788  0.00  0.00    -0.274 OA
ATOM      6  C   UNK A   1       7.311   2.444  25.122  0.00  0.00    +0.161 C 
ATOM      7  N   UNK A   1       6.149   2.221  25.965  0.00  0.00    -0.304 N 
ATOM      8  H   UNK A   1       6.277   2.375  26.959  0.00  0.00    +0.149 HD
ATOM      9  C   UNK A   0       4.867   2.012  25.514  0.00  0.00    +0.214 C 
ATOM     10  O   UNK A   0       4.496   2.126  24.336  0.00  0.00    -0.276 OA
ATOM     11  C   UNK A   0       4.085   1.265  26.551  0.00  0.00    +0.096 C 
ATOM     12  C   UNK A   0       4.962   0.029  26.675  0.00  0.00    +0.012 C 
ATOM     13  C   UNK A   0       4.313  -1.330  26.682  0.00  0.00    +0.041 C 
ATOM     14  C   UNK A   0       5.312  -2.213  25.945  0.00  0.00    +0.229 C 
ATOM     15  O   UNK A   1       4.849  -3.546  25.720  0.00  0.00    -0.492 OA
ATOM     16  C   UNK A   1       5.807  -4.128  24.906  0.00  0.00    +0.121 A 
ATOM     17  C   UNK A   1       6.098  -3.566  23.648  0.00  0.00    +0.046 A 
ATOM     18  C   UNK A   1       7.348  -3.760  23.114  0.00  0.00    +0.007 A 
ATOM     19  C   UNK A   1       8.290  -4.175  24.014  0.00  0.00    -0.045 A 
ATOM     20  C   UNK A   1       7.898  -5.196  24.910  0.00  0.00    +0.007 A 
ATOM     21  C   UNK A   1       6.627  -5.105  25.444  0.00  0.00    +0.046 A 
ATOM     22  C   UNK A   1       9.309  -3.112  24.492  0.00  0.00    +0.069 C 
ENDROOT
BRANCH   6  23
ATOM     23  C   UNK A   1       7.156   4.008  24.554  0.00  0.00    +0.012 C 
ATOM     24  C   UNK A   1       7.301   4.002  22.993  0.00  0.00    +0.009 C 
ATOM     25  C   UNK A   1       8.226   5.113  24.913  0.00  0.00    +0.009 C 
ENDBRANCH   6  23
BRANCH   1  26
ATOM     26  C   UNK A   1       9.794  -1.505  22.636  0.00  0.00    +0.326 C 
ATOM     27  O   UNK A   1      10.891  -1.832  22.210  0.00  0.00    -0.249 OA
BRANCH  26  28
ATOM     28  O   UNK A   1       8.894  -0.919  21.796  0.00  0.00    -0.479 OA
ATOM     29  H   UNK A   1       8.533  -0.141  22.272  0.00  0.00    +0.295 HD
ENDBRANCH  26  28
ENDBRANCH   1  26
TORSDOF 3
ENDMDL
MODEL 9
REMARK VINA RESULT:      -6.2      1.780      4.628
REMARK  Name = 
REMARK  5 active torsions:
REMARK  status: ('A' for Active; 'I' for Inactive)
REMARK    1  A    between atoms: C_2  and  C_26
REMARK    2  A    between atoms: CA_16  and  CB_18
REMARK    3  A    between atoms: CB_18  and  CG1_19
REMARK    4  A    between atoms: CB_18  and  CG2_20
REMARK    5  A    between atoms: C_26  and  O_27
REMARK                            x       y       z     vdW  Elec       q    Type
REMARK                         _______ _______ _______ _____ _____    ______ ____
ROOT
ATOM      1  C   UNK A   1       8.402  -1.223  22.499  0.00  0.00    +0.186 C 
ATOM      2  N   UNK A   1       7.294  -1.664  23.653  0.00  0.00    -0.301 N 
ATOM      3  H   UNK A   1       6.742  -0.872  23.939  0.00  0.00    +0.150 HD
ATOM      4  C   UNK A   1       6.498  -2.890  23.577  0.00  0.00    +0.234 C 
ATOM      5  O   UNK A   1       6.552  -3.482  22.485  0.00  0.00    -0.274 OA
ATOM      6  C   UNK A   1       5.277  -3.552  24.763  0.00  0.00    +0.161 C 
ATOM      7  N   UNK A   1       4.427  -2.657  25.530  0.00  0.00    -0.304 N 
ATOM      8  H   UNK A   1       3.527  -2.430  25.121  0.00  0.00    +0.149 HD
ATOM      9  C   UNK A   0       4.656  -2.257  26.825  0.00  0.00    +0.214 C 
ATOM     10  O   UNK A   0       5.538  -2.714  27.570  0.00  0.00    -0.276 OA
ATOM     11  C   UNK A   0       3.964  -0.954  27.079  0.00  0.00    +0.096 C 
ATOM     12  C   UNK A   0       4.619  -0.115  25.993  0.00  0.00    +0.012 C 
ATOM     13  C   UNK A   0       5.127   1.260  26.338  0.00  0.00    +0.041 C 
ATOM     14  C   UNK A   0       6.378   1.412  25.481  0.00  0.00    +0.229 C 
ATOM     15  O   UNK A   1       7.109   2.613  25.734  0.00  0.00    -0.492 OA
ATOM     16  C   UNK A   1       8.275   2.486  24.996  0.00  0.00    +0.121 A 
ATOM     17  C   UNK A   1       9.147   1.405  25.235  0.00  0.00    +0.046 A 
ATOM     18  C   UNK A   1       9.947   0.967  24.210  0.00  0.00    +0.007 A 
ATOM     19  C   UNK A   1       9.560   1.391  22.968  0.00  0.00    -0.045 A 
ATOM     20  C   UNK A   1       9.197   2.753  22.853  0.00  0.00    +0.007 A 
ATOM     21  C   UNK A   1       8.442   3.287  23.879  0.00  0.00    +0.046 A 
ATOM     22  C   UNK A   1       8.852   0.350  22.068  0.00  0.00    +0.069 C 
ENDROOT
BRANCH   6  23
ATOM     23  C   UNK A   1       4.992  -5.078  25.383  0.00  0.00    +0.012 C 
ATOM     24  C   UNK A   1       6.325  -5.642  25.985  0.00  0.00    +0.009 C 
ATOM     25  C   UNK A   1       4.602  -6.280  24.436  0.00  0.00    +0.009 C 
ENDBRANCH   6  23
BRANCH   1  26
ATOM     26  C   UNK A   1       9.779  -1.931  22.515  0.00  0.00    +0.326 C 
ATOM     27  O   UNK A   1      10.252  -2.642  23.389  0.00  0.00    -0.249 OA
BRANCH  26  28
ATOM     28  O   UNK A   1      10.568  -1.517  21.485  0.00  0.00    -0.479 OA
ATOM     29  H   UNK A   1      10.182  -1.896  20.667  0.00  0.00    +0.295 HD
ENDBRANCH  26  28
ENDBRANCH   1  26
TORSDOF 3
ENDMDL
