MODEL 1
REMARK VINA RESULT:      -7.0      0.000      0.000
REMARK  Name = 
REMARK  7 active torsions:
REMARK  status: ('A' for Active; 'I' for Inactive)
REMARK    1  A    between atoms: C_2  and  C_17
REMARK    2  A    between atoms: C_7  and  C_9
REMARK    3  A    between atoms: C_9  and  O_10
REMARK    4  A    between atoms: O_10  and  C_11
REMARK    5  A    between atoms: N_19  and  C_20
REMARK    6  A    between atoms: C_20  and  C_21
REMARK    7  A    between atoms: C_24  and  C_27
REMARK                            x       y       z     vdW  Elec       q    Type
REMARK                         _______ _______ _______ _____ _____    ______ ____
ROOT
ATOM      1  C   UNL     1       8.773  -0.105  25.464  0.00  0.00    +0.234 C 
ATOM      2  N   UNL     1       8.248  -1.297  25.914  0.00  0.00    -0.310 N 
ATOM      3  H   UNL     1       8.783  -2.140  25.750  0.00  0.00    +0.149 HD
ATOM      4  O   UNL     1       8.230   0.982  25.663  0.00  0.00    -0.274 OA
ENDROOT
BRANCH   1   5
ATOM      5  C   UNL     1       9.981  -0.232  24.512  0.00  0.00    +0.162 C 
ATOM      6  N   UNL     1       9.640  -0.247  23.083  0.00  0.00    -0.288 N 
ATOM      7  C   UNL     1       9.365  -1.370  22.325  0.00  0.00    +0.242 C 
ATOM      8  O   UNL     1       9.304  -1.321  21.094  0.00  0.00    -0.273 OA
ATOM      9  C   UNL     1      10.013   0.993  22.426  0.00  0.00    +0.109 C 
ATOM     10  C   UNL     1      10.417   1.932  23.548  0.00  0.00    +0.021 C 
ATOM     11  C   UNL     1      10.895   0.989  24.647  0.00  0.00    +0.033 C 
BRANCH   7  12
ATOM     12  C   UNL     1       9.106  -2.687  23.066  0.00  0.00    +0.256 C 
BRANCH  12  13
ATOM     13  O   UNL     1       7.743  -2.999  23.295  0.00  0.00    -0.367 OA
BRANCH  13  14
ATOM     14  C   UNL     1       7.032  -3.510  22.156  0.00  0.00    +0.119 C 
ATOM     15  C   UNL     1       5.589  -3.004  22.266  0.00  0.00    +0.031 C 
ATOM     16  C   UNL     1       4.857  -3.607  23.465  0.00  0.00    +0.003 C 
ATOM     17  C   UNL     1       4.918  -5.130  23.460  0.00  0.00    +0.000 C 
ATOM     18  C   UNL     1       6.348  -5.651  23.309  0.00  0.00    +0.003 C 
ATOM     19  C   UNL     1       7.028  -5.040  22.086  0.00  0.00    +0.031 C 
ENDBRANCH  13  14
ENDBRANCH  12  13
ENDBRANCH   7  12
ENDBRANCH   1   5
BRANCH   2  20
ATOM     20  C   UNL     1       7.066  -1.352  26.745  0.00  0.00    +0.139 C 
BRANCH  20  21
ATOM     21  C   UNL     1       6.510  -2.747  26.829  0.00  0.00    -0.030 A 
ATOM     22  C   UNL     1       7.365  -3.853  26.706  0.00  0.00    +0.006 A 
ATOM     23  C   UNL     1       6.875  -5.152  26.838  0.00  0.00    +0.016 A 
ATOM     24  C   UNL     1       5.519  -5.363  27.105  0.00  0.00    +0.065 A 
ATOM     25  C   UNL     1       4.653  -4.267  27.198  0.00  0.00    +0.016 A 
ATOM     26  C   UNL     1       5.148  -2.967  27.069  0.00  0.00    +0.006 A 
BRANCH  24  27
ATOM     27  C   UNL     1       5.016  -6.748  27.308  0.00  0.00    +0.308 C 
ATOM     28  N   UNL     1       5.355  -7.477  28.324  0.00  0.00    -0.099 NA
ATOM     29  H   UNL     1       6.041  -7.000  28.914  0.00  0.00    +0.363 HD
ATOM     30  N   UNL     1       4.163  -7.317  26.410  0.00  0.00    -0.247 N 
ATOM     31  H   UNL     1       3.763  -8.173  26.780  0.00  0.00    +0.288 HD
ATOM     32  H   UNL     1       3.471  -6.705  25.996  0.00  0.00    +0.288 HD
ENDBRANCH  24  27
ENDBRANCH  20  21
ENDBRANCH   2  20
TORSDOF 7
ENDMDL
MODEL 2
REMARK VINA RESULT:      -6.9      2.734      7.621
REMARK  Name = 
REMARK  7 active torsions:
REMARK  status: ('A' for Active; 'I' for Inactive)
REMARK    1  A    between atoms: C_2  and  C_17
REMARK    2  A    between atoms: C_7  and  C_9
REMARK    3  A    between atoms: C_9  and  O_10
REMARK    4  A    between atoms: O_10  and  C_11
REMARK    5  A    between atoms: N_19  and  C_20
REMARK    6  A    between atoms: C_20  and  C_21
REMARK    7  A    between atoms: C_24  and  C_27
REMARK                            x       y       z     vdW  Elec       q    Type
REMARK                         _______ _______ _______ _____ _____    ______ ____
ROOT
ATOM      1  C   UNL     1       7.993  -2.806  23.492  0.00  0.00    +0.234 C 
ATOM      2  N   UNL     1       9.334  -2.561  23.689  0.00  0.00    -0.310 N 
ATOM      3  H   UNL     1       9.773  -2.967  24.506  0.00  0.00    +0.149 HD
ATOM      4  O   UNL     1       7.379  -2.408  22.501  0.00  0.00    -0.274 OA
ENDROOT
BRANCH   1   5
ATOM      5  C   UNL     1       7.252  -3.435  24.691  0.00  0.00    +0.162 C 
ATOM      6  N   UNL     1       5.786  -3.347  24.624  0.00  0.00    -0.288 N 
ATOM      7  C   UNL     1       5.010  -2.320  25.126  0.00  0.00    +0.242 C 
ATOM      8  O   UNL     1       3.785  -2.423  25.225  0.00  0.00    -0.273 OA
ATOM      9  C   UNL     1       5.182  -4.637  24.339  0.00  0.00    +0.109 C 
ATOM     10  C   UNL     1       6.341  -5.553  23.993  0.00  0.00    +0.021 C 
ATOM     11  C   UNL     1       7.517  -4.942  24.749  0.00  0.00    +0.033 C 
BRANCH   7  12
ATOM     12  C   UNL     1       5.718  -1.023  25.535  0.00  0.00    +0.256 C 
BRANCH  12  13
ATOM     13  O   UNL     1       5.529   0.075  24.659  0.00  0.00    -0.367 OA
BRANCH  13  14
ATOM     14  C   UNL     1       6.735   0.674  24.158  0.00  0.00    +0.119 C 
ATOM     15  C   UNL     1       7.308   1.538  25.287  0.00  0.00    +0.031 C 
ATOM     16  C   UNL     1       6.407   2.729  25.615  0.00  0.00    +0.003 C 
ATOM     17  C   UNL     1       6.094   3.561  24.376  0.00  0.00    +0.000 C 
ATOM     18  C   UNL     1       5.561   2.707  23.226  0.00  0.00    +0.003 C 
ATOM     19  C   UNL     1       6.505   1.546  22.921  0.00  0.00    +0.031 C 
ENDBRANCH  13  14
ENDBRANCH  12  13
ENDBRANCH   7  12
ENDBRANCH   1   5
BRANCH   2  20
ATOM     20  C   UNL     1      10.150  -1.901  22.695  0.00  0.00    +0.139 C 
BRANCH  20  21
ATOM     21  C   UNL     1      10.184  -0.411  22.901  0.00  0.00    -0.030 A 
ATOM     22  C   UNL     1      10.573   0.117  24.142  0.00  0.00    +0.006 A 
ATOM     23  C   UNL     1      10.664   1.495  24.333  0.00  0.00    +0.016 A 
ATOM     24  C   UNL     1      10.375   2.367  23.279  0.00  0.00    +0.065 A 
ATOM     25  C   UNL     1       9.955   1.850  22.047  0.00  0.00    +0.016 A 
ATOM     26  C   UNL     1       9.868   0.468  21.858  0.00  0.00    +0.006 A 
BRANCH  24  27
ATOM     27  C   UNL     1      10.536   3.834  23.472  0.00  0.00    +0.308 C 
ATOM     28  N   UNL     1       9.639   4.569  24.049  0.00  0.00    -0.099 NA
ATOM     29  H   UNL     1       8.808   4.024  24.290  0.00  0.00    +0.363 HD
ATOM     30  N   UNL     1      11.657   4.473  23.035  0.00  0.00    -0.247 N 
ATOM     31  H   UNL     1      11.706   5.416  23.407  0.00  0.00    +0.288 HD
ATOM     32  H   UNL     1      12.529   3.967  23.127  0.00  0.00    +0.288 HD
ENDBRANCH  24  27
ENDBRANCH  20  21
ENDBRANCH   2  20
TORSDOF 7
ENDMDL
MODEL 3
REMARK VINA RESULT:      -6.7      2.847      7.043
REMARK  Name = 
REMARK  7 active torsions:
REMARK  status: ('A' for Active; 'I' for Inactive)
REMARK    1  A    between atoms: C_2  and  C_17
REMARK    2  A    between atoms: C_7  and  C_9
REMARK    3  A    between atoms: C_9  and  O_10
REMARK    4  A    between atoms: O_10  and  C_11
REMARK    5  A    between atoms: N_19  and  C_20
REMARK    6  A    between atoms: C_20  and  C_21
REMARK    7  A    between atoms: C_24  and  C_27
REMARK                            x       y       z     vdW  Elec       q    Type
REMARK                         _______ _______ _______ _____ _____    ______ ____
ROOT
ATOM      1  C   UNL     1       7.524  -1.835  26.269  0.00  0.00    +0.234 C 
ATOM      2  N   UNL     1       6.861  -0.636  26.123  0.00  0.00    -0.310 N 
ATOM      3  H   UNL     1       5.883  -0.667  25.861  0.00  0.00    +0.149 HD
ATOM      4  O   UNL     1       8.696  -1.908  26.641  0.00  0.00    -0.274 OA
ENDROOT
BRANCH   1   5
ATOM      5  C   UNL     1       6.775  -3.076  25.740  0.00  0.00    +0.162 C 
ATOM      6  N   UNL     1       7.554  -3.922  24.826  0.00  0.00    -0.288 N 
ATOM      7  C   UNL     1       7.608  -3.796  23.450  0.00  0.00    +0.242 C 
ATOM      8  O   UNL     1       8.105  -4.672  22.739  0.00  0.00    -0.273 OA
ATOM      9  C   UNL     1       7.953  -5.169  25.453  0.00  0.00    +0.109 C 
ATOM     10  C   UNL     1       7.591  -5.013  26.918  0.00  0.00    +0.021 C 
ATOM     11  C   UNL     1       6.432  -4.022  26.895  0.00  0.00    +0.033 C 
BRANCH   7  12
ATOM     12  C   UNL     1       7.052  -2.509  22.827  0.00  0.00    +0.256 C 
BRANCH  12  13
ATOM     13  O   UNL     1       7.861  -1.357  22.988  0.00  0.00    -0.367 OA
BRANCH  13  14
ATOM     14  C   UNL     1       9.111  -1.382  22.282  0.00  0.00    +0.119 C 
ATOM     15  C   UNL     1      10.221  -1.276  23.334  0.00  0.00    +0.031 C 
ATOM     16  C   UNL     1      10.218   0.080  24.040  0.00  0.00    +0.003 C 
ATOM     17  C   UNL     1      10.273   1.236  23.048  0.00  0.00    +0.000 C 
ATOM     18  C   UNL     1       9.198   1.122  21.967  0.00  0.00    +0.003 C 
ATOM     19  C   UNL     1       9.258  -0.238  21.275  0.00  0.00    +0.031 C 
ENDBRANCH  13  14
ENDBRANCH  12  13
ENDBRANCH   7  12
ENDBRANCH   1   5
BRANCH   2  20
ATOM     20  C   UNL     1       7.460   0.626  26.492  0.00  0.00    +0.139 C 
BRANCH  20  21
ATOM     21  C   UNL     1       7.259   1.670  25.428  0.00  0.00    -0.030 A 
ATOM     22  C   UNL     1       6.312   1.464  24.413  0.00  0.00    +0.006 A 
ATOM     23  C   UNL     1       6.073   2.446  23.451  0.00  0.00    +0.016 A 
ATOM     24  C   UNL     1       6.774   3.655  23.498  0.00  0.00    +0.065 A 
ATOM     25  C   UNL     1       7.742   3.856  24.489  0.00  0.00    +0.016 A 
ATOM     26  C   UNL     1       7.977   2.872  25.453  0.00  0.00    +0.006 A 
BRANCH  24  27
ATOM     27  C   UNL     1       6.468   4.722  22.507  0.00  0.00    +0.308 C 
ATOM     28  N   UNL     1       5.267   5.163  22.298  0.00  0.00    -0.099 NA
ATOM     29  H   UNL     1       4.579   4.647  22.850  0.00  0.00    +0.363 HD
ATOM     30  N   UNL     1       7.461   5.287  21.764  0.00  0.00    -0.247 N 
ATOM     31  H   UNL     1       7.130   6.119  21.287  0.00  0.00    +0.288 HD
ATOM     32  H   UNL     1       8.348   5.427  22.231  0.00  0.00    +0.288 HD
ENDBRANCH  24  27
ENDBRANCH  20  21
ENDBRANCH   2  20
TORSDOF 7
ENDMDL
MODEL 4
REMARK VINA RESULT:      -6.7      2.918      7.341
REMARK  Name = 
REMARK  7 active torsions:
REMARK  status: ('A' for Active; 'I' for Inactive)
REMARK    1  A    between atoms: C_2  and  C_17
REMARK    2  A    between atoms: C_7  and  C_9
REMARK    3  A    between atoms: C_9  and  O_10
REMARK    4  A    between atoms: O_10  and  C_11
REMARK    5  A    between atoms: N_19  and  C_20
REMARK    6  A    between atoms: C_20  and  C_21
REMARK    7  A    between atoms: C_24  and  C_27
REMARK                            x       y       z     vdW  Elec       q    Type
REMARK                         _______ _______ _______ _____ _____    ______ ____
ROOT
ATOM      1  C   UNL     1       6.508   0.605  24.380  0.00  0.00    +0.234 C 
ATOM      2  N   UNL     1       7.592   1.323  23.924  0.00  0.00    -0.310 N 
ATOM      3  H   UNL     1       8.481   0.844  23.857  0.00  0.00    +0.149 HD
ATOM      4  O   UNL     1       5.372   1.076  24.443  0.00  0.00    -0.274 OA
ENDROOT
BRANCH   1   5
ATOM      5  C   UNL     1       6.840  -0.767  25.005  0.00  0.00    +0.162 C 
ATOM      6  N   UNL     1       8.247  -1.175  24.884  0.00  0.00    -0.288 N 
ATOM      7  C   UNL     1       8.795  -1.903  23.845  0.00  0.00    +0.242 C 
ATOM      8  O   UNL     1       9.925  -2.390  23.922  0.00  0.00    -0.273 OA
ATOM      9  C   UNL     1       8.942  -1.096  26.156  0.00  0.00    +0.109 C 
ATOM     10  C   UNL     1       7.979  -0.392  27.095  0.00  0.00    +0.021 C 
ATOM     11  C   UNL     1       6.608  -0.731  26.519  0.00  0.00    +0.033 C 
BRANCH   7  12
ATOM     12  C   UNL     1       7.961  -2.066  22.568  0.00  0.00    +0.256 C 
BRANCH  12  13
ATOM     13  O   UNL     1       7.666  -3.402  22.201  0.00  0.00    -0.367 OA
BRANCH  13  14
ATOM     14  C   UNL     1       6.320  -3.634  21.759  0.00  0.00    +0.119 C 
ATOM     15  C   UNL     1       5.414  -3.476  22.985  0.00  0.00    +0.031 C 
ATOM     16  C   UNL     1       5.659  -4.569  24.027  0.00  0.00    +0.003 C 
ATOM     17  C   UNL     1       5.547  -5.963  23.423  0.00  0.00    +0.000 C 
ATOM     18  C   UNL     1       6.413  -6.124  22.173  0.00  0.00    +0.003 C 
ATOM     19  C   UNL     1       6.115  -5.026  21.155  0.00  0.00    +0.031 C 
ENDBRANCH  13  14
ENDBRANCH  12  13
ENDBRANCH   7  12
ENDBRANCH   1   5
BRANCH   2  20
ATOM     20  C   UNL     1       7.459   2.659  23.387  0.00  0.00    +0.139 C 
BRANCH  20  21
ATOM     21  C   UNL     1       8.764   3.406  23.425  0.00  0.00    -0.030 A 
ATOM     22  C   UNL     1       8.776   4.786  23.678  0.00  0.00    +0.006 A 
ATOM     23  C   UNL     1       9.980   5.484  23.773  0.00  0.00    +0.016 A 
ATOM     24  C   UNL     1      11.193   4.805  23.622  0.00  0.00    +0.065 A 
ATOM     25  C   UNL     1      11.190   3.435  23.338  0.00  0.00    +0.016 A 
ATOM     26  C   UNL     1       9.982   2.738  23.248  0.00  0.00    +0.006 A 
BRANCH  24  27
ATOM     27  C   UNL     1      12.475   5.544  23.788  0.00  0.00    +0.308 C 
ATOM     28  N   UNL     1      12.650   6.453  24.695  0.00  0.00    -0.099 NA
ATOM     29  H   UNL     1      11.791   6.624  25.222  0.00  0.00    +0.363 HD
ATOM     30  N   UNL     1      13.535   5.289  22.970  0.00  0.00    -0.247 N 
ATOM     31  H   UNL     1      14.381   5.721  23.326  0.00  0.00    +0.288 HD
ATOM     32  H   UNL     1      13.671   4.324  22.697  0.00  0.00    +0.288 HD
ENDBRANCH  24  27
ENDBRANCH  20  21
ENDBRANCH   2  20
TORSDOF 7
ENDMDL
MODEL 5
REMARK VINA RESULT:      -6.6      2.556      7.314
REMARK  Name = 
REMARK  7 active torsions:
REMARK  status: ('A' for Active; 'I' for Inactive)
REMARK    1  A    between atoms: C_2  and  C_17
REMARK    2  A    between atoms: C_7  and  C_9
REMARK    3  A    between atoms: C_9  and  O_10
REMARK    4  A    between atoms: O_10  and  C_11
REMARK    5  A    between atoms: N_19  and  C_20
REMARK    6  A    between atoms: C_20  and  C_21
REMARK    7  A    between atoms: C_24  and  C_27
REMARK                            x       y       z     vdW  Elec       q    Type
REMARK                         _______ _______ _______ _____ _____    ______ ____
ROOT
ATOM      1  C   UNL     1       8.664  -3.394  23.553  0.00  0.00    +0.234 C 
ATOM      2  N   UNL     1       8.334  -2.568  22.502  0.00  0.00    -0.310 N 
ATOM      3  H   UNL     1       7.374  -2.572  22.181  0.00  0.00    +0.149 HD
ATOM      4  O   UNL     1       9.788  -3.421  24.056  0.00  0.00    -0.274 OA
ENDROOT
BRANCH   1   5
ATOM      5  C   UNL     1       7.594  -4.439  23.935  0.00  0.00    +0.162 C 
ATOM      6  N   UNL     1       6.207  -4.015  23.696  0.00  0.00    -0.288 N 
ATOM      7  C   UNL     1       5.392  -3.359  24.599  0.00  0.00    +0.242 C 
ATOM      8  O   UNL     1       4.180  -3.233  24.406  0.00  0.00    -0.273 OA
ATOM      9  C   UNL     1       5.619  -4.705  22.562  0.00  0.00    +0.109 C 
ATOM     10  C   UNL     1       6.768  -5.452  21.910  0.00  0.00    +0.021 C 
ATOM     11  C   UNL     1       7.738  -5.690  23.063  0.00  0.00    +0.033 C 
BRANCH   7  12
ATOM     12  C   UNL     1       6.047  -2.759  25.850  0.00  0.00    +0.256 C 
BRANCH  12  13
ATOM     13  O   UNL     1       6.561  -1.447  25.698  0.00  0.00    -0.367 OA
BRANCH  13  14
ATOM     14  C   UNL     1       7.270  -0.931  26.835  0.00  0.00    +0.119 C 
ATOM     15  C   UNL     1       6.869   0.541  26.981  0.00  0.00    +0.031 C 
ATOM     16  C   UNL     1       7.367   1.392  25.813  0.00  0.00    +0.003 C 
ATOM     17  C   UNL     1       8.868   1.238  25.598  0.00  0.00    +0.000 C 
ATOM     18  C   UNL     1       9.290  -0.228  25.492  0.00  0.00    +0.003 C 
ATOM     19  C   UNL     1       8.791  -1.030  26.692  0.00  0.00    +0.031 C 
ENDBRANCH  13  14
ENDBRANCH  12  13
ENDBRANCH   7  12
ENDBRANCH   1   5
BRANCH   2  20
ATOM     20  C   UNL     1       9.259  -1.592  21.970  0.00  0.00    +0.139 C 
BRANCH  20  21
ATOM     21  C   UNL     1       8.719  -0.193  22.085  0.00  0.00    -0.030 A 
ATOM     22  C   UNL     1       9.564   0.906  21.865  0.00  0.00    +0.006 A 
ATOM     23  C   UNL     1       9.067   2.208  21.912  0.00  0.00    +0.016 A 
ATOM     24  C   UNL     1       7.711   2.429  22.173  0.00  0.00    +0.065 A 
ATOM     25  C   UNL     1       6.868   1.340  22.425  0.00  0.00    +0.016 A 
ATOM     26  C   UNL     1       7.368   0.037  22.373  0.00  0.00    +0.006 A 
BRANCH  24  27
ATOM     27  C   UNL     1       7.176   3.817  22.159  0.00  0.00    +0.308 C 
ATOM     28  N   UNL     1       5.920   4.084  21.985  0.00  0.00    -0.099 NA
ATOM     29  H   UNL     1       5.379   3.235  21.806  0.00  0.00    +0.363 HD
ATOM     30  N   UNL     1       8.006   4.884  22.328  0.00  0.00    -0.247 N 
ATOM     31  H   UNL     1       7.477   5.735  22.488  0.00  0.00    +0.288 HD
ATOM     32  H   UNL     1       8.766   4.764  22.985  0.00  0.00    +0.288 HD
ENDBRANCH  24  27
ENDBRANCH  20  21
ENDBRANCH   2  20
TORSDOF 7
ENDMDL
MODEL 6
REMARK VINA RESULT:      -6.6      1.971      4.136
REMARK  Name = 
REMARK  7 active torsions:
REMARK  status: ('A' for Active; 'I' for Inactive)
REMARK    1  A    between atoms: C_2  and  C_17
REMARK    2  A    between atoms: C_7  and  C_9
REMARK    3  A    between atoms: C_9  and  O_10
REMARK    4  A    between atoms: O_10  and  C_11
REMARK    5  A    between atoms: N_19  and  C_20
REMARK    6  A    between atoms: C_20  and  C_21
REMARK    7  A    between atoms: C_24  and  C_27
REMARK                            x       y       z     vdW  Elec       q    Type
REMARK                         _______ _______ _______ _____ _____    ______ ____
ROOT
ATOM      1  C   UNL     1       9.094  -0.470  22.802  0.00  0.00    +0.234 C 
ATOM      2  N   UNL     1       8.221  -1.427  22.334  0.00  0.00    -0.310 N 
ATOM      3  H   UNL     1       7.395  -1.111  21.841  0.00  0.00    +0.149 HD
ATOM      4  O   UNL     1      10.156  -0.750  23.361  0.00  0.00    -0.274 OA
ENDROOT
BRANCH   1   5
ATOM      5  C   UNL     1       8.567   0.980  22.771  0.00  0.00    +0.162 C 
ATOM      6  N   UNL     1       8.536   1.652  24.077  0.00  0.00    -0.288 N 
ATOM      7  C   UNL     1       7.478   1.652  24.966  0.00  0.00    +0.242 C 
ATOM      8  O   UNL     1       7.446   2.415  25.935  0.00  0.00    -0.273 OA
ATOM      9  C   UNL     1       9.572   2.664  24.187  0.00  0.00    +0.109 C 
ATOM     10  C   UNL     1      10.447   2.475  22.962  0.00  0.00    +0.021 C 
ATOM     11  C   UNL     1       9.496   1.866  21.936  0.00  0.00    +0.033 C 
BRANCH   7  12
ATOM     12  C   UNL     1       6.344   0.648  24.728  0.00  0.00    +0.256 C 
BRANCH  12  13
ATOM     13  O   UNL     1       6.647  -0.699  25.049  0.00  0.00    -0.367 OA
BRANCH  13  14
ATOM     14  C   UNL     1       6.791  -0.977  26.451  0.00  0.00    +0.119 C 
ATOM     15  C   UNL     1       8.232  -1.455  26.666  0.00  0.00    +0.031 C 
ATOM     16  C   UNL     1       8.499  -2.799  25.988  0.00  0.00    +0.003 C 
ATOM     17  C   UNL     1       7.488  -3.858  26.411  0.00  0.00    +0.000 C 
ATOM     18  C   UNL     1       6.045  -3.380  26.242  0.00  0.00    +0.003 C 
ATOM     19  C   UNL     1       5.822  -2.049  26.955  0.00  0.00    +0.031 C 
ENDBRANCH  13  14
ENDBRANCH  12  13
ENDBRANCH   7  12
ENDBRANCH   1   5
BRANCH   2  20
ATOM     20  C   UNL     1       8.532  -2.838  22.372  0.00  0.00    +0.139 C 
BRANCH  20  21
ATOM     21  C   UNL     1       7.298  -3.675  22.572  0.00  0.00    -0.030 A 
ATOM     22  C   UNL     1       7.415  -5.055  22.797  0.00  0.00    +0.006 A 
ATOM     23  C   UNL     1       6.285  -5.836  23.041  0.00  0.00    +0.016 A 
ATOM     24  C   UNL     1       5.020  -5.243  23.070  0.00  0.00    +0.065 A 
ATOM     25  C   UNL     1       4.891  -3.872  22.815  0.00  0.00    +0.016 A 
ATOM     26  C   UNL     1       6.025  -3.092  22.575  0.00  0.00    +0.006 A 
BRANCH  24  27
ATOM     27  C   UNL     1       3.826  -6.071  23.394  0.00  0.00    +0.308 C 
ATOM     28  N   UNL     1       3.912  -7.290  23.822  0.00  0.00    -0.099 NA
ATOM     29  H   UNL     1       4.883  -7.609  23.847  0.00  0.00    +0.363 HD
ATOM     30  N   UNL     1       2.569  -5.566  23.244  0.00  0.00    -0.247 N 
ATOM     31  H   UNL     1       1.881  -6.169  23.683  0.00  0.00    +0.288 HD
ATOM     32  H   UNL     1       2.445  -4.590  23.480  0.00  0.00    +0.288 HD
ENDBRANCH  24  27
ENDBRANCH  20  21
ENDBRANCH   2  20
TORSDOF 7
ENDMDL
MODEL 7
REMARK VINA RESULT:      -6.5      3.208      7.655
REMARK  Name = 
REMARK  7 active torsions:
REMARK  status: ('A' for Active; 'I' for Inactive)
REMARK    1  A    between atoms: C_2  and  C_17
REMARK    2  A    between atoms: C_7  and  C_9
REMARK    3  A    between atoms: C_9  and  O_10
REMARK    4  A    between atoms: O_10  and  C_11
REMARK    5  A    between atoms: N_19  and  C_20
REMARK    6  A    between atoms: C_20  and  C_21
REMARK    7  A    between atoms: C_24  and  C_27
REMARK                            x       y       z     vdW  Elec       q    Type
REMARK                         _______ _______ _______ _____ _____    ______ ____
ROOT
ATOM      1  C   UNL     1       5.809  -1.589  24.016  0.00  0.00    +0.234 C 
ATOM      2  N   UNL     1       6.290  -0.310  23.842  0.00  0.00    -0.310 N 
ATOM      3  H   UNL     1       6.950  -0.152  23.090  0.00  0.00    +0.149 HD
ATOM      4  O   UNL     1       4.960  -1.875  24.862  0.00  0.00    -0.274 OA
ENDROOT
BRANCH   1   5
ATOM      5  C   UNL     1       6.548  -2.688  23.223  0.00  0.00    +0.162 C 
ATOM      6  N   UNL     1       7.057  -3.799  24.040  0.00  0.00    -0.288 N 
ATOM      7  C   UNL     1       8.305  -3.868  24.629  0.00  0.00    +0.242 C 
ATOM      8  O   UNL     1       8.736  -4.918  25.111  0.00  0.00    -0.273 OA
ATOM      9  C   UNL     1       6.283  -5.012  23.842  0.00  0.00    +0.109 C 
ATOM     10  C   UNL     1       5.082  -4.589  23.017  0.00  0.00    +0.021 C 
ATOM     11  C   UNL     1       5.589  -3.374  22.246  0.00  0.00    +0.033 C 
BRANCH   7  12
ATOM     12  C   UNL     1       9.137  -2.582  24.695  0.00  0.00    +0.256 C 
BRANCH  12  13
ATOM     13  O   UNL     1       8.966  -1.690  23.606  0.00  0.00    -0.367 OA
BRANCH  13  14
ATOM     14  C   UNL     1      10.177  -1.285  22.949  0.00  0.00    +0.119 C 
ATOM     15  C   UNL     1      10.802  -0.179  23.806  0.00  0.00    +0.031 C 
ATOM     16  C   UNL     1       9.945   1.088  23.825  0.00  0.00    +0.003 C 
ATOM     17  C   UNL     1       9.629   1.580  22.418  0.00  0.00    +0.000 C 
ATOM     18  C   UNL     1       9.043   0.475  21.537  0.00  0.00    +0.003 C 
ATOM     19  C   UNL     1       9.945  -0.757  21.531  0.00  0.00    +0.031 C 
ENDBRANCH  13  14
ENDBRANCH  12  13
ENDBRANCH   7  12
ENDBRANCH   1   5
BRANCH   2  20
ATOM     20  C   UNL     1       5.761   0.818  24.576  0.00  0.00    +0.139 C 
BRANCH  20  21
ATOM     21  C   UNL     1       6.262   2.125  24.024  0.00  0.00    -0.030 A 
ATOM     22  C   UNL     1       6.982   3.005  24.846  0.00  0.00    +0.006 A 
ATOM     23  C   UNL     1       7.501   4.194  24.335  0.00  0.00    +0.016 A 
ATOM     24  C   UNL     1       7.314   4.516  22.988  0.00  0.00    +0.065 A 
ATOM     25  C   UNL     1       6.570   3.660  22.168  0.00  0.00    +0.016 A 
ATOM     26  C   UNL     1       6.054   2.467  22.682  0.00  0.00    +0.006 A 
BRANCH  24  27
ATOM     27  C   UNL     1       7.925   5.756  22.436  0.00  0.00    +0.308 C 
ATOM     28  N   UNL     1       9.001   6.287  22.925  0.00  0.00    -0.099 NA
ATOM     29  H   UNL     1       9.323   5.782  23.754  0.00  0.00    +0.363 HD
ATOM     30  N   UNL     1       7.361   6.395  21.372  0.00  0.00    -0.247 N 
ATOM     31  H   UNL     1       7.989   7.097  20.995  0.00  0.00    +0.288 HD
ATOM     32  H   UNL     1       6.954   5.806  20.657  0.00  0.00    +0.288 HD
ENDBRANCH  24  27
ENDBRANCH  20  21
ENDBRANCH   2  20
TORSDOF 7
ENDMDL
MODEL 8
REMARK VINA RESULT:      -6.5      2.198      6.904
REMARK  Name = 
REMARK  7 active torsions:
REMARK  status: ('A' for Active; 'I' for Inactive)
REMARK    1  A    between atoms: C_2  and  C_17
REMARK    2  A    between atoms: C_7  and  C_9
REMARK    3  A    between atoms: C_9  and  O_10
REMARK    4  A    between atoms: O_10  and  C_11
REMARK    5  A    between atoms: N_19  and  C_20
REMARK    6  A    between atoms: C_20  and  C_21
REMARK    7  A    between atoms: C_24  and  C_27
REMARK                            x       y       z     vdW  Elec       q    Type
REMARK                         _______ _______ _______ _____ _____    ______ ____
ROOT
ATOM      1  C   UNL     1       7.022  -4.854  27.128  0.00  0.00    +0.234 C 
ATOM      2  N   UNL     1       7.534  -3.763  26.461  0.00  0.00    -0.310 N 
ATOM      3  H   UNL     1       7.073  -2.871  26.592  0.00  0.00    +0.149 HD
ATOM      4  O   UNL     1       7.544  -5.970  27.083  0.00  0.00    -0.274 OA
ENDROOT
BRANCH   1   5
ATOM      5  C   UNL     1       5.635  -4.646  27.772  0.00  0.00    +0.162 C 
ATOM      6  N   UNL     1       4.534  -5.351  27.101  0.00  0.00    -0.288 N 
ATOM      7  C   UNL     1       3.751  -4.848  26.078  0.00  0.00    +0.242 C 
ATOM      8  O   UNL     1       2.714  -5.411  25.720  0.00  0.00    -0.273 OA
ATOM      9  C   UNL     1       4.064  -6.483  27.879  0.00  0.00    +0.109 C 
ATOM     10  C   UNL     1       5.068  -6.635  29.007  0.00  0.00    +0.021 C 
ATOM     11  C   UNL     1       5.616  -5.224  29.190  0.00  0.00    +0.033 C 
BRANCH   7  12
ATOM     12  C   UNL     1       4.229  -3.572  25.374  0.00  0.00    +0.256 C 
BRANCH  12  13
ATOM     13  O   UNL     1       5.243  -3.757  24.401  0.00  0.00    -0.367 OA
BRANCH  13  14
ATOM     14  C   UNL     1       4.780  -3.872  23.047  0.00  0.00    +0.119 C 
ATOM     15  C   UNL     1       4.664  -5.369  22.739  0.00  0.00    +0.031 C 
ATOM     16  C   UNL     1       6.028  -6.061  22.727  0.00  0.00    +0.003 C 
ATOM     17  C   UNL     1       7.007  -5.369  21.786  0.00  0.00    +0.000 C 
ATOM     18  C   UNL     1       7.102  -3.866  22.054  0.00  0.00    +0.003 C 
ATOM     19  C   UNL     1       5.720  -3.217  22.031  0.00  0.00    +0.031 C 
ENDBRANCH  13  14
ENDBRANCH  12  13
ENDBRANCH   7  12
ENDBRANCH   1   5
BRANCH   2  20
ATOM     20  C   UNL     1       8.784  -3.819  25.736  0.00  0.00    +0.139 C 
BRANCH  20  21
ATOM     21  C   UNL     1       8.939  -2.649  24.803  0.00  0.00    -0.030 A 
ATOM     22  C   UNL     1       8.059  -1.560  24.891  0.00  0.00    +0.006 A 
ATOM     23  C   UNL     1       8.224  -0.442  24.072  0.00  0.00    +0.016 A 
ATOM     24  C   UNL     1       9.280  -0.398  23.157  0.00  0.00    +0.065 A 
ATOM     25  C   UNL     1      10.143  -1.494  23.040  0.00  0.00    +0.016 A 
ATOM     26  C   UNL     1       9.978  -2.610  23.865  0.00  0.00    +0.006 A 
BRANCH  24  27
ATOM     27  C   UNL     1       9.487   0.823  22.332  0.00  0.00    +0.308 C 
ATOM     28  N   UNL     1       9.030   0.942  21.125  0.00  0.00    -0.099 NA
ATOM     29  H   UNL     1       8.575   0.081  20.812  0.00  0.00    +0.363 HD
ATOM     30  N   UNL     1      10.184   1.886  22.825  0.00  0.00    -0.247 N 
ATOM     31  H   UNL     1      10.073   2.701  22.231  0.00  0.00    +0.288 HD
ATOM     32  H   UNL     1      10.053   2.093  23.807  0.00  0.00    +0.288 HD
ENDBRANCH  24  27
ENDBRANCH  20  21
ENDBRANCH   2  20
TORSDOF 7
ENDMDL
MODEL 9
REMARK VINA RESULT:      -6.5      2.493      3.825
REMARK  Name = 
REMARK  7 active torsions:
REMARK  status: ('A' for Active; 'I' for Inactive)
REMARK    1  A    between atoms: C_2  and  C_17
REMARK    2  A    between atoms: C_7  and  C_9
REMARK    3  A    between atoms: C_9  and  O_10
REMARK    4  A    between atoms: O_10  and  C_11
REMARK    5  A    between atoms: N_19  and  C_20
REMARK    6  A    between atoms: C_20  and  C_21
REMARK    7  A    between atoms: C_24  and  C_27
REMARK                            x       y       z     vdW  Elec       q    Type
REMARK                         _______ _______ _______ _____ _____    ______ ____
ROOT
ATOM      1  C   UNL     1       7.181   2.157  25.013  0.00  0.00    +0.234 C 
ATOM      2  N   UNL     1       6.962   1.246  26.022  0.00  0.00    -0.310 N 
ATOM      3  H   UNL     1       7.420   1.407  26.911  0.00  0.00    +0.149 HD
ATOM      4  O   UNL     1       6.626   2.085  23.915  0.00  0.00    -0.274 OA
ENDROOT
BRANCH   1   5
ATOM      5  C   UNL     1       8.324   3.163  25.265  0.00  0.00    +0.162 C 
ATOM      6  N   UNL     1       9.166   3.445  24.093  0.00  0.00    -0.288 N 
ATOM      7  C   UNL     1      10.312   2.761  23.734  0.00  0.00    +0.242 C 
ATOM      8  O   UNL     1      11.078   3.191  22.869  0.00  0.00    -0.273 OA
ATOM      9  C   UNL     1       8.919   4.771  23.558  0.00  0.00    +0.109 C 
ATOM     10  C   UNL     1       7.696   5.280  24.300  0.00  0.00    +0.021 C 
ATOM     11  C   UNL     1       7.752   4.537  25.631  0.00  0.00    +0.033 C 
BRANCH   7  12
ATOM     12  C   UNL     1      10.593   1.422  24.428  0.00  0.00    +0.256 C 
BRANCH  12  13
ATOM     13  O   UNL     1       9.764   0.344  24.028  0.00  0.00    -0.367 OA
BRANCH  13  14
ATOM     14  C   UNL     1       9.973  -0.124  22.687  0.00  0.00    +0.119 C 
ATOM     15  C   UNL     1       8.619  -0.052  21.972  0.00  0.00    +0.031 C 
ATOM     16  C   UNL     1       7.605  -1.036  22.558  0.00  0.00    +0.003 C 
ATOM     17  C   UNL     1       8.148  -2.459  22.588  0.00  0.00    +0.000 C 
ATOM     18  C   UNL     1       9.519  -2.541  23.260  0.00  0.00    +0.003 C 
ATOM     19  C   UNL     1      10.501  -1.560  22.625  0.00  0.00    +0.031 C 
ENDBRANCH  13  14
ENDBRANCH  12  13
ENDBRANCH   7  12
ENDBRANCH   1   5
BRANCH   2  20
ATOM     20  C   UNL     1       5.985   0.188  25.906  0.00  0.00    +0.139 C 
BRANCH  20  21
ATOM     21  C   UNL     1       6.621  -1.172  26.006  0.00  0.00    -0.030 A 
ATOM     22  C   UNL     1       7.933  -1.299  26.487  0.00  0.00    +0.006 A 
ATOM     23  C   UNL     1       8.519  -2.556  26.640  0.00  0.00    +0.016 A 
ATOM     24  C   UNL     1       7.793  -3.707  26.319  0.00  0.00    +0.065 A 
ATOM     25  C   UNL     1       6.495  -3.588  25.808  0.00  0.00    +0.016 A 
ATOM     26  C   UNL     1       5.910  -2.327  25.660  0.00  0.00    +0.006 A 
BRANCH  24  27
ATOM     27  C   UNL     1       8.401  -5.046  26.544  0.00  0.00    +0.308 C 
ATOM     28  N   UNL     1       9.549  -5.389  26.051  0.00  0.00    -0.099 NA
ATOM     29  H   UNL     1       9.935  -4.651  25.457  0.00  0.00    +0.363 HD
ATOM     30  N   UNL     1       7.756  -5.986  27.292  0.00  0.00    -0.247 N 
ATOM     31  H   UNL     1       8.373  -6.760  27.514  0.00  0.00    +0.288 HD
ATOM     32  H   UNL     1       7.243  -5.647  28.096  0.00  0.00    +0.288 HD
ENDBRANCH  24  27
ENDBRANCH  20  21
ENDBRANCH   2  20
TORSDOF 7
ENDMDL
