MODEL 1
REMARK VINA RESULT:      -7.6      0.000      0.000
REMARK  Name = 
REMARK  2 active torsions:
REMARK  status: ('A' for Active; 'I' for Inactive)
REMARK    1  A    between atoms: C_18  and  O_19
REMARK    2  A    between atoms: C_22  and  C_24
REMARK                            x       y       z     vdW  Elec       q    Type
REMARK                         _______ _______ _______ _____ _____    ______ ____
ROOT
ATOM      1  C   UNL     1       5.939  -4.574  26.773  0.00  0.00    +0.175 C 
ATOM      2  O   UNL     1       5.446  -3.876  25.648  0.00  0.00    -0.364 OA
ATOM      3  C   UNL     1       6.293  -2.711  25.381  0.00  0.00    +0.150 C 
ATOM      4  C   UNL     1       5.429  -1.466  25.371  0.00  0.00    +0.043 C 
ATOM      5  C   UNL     1       7.576  -2.703  26.246  0.00  0.00    +0.039 C 
ATOM      6  C   UNL     1       8.525  -1.561  26.269  0.00  0.00    +0.196 C 
ATOM      7  C   UNL     1       9.398  -1.503  25.077  0.00  0.00    +0.074 A 
ATOM      8  C   UNL     1       9.734  -0.263  24.546  0.00  0.00    +0.128 A 
ATOM      9  C   UNL     1       9.507  -0.041  23.196  0.00  0.00    +0.046 A 
ATOM     10  C   UNL     1       9.058  -1.098  22.397  0.00  0.00    +0.004 A 
ATOM     11  C   UNL     1       9.023  -2.409  22.906  0.00  0.00    +0.012 A 
ATOM     12  C   UNL     1       9.264  -2.617  24.266  0.00  0.00    +0.036 A 
ATOM     13  C   UNL     1       9.019  -3.937  24.936  0.00  0.00    +0.194 C 
ATOM     14  O   UNL     1       9.316  -4.976  24.394  0.00  0.00    -0.287 OA
ATOM     15  O   UNL     1       8.518  -0.757  27.190  0.00  0.00    -0.287 OA
ATOM     16  C   UNL     1       8.222  -3.887  26.248  0.00  0.00    +0.052 C 
ATOM     17  C   UNL     1       7.349  -5.093  26.517  0.00  0.00    +0.240 C 
ATOM     18  O   UNL     1       7.603  -5.797  27.728  0.00  0.00    -0.454 OA
ATOM     19  C   UNL     1       6.382  -6.310  28.133  0.00  0.00    +0.310 C 
ATOM     20  O   UNL     1       6.226  -7.021  29.113  0.00  0.00    -0.251 OA
ATOM     21  C   UNL     1       5.280  -5.846  27.209  0.00  0.00    +0.156 C 
ENDROOT
BRANCH   8  22
ATOM     22  O   UNL     1      10.249   0.719  25.329  0.00  0.00    -0.506 OA
ATOM     23  H   UNL     1       9.839   0.650  26.211  0.00  0.00    +0.292 HD
ENDBRANCH   8  22
TORSDOF 1
ENDMDL
MODEL 2
REMARK VINA RESULT:      -7.5      1.703      6.110
REMARK  Name = 
REMARK  2 active torsions:
REMARK  status: ('A' for Active; 'I' for Inactive)
REMARK    1  A    between atoms: C_18  and  O_19
REMARK    2  A    between atoms: C_22  and  C_24
REMARK                            x       y       z     vdW  Elec       q    Type
REMARK                         _______ _______ _______ _____ _____    ______ ____
ROOT
ATOM      1  C   UNL     1       8.745   0.367  23.219  0.00  0.00    +0.175 C 
ATOM      2  O   UNL     1       7.521  -0.289  22.960  0.00  0.00    -0.364 OA
ATOM      3  C   UNL     1       7.564  -1.647  23.506  0.00  0.00    +0.150 C 
ATOM      4  C   UNL     1       7.260  -2.633  22.397  0.00  0.00    +0.043 C 
ATOM      5  C   UNL     1       8.819  -1.893  24.378  0.00  0.00    +0.039 C 
ATOM      6  C   UNL     1       9.170  -3.228  24.926  0.00  0.00    +0.196 C 
ATOM      7  C   UNL     1       8.353  -3.613  26.096  0.00  0.00    +0.074 A 
ATOM      8  C   UNL     1       7.972  -4.941  26.247  0.00  0.00    +0.128 A 
ATOM      9  C   UNL     1       6.627  -5.225  26.430  0.00  0.00    +0.046 A 
ATOM     10  C   UNL     1       5.720  -4.169  26.569  0.00  0.00    +0.004 A 
ATOM     11  C   UNL     1       6.183  -2.849  26.717  0.00  0.00    +0.012 A 
ATOM     12  C   UNL     1       7.542  -2.581  26.540  0.00  0.00    +0.036 A 
ATOM     13  C   UNL     1       8.084  -1.185  26.447  0.00  0.00    +0.194 C 
ATOM     14  O   UNL     1       7.675  -0.308  27.171  0.00  0.00    -0.287 OA
ATOM     15  O   UNL     1      10.034  -3.916  24.401  0.00  0.00    -0.287 OA
ATOM     16  C   UNL     1       9.041  -0.913  25.277  0.00  0.00    +0.052 C 
ATOM     17  C   UNL     1       8.990   0.492  24.717  0.00  0.00    +0.240 C 
ATOM     18  O   UNL     1      10.213   1.221  24.733  0.00  0.00    -0.454 OA
ATOM     19  C   UNL     1      10.172   2.057  23.629  0.00  0.00    +0.310 C 
ATOM     20  O   UNL     1      11.036   2.873  23.353  0.00  0.00    -0.251 OA
ATOM     21  C   UNL     1       8.925   1.798  22.816  0.00  0.00    +0.156 C 
ENDROOT
BRANCH   8  22
ATOM     22  O   UNL     1       8.887  -5.944  26.192  0.00  0.00    -0.506 OA
ATOM     23  H   UNL     1       9.763  -5.546  26.033  0.00  0.00    +0.292 HD
ENDBRANCH   8  22
TORSDOF 1
ENDMDL
MODEL 3
REMARK VINA RESULT:      -7.4      1.443      1.961
REMARK  Name = 
REMARK  2 active torsions:
REMARK  status: ('A' for Active; 'I' for Inactive)
REMARK    1  A    between atoms: C_18  and  O_19
REMARK    2  A    between atoms: C_22  and  C_24
REMARK                            x       y       z     vdW  Elec       q    Type
REMARK                         _______ _______ _______ _____ _____    ______ ____
ROOT
ATOM      1  C   UNL     1       6.887  -3.613  25.508  0.00  0.00    +0.175 C 
ATOM      2  O   UNL     1       6.361  -3.035  24.331  0.00  0.00    -0.364 OA
ATOM      3  C   UNL     1       6.934  -1.701  24.138  0.00  0.00    +0.150 C 
ATOM      4  C   UNL     1       5.809  -0.692  24.027  0.00  0.00    +0.043 C 
ATOM      5  C   UNL     1       8.085  -1.404  25.130  0.00  0.00    +0.039 C 
ATOM      6  C   UNL     1       8.733  -0.072  25.236  0.00  0.00    +0.196 C 
ATOM      7  C   UNL     1       9.684   0.205  24.139  0.00  0.00    +0.074 A 
ATOM      8  C   UNL     1       9.773   1.495  23.630  0.00  0.00    +0.128 A 
ATOM      9  C   UNL     1       9.638   1.676  22.262  0.00  0.00    +0.046 A 
ATOM     10  C   UNL     1       9.532   0.553  21.434  0.00  0.00    +0.004 A 
ATOM     11  C   UNL     1       9.754  -0.735  21.950  0.00  0.00    +0.012 A 
ATOM     12  C   UNL     1       9.898  -0.899  23.330  0.00  0.00    +0.036 A 
ATOM     13  C   UNL     1       9.902  -2.249  23.986  0.00  0.00    +0.194 C 
ATOM     14  O   UNL     1      10.487  -3.182  23.489  0.00  0.00    -0.287 OA
ATOM     15  O   UNL     1       8.445   0.697  26.142  0.00  0.00    -0.287 OA
ATOM     16  C   UNL     1       8.987  -2.403  25.210  0.00  0.00    +0.052 C 
ATOM     17  C   UNL     1       8.397  -3.783  25.403  0.00  0.00    +0.240 C 
ATOM     18  O   UNL     1       8.685  -4.425  26.641  0.00  0.00    -0.454 OA
ATOM     19  C   UNL     1       7.584  -5.214  26.926  0.00  0.00    +0.310 C 
ATOM     20  O   UNL     1       7.501  -5.955  27.892  0.00  0.00    -0.251 OA
ATOM     21  C   UNL     1       6.504  -5.009  25.889  0.00  0.00    +0.156 C 
ENDROOT
BRANCH   8  22
ATOM     22  O   UNL     1       9.961   2.561  24.451  0.00  0.00    -0.506 OA
ATOM     23  H   UNL     1      10.884   2.542  24.765  0.00  0.00    +0.292 HD
ENDBRANCH   8  22
TORSDOF 1
ENDMDL
MODEL 4
REMARK VINA RESULT:      -7.4      2.446      6.089
REMARK  Name = 
REMARK  2 active torsions:
REMARK  status: ('A' for Active; 'I' for Inactive)
REMARK    1  A    between atoms: C_18  and  O_19
REMARK    2  A    between atoms: C_22  and  C_24
REMARK                            x       y       z     vdW  Elec       q    Type
REMARK                         _______ _______ _______ _____ _____    ______ ____
ROOT
ATOM      1  C   UNL     1       8.219   0.101  23.903  0.00  0.00    +0.175 C 
ATOM      2  O   UNL     1       7.555  -0.286  25.088  0.00  0.00    -0.364 OA
ATOM      3  C   UNL     1       6.746  -1.480  24.832  0.00  0.00    +0.150 C 
ATOM      4  C   UNL     1       5.310  -1.195  25.222  0.00  0.00    +0.043 C 
ATOM      5  C   UNL     1       7.016  -2.087  23.434  0.00  0.00    +0.039 C 
ATOM      6  C   UNL     1       6.222  -3.212  22.878  0.00  0.00    +0.196 C 
ATOM      7  C   UNL     1       6.584  -4.525  23.454  0.00  0.00    +0.074 A 
ATOM      8  C   UNL     1       5.584  -5.463  23.682  0.00  0.00    +0.128 A 
ATOM      9  C   UNL     1       5.479  -6.020  24.946  0.00  0.00    +0.046 A 
ATOM     10  C   UNL     1       6.443  -5.710  25.911  0.00  0.00    +0.004 A 
ATOM     11  C   UNL     1       7.605  -5.003  25.553  0.00  0.00    +0.012 A 
ATOM     12  C   UNL     1       7.700  -4.456  24.271  0.00  0.00    +0.036 A 
ATOM     13  C   UNL     1       8.787  -3.497  23.882  0.00  0.00    +0.194 C 
ATOM     14  O   UNL     1       9.927  -3.666  24.246  0.00  0.00    -0.287 OA
ATOM     15  O   UNL     1       5.342  -3.013  22.052  0.00  0.00    -0.287 OA
ATOM     16  C   UNL     1       8.329  -2.222  23.158  0.00  0.00    +0.052 C 
ATOM     17  C   UNL     1       9.168  -0.992  23.428  0.00  0.00    +0.240 C 
ATOM     18  O   UNL     1       9.755  -0.367  22.291  0.00  0.00    -0.454 OA
ATOM     19  C   UNL     1       9.817   0.984  22.589  0.00  0.00    +0.310 C 
ATOM     20  O   UNL     1      10.316   1.826  21.860  0.00  0.00    -0.251 OA
ATOM     21  C   UNL     1       9.165   1.262  23.923  0.00  0.00    +0.156 C 
ENDROOT
BRANCH   8  22
ATOM     22  O   UNL     1       4.711  -5.810  22.700  0.00  0.00    -0.506 OA
ATOM     23  H   UNL     1       5.085  -6.570  22.218  0.00  0.00    +0.292 HD
ENDBRANCH   8  22
TORSDOF 1
ENDMDL
MODEL 5
REMARK VINA RESULT:      -7.3      5.389      7.440
REMARK  Name = 
REMARK  2 active torsions:
REMARK  status: ('A' for Active; 'I' for Inactive)
REMARK    1  A    between atoms: C_18  and  O_19
REMARK    2  A    between atoms: C_22  and  C_24
REMARK                            x       y       z     vdW  Elec       q    Type
REMARK                         _______ _______ _______ _____ _____    ______ ____
ROOT
ATOM      1  C   UNL     1       8.826   0.925  22.173  0.00  0.00    +0.175 C 
ATOM      2  O   UNL     1       8.150   2.003  21.560  0.00  0.00    -0.364 OA
ATOM      3  C   UNL     1       7.779   2.993  22.574  0.00  0.00    +0.150 C 
ATOM      4  C   UNL     1       6.284   3.229  22.509  0.00  0.00    +0.043 C 
ATOM      5  C   UNL     1       8.411   2.689  23.954  0.00  0.00    +0.039 C 
ATOM      6  C   UNL     1       8.076   3.458  25.179  0.00  0.00    +0.196 C 
ATOM      7  C   UNL     1       8.731   4.783  25.236  0.00  0.00    +0.074 A 
ATOM      8  C   UNL     1       8.036   5.858  25.777  0.00  0.00    +0.128 A 
ATOM      9  C   UNL     1       7.926   7.018  25.026  0.00  0.00    +0.046 A 
ATOM     10  C   UNL     1       8.609   7.108  23.808  0.00  0.00    +0.004 A 
ATOM     11  C   UNL     1       9.544   6.124  23.442  0.00  0.00    +0.012 A 
ATOM     12  C   UNL     1       9.650   4.965  24.215  0.00  0.00    +0.036 A 
ATOM     13  C   UNL     1      10.442   3.770  23.774  0.00  0.00    +0.194 C 
ATOM     14  O   UNL     1      11.518   3.898  23.239  0.00  0.00    -0.287 OA
ATOM     15  O   UNL     1       7.301   3.009  26.012  0.00  0.00    -0.287 OA
ATOM     16  C   UNL     1       9.730   2.413  23.885  0.00  0.00    +0.052 C 
ATOM     17  C   UNL     1      10.116   1.396  22.833  0.00  0.00    +0.240 C 
ATOM     18  O   UNL     1      10.641   0.163  23.313  0.00  0.00    -0.454 OA
ATOM     19  C   UNL     1      10.254  -0.799  22.395  0.00  0.00    +0.310 C 
ATOM     20  O   UNL     1      10.575  -1.975  22.455  0.00  0.00    -0.251 OA
ATOM     21  C   UNL     1       9.368  -0.190  21.333  0.00  0.00    +0.156 C 
ENDROOT
BRANCH   8  22
ATOM     22  O   UNL     1       7.453   5.772  27.001  0.00  0.00    -0.506 OA
ATOM     23  H   UNL     1       6.927   4.951  27.029  0.00  0.00    +0.292 HD
ENDBRANCH   8  22
TORSDOF 1
ENDMDL
MODEL 6
REMARK VINA RESULT:      -7.3      2.935      4.479
REMARK  Name = 
REMARK  2 active torsions:
REMARK  status: ('A' for Active; 'I' for Inactive)
REMARK    1  A    between atoms: C_18  and  O_19
REMARK    2  A    between atoms: C_22  and  C_24
REMARK                            x       y       z     vdW  Elec       q    Type
REMARK                         _______ _______ _______ _____ _____    ______ ____
ROOT
ATOM      1  C   UNL     1       7.025  -3.958  23.576  0.00  0.00    +0.175 C 
ATOM      2  O   UNL     1       8.034  -3.569  24.486  0.00  0.00    -0.364 OA
ATOM      3  C   UNL     1       8.696  -2.356  24.000  0.00  0.00    +0.150 C 
ATOM      4  C   UNL     1      10.185  -2.615  23.895  0.00  0.00    +0.043 C 
ATOM      5  C   UNL     1       7.974  -1.740  22.777  0.00  0.00    +0.039 C 
ATOM      6  C   UNL     1       8.524  -0.592  22.012  0.00  0.00    +0.196 C 
ATOM      7  C   UNL     1       8.349   0.706  22.697  0.00  0.00    +0.074 A 
ATOM      8  C   UNL     1       9.354   1.662  22.601  0.00  0.00    +0.128 A 
ATOM      9  C   UNL     1       9.857   2.208  23.771  0.00  0.00    +0.046 A 
ATOM     10  C   UNL     1       9.266   1.867  24.993  0.00  0.00    +0.004 A 
ATOM     11  C   UNL     1       8.063   1.140  25.022  0.00  0.00    +0.012 A 
ATOM     12  C   UNL     1       7.562   0.605  23.832  0.00  0.00    +0.036 A 
ATOM     13  C   UNL     1       6.424  -0.372  23.803  0.00  0.00    +0.194 C 
ATOM     14  O   UNL     1       5.463  -0.231  24.521  0.00  0.00    -0.287 OA
ATOM     15  O   UNL     1       9.090  -0.764  20.941  0.00  0.00    -0.287 OA
ATOM     16  C   UNL     1       6.641  -1.630  22.948  0.00  0.00    +0.052 C 
ATOM     17  C   UNL     1       5.956  -2.880  23.456  0.00  0.00    +0.240 C 
ATOM     18  O   UNL     1       5.040  -3.504  22.562  0.00  0.00    -0.454 OA
ATOM     19  C   UNL     1       5.100  -4.859  22.841  0.00  0.00    +0.310 C 
ATOM     20  O   UNL     1       4.404  -5.703  22.301  0.00  0.00    -0.251 OA
ATOM     21  C   UNL     1       6.158  -5.138  23.884  0.00  0.00    +0.156 C 
ENDROOT
BRANCH   8  22
ATOM     22  O   UNL     1       9.852   2.037  21.395  0.00  0.00    -0.506 OA
ATOM     23  H   UNL     1       9.112   2.361  20.849  0.00  0.00    +0.292 HD
ENDBRANCH   8  22
TORSDOF 1
ENDMDL
MODEL 7
REMARK VINA RESULT:      -7.1      1.919      6.040
REMARK  Name = 
REMARK  2 active torsions:
REMARK  status: ('A' for Active; 'I' for Inactive)
REMARK    1  A    between atoms: C_18  and  O_19
REMARK    2  A    between atoms: C_22  and  C_24
REMARK                            x       y       z     vdW  Elec       q    Type
REMARK                         _______ _______ _______ _____ _____    ______ ____
ROOT
ATOM      1  C   UNL     1       7.974  -2.107  24.203  0.00  0.00    +0.175 C 
ATOM      2  O   UNL     1       6.931  -1.752  25.088  0.00  0.00    -0.364 OA
ATOM      3  C   UNL     1       6.043  -2.899  25.288  0.00  0.00    +0.150 C 
ATOM      4  C   UNL     1       4.627  -2.493  24.932  0.00  0.00    +0.043 C 
ATOM      5  C   UNL     1       6.608  -4.199  24.666  0.00  0.00    +0.039 C 
ATOM      6  C   UNL     1       5.835  -5.465  24.607  0.00  0.00    +0.196 C 
ATOM      7  C   UNL     1       5.778  -6.177  25.901  0.00  0.00    +0.074 A 
ATOM      8  C   UNL     1       4.610  -6.841  26.258  0.00  0.00    +0.128 A 
ATOM      9  C   UNL     1       4.039  -6.556  27.488  0.00  0.00    +0.046 A 
ATOM     10  C   UNL     1       4.711  -5.703  28.371  0.00  0.00    +0.004 A 
ATOM     11  C   UNL     1       6.030  -5.297  28.101  0.00  0.00    +0.012 A 
ATOM     12  C   UNL     1       6.595  -5.601  26.860  0.00  0.00    +0.036 A 
ATOM     13  C   UNL     1       7.896  -5.012  26.400  0.00  0.00    +0.194 C 
ATOM     14  O   UNL     1       8.829  -4.893  27.158  0.00  0.00    -0.287 OA
ATOM     15  O   UNL     1       5.288  -5.820  23.572  0.00  0.00    -0.287 OA
ATOM     16  C   UNL     1       7.900  -4.420  24.983  0.00  0.00    +0.052 C 
ATOM     17  C   UNL     1       8.819  -3.234  24.783  0.00  0.00    +0.240 C 
ATOM     18  O   UNL     1       9.816  -3.372  23.776  0.00  0.00    -0.454 OA
ATOM     19  C   UNL     1      10.018  -2.102  23.264  0.00  0.00    +0.310 C 
ATOM     20  O   UNL     1      10.848  -1.828  22.412  0.00  0.00    -0.251 OA
ATOM     21  C   UNL     1       9.056  -1.119  23.891  0.00  0.00    +0.156 C 
ENDROOT
BRANCH   8  22
ATOM     22  O   UNL     1       4.023  -7.729  25.414  0.00  0.00    -0.506 OA
ATOM     23  H   UNL     1       3.073  -7.515  25.363  0.00  0.00    +0.292 HD
ENDBRANCH   8  22
TORSDOF 1
ENDMDL
MODEL 8
REMARK VINA RESULT:      -7.1      2.707      4.509
REMARK  Name = 
REMARK  2 active torsions:
REMARK  status: ('A' for Active; 'I' for Inactive)
REMARK    1  A    between atoms: C_18  and  O_19
REMARK    2  A    between atoms: C_22  and  C_24
REMARK                            x       y       z     vdW  Elec       q    Type
REMARK                         _______ _______ _______ _____ _____    ______ ____
ROOT
ATOM      1  C   UNL     1       7.293  -5.287  22.769  0.00  0.00    +0.175 C 
ATOM      2  O   UNL     1       7.629  -5.386  24.138  0.00  0.00    -0.364 OA
ATOM      3  C   UNL     1       8.410  -4.215  24.540  0.00  0.00    +0.150 C 
ATOM      4  C   UNL     1       9.721  -4.679  25.140  0.00  0.00    +0.043 C 
ATOM      5  C   UNL     1       8.454  -3.128  23.439  0.00  0.00    +0.039 C 
ATOM      6  C   UNL     1       9.296  -1.910  23.544  0.00  0.00    +0.196 C 
ATOM      7  C   UNL     1       8.734  -0.886  24.450  0.00  0.00    +0.074 A 
ATOM      8  C   UNL     1       9.597  -0.136  25.241  0.00  0.00    +0.128 A 
ATOM      9  C   UNL     1       9.362  -0.084  26.606  0.00  0.00    +0.046 A 
ATOM     10  C   UNL     1       8.211  -0.689  27.124  0.00  0.00    +0.004 A 
ATOM     11  C   UNL     1       7.211  -1.169  26.260  0.00  0.00    +0.012 A 
ATOM     12  C   UNL     1       7.459  -1.205  24.885  0.00  0.00    +0.036 A 
ATOM     13  C   UNL     1       6.553  -1.912  23.920  0.00  0.00    +0.194 C 
ATOM     14  O   UNL     1       5.352  -1.842  24.029  0.00  0.00    -0.287 OA
ATOM     15  O   UNL     1      10.360  -1.827  22.945  0.00  0.00    -0.287 OA
ATOM     16  C   UNL     1       7.241  -2.851  22.918  0.00  0.00    +0.052 C 
ATOM     17  C   UNL     1       6.430  -4.060  22.507  0.00  0.00    +0.240 C 
ATOM     18  O   UNL     1       6.171  -4.202  21.115  0.00  0.00    -0.454 OA
ATOM     19  C   UNL     1       6.112  -5.564  20.875  0.00  0.00    +0.310 C 
ATOM     20  O   UNL     1       5.851  -6.061  19.791  0.00  0.00    -0.251 OA
ATOM     21  C   UNL     1       6.436  -6.337  22.133  0.00  0.00    +0.156 C 
ENDROOT
BRANCH   8  22
ATOM     22  O   UNL     1      10.661   0.511  24.700  0.00  0.00    -0.506 OA
ATOM     23  H   UNL     1      10.324   1.245  24.154  0.00  0.00    +0.292 HD
ENDBRANCH   8  22
TORSDOF 1
ENDMDL
MODEL 9
REMARK VINA RESULT:      -7.1      1.453      1.504
REMARK  Name = 
REMARK  2 active torsions:
REMARK  status: ('A' for Active; 'I' for Inactive)
REMARK    1  A    between atoms: C_18  and  O_19
REMARK    2  A    between atoms: C_22  and  C_24
REMARK                            x       y       z     vdW  Elec       q    Type
REMARK                         _______ _______ _______ _____ _____    ______ ____
ROOT
ATOM      1  C   UNL     1       5.826  -4.818  24.734  0.00  0.00    +0.175 C 
ATOM      2  O   UNL     1       5.984  -4.230  23.459  0.00  0.00    -0.364 OA
ATOM      3  C   UNL     1       6.691  -2.954  23.588  0.00  0.00    +0.150 C 
ATOM      4  C   UNL     1       5.850  -1.860  22.963  0.00  0.00    +0.043 C 
ATOM      5  C   UNL     1       7.242  -2.726  25.016  0.00  0.00    +0.039 C 
ATOM      6  C   UNL     1       7.869  -1.450  25.443  0.00  0.00    +0.196 C 
ATOM      7  C   UNL     1       9.251  -1.282  24.946  0.00  0.00    +0.074 A 
ATOM      8  C   UNL     1       9.684  -0.018  24.564  0.00  0.00    +0.128 A 
ATOM      9  C   UNL     1      10.242   0.136  23.304  0.00  0.00    +0.046 A 
ATOM     10  C   UNL     1      10.453  -0.997  22.510  0.00  0.00    +0.004 A 
ATOM     11  C   UNL     1      10.287  -2.284  23.048  0.00  0.00    +0.012 A 
ATOM     12  C   UNL     1       9.733  -2.422  24.324  0.00  0.00    +0.036 A 
ATOM     13  C   UNL     1       9.305  -3.749  24.879  0.00  0.00    +0.194 C 
ATOM     14  O   UNL     1       9.976  -4.740  24.711  0.00  0.00    -0.287 OA
ATOM     15  O   UNL     1       7.246  -0.635  26.110  0.00  0.00    -0.287 OA
ATOM     16  C   UNL     1       7.904  -3.794  25.506  0.00  0.00    +0.052 C 
ATOM     17  C   UNL     1       7.179  -5.115  25.368  0.00  0.00    +0.240 C 
ATOM     18  O   UNL     1       6.778  -5.743  26.581  0.00  0.00    -0.454 OA
ATOM     19  C   UNL     1       5.613  -6.431  26.286  0.00  0.00    +0.310 C 
ATOM     20  O   UNL     1       5.011  -7.136  27.081  0.00  0.00    -0.251 OA
ATOM     21  C   UNL     1       5.189  -6.167  24.860  0.00  0.00    +0.156 C 
ENDROOT
BRANCH   8  22
ATOM     22  O   UNL     1       9.543   1.051  25.390  0.00  0.00    -0.506 OA
ATOM     23  H   UNL     1      10.373   1.158  25.891  0.00  0.00    +0.292 HD
ENDBRANCH   8  22
TORSDOF 1
ENDMDL
