MODEL 1
REMARK VINA RESULT:      -8.6      0.000      0.000
REMARK  Name = 
REMARK  2 active torsions:
REMARK  status: ('A' for Active; 'I' for Inactive)
REMARK    1  A    between atoms: C_2  and  C_22
REMARK    2  A    between atoms: N_6  and  C_9
REMARK                            x       y       z     vdW  Elec       q    Type
REMARK                         _______ _______ _______ _____ _____    ______ ____
ROOT
ATOM      1  O   UNL     1       8.441  -4.242  26.908  0.00  0.00    -0.270 OA
ATOM      2  C   UNL     1       7.765  -3.592  26.112  0.00  0.00    +0.247 C 
ATOM      3  N   UNL     1       7.648  -2.192  26.188  0.00  0.00    -0.295 N 
ATOM      4  C   UNL     1       8.649  -1.519  27.017  0.00  0.00    +0.123 C 
ATOM      5  C   UNL     1       8.413  -0.017  27.260  0.00  0.00    +0.104 C 
ATOM      6  N   UNL     1       7.893   0.765  26.133  0.00  0.00    -0.289 NA
ATOM      7  C   UNL     1       6.711   0.085  25.587  0.00  0.00    +0.104 C 
ATOM      8  C   UNL     1       6.948  -1.374  25.193  0.00  0.00    +0.123 C 
ENDROOT
BRANCH   6   9
ATOM      9  C   UNL     1       8.884   1.298  25.174  0.00  0.00    +0.118 C 
ATOM     10  C   UNL     1       9.286   0.442  23.970  0.00  0.00    -0.018 A 
ATOM     11  C   UNL     1       8.813   1.028  22.773  0.00  0.00    -0.013 A 
ATOM     12  C   UNL     1       8.942   0.370  21.558  0.00  0.00    +0.009 A 
ATOM     13  C   UNL     1       9.597  -0.864  21.532  0.00  0.00    +0.001 A 
ATOM     14  C   UNL     1      10.182  -1.380  22.696  0.00  0.00    +0.000 A 
ATOM     15  C   UNL     1       8.276   2.336  23.073  0.00  0.00    -0.013 A 
ATOM     16  C   UNL     1       7.826   3.337  22.229  0.00  0.00    +0.009 A 
ATOM     17  C   UNL     1       7.403   4.543  22.789  0.00  0.00    +0.001 A 
ATOM     18  C   UNL     1       7.432   4.737  24.185  0.00  0.00    +0.000 A 
ATOM     19  C   UNL     1       7.898   3.735  25.036  0.00  0.00    +0.006 A 
ATOM     20  C   UNL     1      10.063  -0.703  23.910  0.00  0.00    +0.006 A 
ATOM     21  C   UNL     1       8.329   2.541  24.469  0.00  0.00    -0.018 A 
ENDBRANCH   6   9
BRANCH   2  22
ATOM     22  C   UNL     1       7.045  -4.356  25.053  0.00  0.00    +0.038 A 
ATOM     23  C   UNL     1       5.835  -5.010  25.305  0.00  0.00    +0.015 A 
ATOM     24  C   UNL     1       5.216  -5.805  24.340  0.00  0.00    +0.027 A 
ATOM     25  C   UNL     1       5.774  -5.801  23.063  0.00  0.00    +0.046 A 
ATOM     26  N   UNL     1       5.350  -6.434  21.917  0.00  0.00    -0.361 N 
ATOM     27  H   UNL     1       4.548  -7.046  21.868  0.00  0.00    +0.165 HD
ATOM     28  C   UNL     1       6.135  -6.064  20.860  0.00  0.00    +0.083 A 
ATOM     29  C   UNL     1       7.119  -5.227  21.337  0.00  0.00    +0.027 A 
ATOM     30  C   UNL     1       6.912  -5.063  22.735  0.00  0.00    +0.000 A 
ATOM     31  C   UNL     1       7.574  -4.343  23.751  0.00  0.00    +0.023 A 
ENDBRANCH   2  22
TORSDOF 2
ENDMDL
MODEL 2
REMARK VINA RESULT:      -8.4      1.928      3.486
REMARK  Name = 
REMARK  2 active torsions:
REMARK  status: ('A' for Active; 'I' for Inactive)
REMARK    1  A    between atoms: C_2  and  C_22
REMARK    2  A    between atoms: N_6  and  C_9
REMARK                            x       y       z     vdW  Elec       q    Type
REMARK                         _______ _______ _______ _____ _____    ______ ____
ROOT
ATOM      1  O   UNL     1      10.182  -3.316  23.750  0.00  0.00    -0.270 OA
ATOM      2  C   UNL     1       9.074  -2.794  23.861  0.00  0.00    +0.247 C 
ATOM      3  N   UNL     1       8.905  -1.464  24.288  0.00  0.00    -0.295 N 
ATOM      4  C   UNL     1      10.105  -0.628  24.237  0.00  0.00    +0.123 C 
ATOM      5  C   UNL     1       9.975   0.765  24.880  0.00  0.00    +0.104 C 
ATOM      6  N   UNL     1       8.703   1.469  24.689  0.00  0.00    -0.289 NA
ATOM      7  C   UNL     1       7.601   0.569  25.055  0.00  0.00    +0.104 C 
ATOM      8  C   UNL     1       7.613  -0.773  24.322  0.00  0.00    +0.123 C 
ENDROOT
BRANCH   6   9
ATOM      9  C   UNL     1       8.557   2.266  23.453  0.00  0.00    +0.118 C 
ATOM     10  C   UNL     1       7.205   2.914  23.142  0.00  0.00    -0.018 A 
ATOM     11  C   UNL     1       7.302   4.322  23.236  0.00  0.00    -0.013 A 
ATOM     12  C   UNL     1       6.176   5.124  23.124  0.00  0.00    +0.009 A 
ATOM     13  C   UNL     1       4.946   4.515  22.864  0.00  0.00    +0.001 A 
ATOM     14  C   UNL     1       4.871   3.134  22.639  0.00  0.00    +0.000 A 
ATOM     15  C   UNL     1       8.693   4.683  23.404  0.00  0.00    -0.013 A 
ATOM     16  C   UNL     1       9.302   5.926  23.407  0.00  0.00    +0.009 A 
ATOM     17  C   UNL     1      10.690   5.988  23.537  0.00  0.00    +0.001 A 
ATOM     18  C   UNL     1      11.454   4.810  23.664  0.00  0.00    +0.000 A 
ATOM     19  C   UNL     1      10.843   3.557  23.648  0.00  0.00    +0.006 A 
ATOM     20  C   UNL     1       6.013   2.337  22.736  0.00  0.00    +0.006 A 
ATOM     21  C   UNL     1       9.461   3.504  23.505  0.00  0.00    -0.018 A 
ENDBRANCH   6   9
BRANCH   2  22
ATOM     22  C   UNL     1       7.890  -3.642  23.539  0.00  0.00    +0.038 A 
ATOM     23  C   UNL     1       7.381  -3.741  22.241  0.00  0.00    +0.015 A 
ATOM     24  C   UNL     1       6.215  -4.455  21.961  0.00  0.00    +0.027 A 
ATOM     25  C   UNL     1       5.661  -5.194  23.005  0.00  0.00    +0.046 A 
ATOM     26  N   UNL     1       4.564  -6.024  23.007  0.00  0.00    -0.361 N 
ATOM     27  H   UNL     1       3.970  -6.185  22.206  0.00  0.00    +0.165 HD
ATOM     28  C   UNL     1       4.442  -6.636  24.224  0.00  0.00    +0.083 A 
ATOM     29  C   UNL     1       5.436  -6.149  25.043  0.00  0.00    +0.027 A 
ATOM     30  C   UNL     1       6.208  -5.223  24.288  0.00  0.00    +0.000 A 
ATOM     31  C   UNL     1       7.330  -4.417  24.569  0.00  0.00    +0.023 A 
ENDBRANCH   2  22
TORSDOF 2
ENDMDL
MODEL 3
REMARK VINA RESULT:      -8.1      3.220      7.956
REMARK  Name = 
REMARK  2 active torsions:
REMARK  status: ('A' for Active; 'I' for Inactive)
REMARK    1  A    between atoms: C_2  and  C_22
REMARK    2  A    between atoms: N_6  and  C_9
REMARK                            x       y       z     vdW  Elec       q    Type
REMARK                         _______ _______ _______ _____ _____    ______ ____
ROOT
ATOM      1  O   UNL     1       6.278   5.147  24.142  0.00  0.00    -0.270 OA
ATOM      2  C   UNL     1       7.186   4.419  24.540  0.00  0.00    +0.247 C 
ATOM      3  N   UNL     1       6.956   3.115  25.016  0.00  0.00    -0.295 N 
ATOM      4  C   UNL     1       5.655   2.538  24.672  0.00  0.00    +0.123 C 
ATOM      5  C   UNL     1       5.322   1.196  25.348  0.00  0.00    +0.104 C 
ATOM      6  N   UNL     1       6.421   0.237  25.500  0.00  0.00    -0.289 NA
ATOM      7  C   UNL     1       7.564   0.917  26.122  0.00  0.00    +0.104 C 
ATOM      8  C   UNL     1       8.021   2.181  25.390  0.00  0.00    +0.123 C 
ENDROOT
BRANCH   6   9
ATOM      9  C   UNL     1       6.693  -0.657  24.354  0.00  0.00    +0.118 C 
ATOM     10  C   UNL     1       7.668  -0.194  23.268  0.00  0.00    -0.018 A 
ATOM     11  C   UNL     1       8.842  -0.981  23.295  0.00  0.00    -0.013 A 
ATOM     12  C   UNL     1       9.928  -0.670  22.489  0.00  0.00    +0.009 A 
ATOM     13  C   UNL     1       9.818   0.409  21.607  0.00  0.00    +0.001 A 
ATOM     14  C   UNL     1       8.608   1.105  21.485  0.00  0.00    +0.000 A 
ATOM     15  C   UNL     1       8.646  -2.081  24.213  0.00  0.00    -0.013 A 
ATOM     16  C   UNL     1       9.443  -3.181  24.477  0.00  0.00    +0.009 A 
ATOM     17  C   UNL     1       8.984  -4.135  25.386  0.00  0.00    +0.001 A 
ATOM     18  C   UNL     1       7.734  -3.981  26.022  0.00  0.00    +0.000 A 
ATOM     19  C   UNL     1       6.924  -2.879  25.746  0.00  0.00    +0.006 A 
ATOM     20  C   UNL     1       7.515   0.774  22.288  0.00  0.00    +0.006 A 
ATOM     21  C   UNL     1       7.385  -1.940  24.831  0.00  0.00    -0.018 A 
ENDBRANCH   6   9
BRANCH   2  22
ATOM     22  C   UNL     1       8.566   4.985  24.519  0.00  0.00    +0.038 A 
ATOM     23  C   UNL     1       8.938   6.060  25.332  0.00  0.00    +0.015 A 
ATOM     24  C   UNL     1      10.199   6.650  25.237  0.00  0.00    +0.027 A 
ATOM     25  C   UNL     1      11.127   6.028  24.404  0.00  0.00    +0.046 A 
ATOM     26  N   UNL     1      12.443   6.348  24.163  0.00  0.00    -0.361 N 
ATOM     27  H   UNL     1      12.918   7.145  24.563  0.00  0.00    +0.165 HD
ATOM     28  C   UNL     1      13.016   5.401  23.360  0.00  0.00    +0.083 A 
ATOM     29  C   UNL     1      12.043   4.486  23.024  0.00  0.00    +0.027 A 
ATOM     30  C   UNL     1      10.836   4.880  23.667  0.00  0.00    +0.000 A 
ATOM     31  C   UNL     1       9.527   4.358  23.707  0.00  0.00    +0.023 A 
ENDBRANCH   2  22
TORSDOF 2
ENDMDL
MODEL 4
REMARK VINA RESULT:      -8.0      2.492      7.424
REMARK  Name = 
REMARK  2 active torsions:
REMARK  status: ('A' for Active; 'I' for Inactive)
REMARK    1  A    between atoms: C_2  and  C_22
REMARK    2  A    between atoms: N_6  and  C_9
REMARK                            x       y       z     vdW  Elec       q    Type
REMARK                         _______ _______ _______ _____ _____    ______ ____
ROOT
ATOM      1  O   UNL     1      10.436  -2.625  23.131  0.00  0.00    -0.270 OA
ATOM      2  C   UNL     1       9.325  -2.113  23.002  0.00  0.00    +0.247 C 
ATOM      3  N   UNL     1       8.144  -2.876  22.953  0.00  0.00    -0.295 N 
ATOM      4  C   UNL     1       8.263  -4.255  23.428  0.00  0.00    +0.123 C 
ATOM      5  C   UNL     1       7.030  -5.148  23.199  0.00  0.00    +0.104 C 
ATOM      6  N   UNL     1       5.714  -4.526  23.381  0.00  0.00    -0.289 NA
ATOM      7  C   UNL     1       5.666  -3.280  22.605  0.00  0.00    +0.104 C 
ATOM      8  C   UNL     1       6.797  -2.298  22.916  0.00  0.00    +0.123 C 
ENDROOT
BRANCH   6   9
ATOM      9  C   UNL     1       5.170  -4.501  24.755  0.00  0.00    +0.118 C 
ATOM     10  C   UNL     1       5.421  -3.272  25.631  0.00  0.00    -0.018 A 
ATOM     11  C   UNL     1       4.212  -2.577  25.861  0.00  0.00    -0.013 A 
ATOM     12  C   UNL     1       4.204  -1.357  26.522  0.00  0.00    +0.009 A 
ATOM     13  C   UNL     1       5.414  -0.851  27.004  0.00  0.00    +0.001 A 
ATOM     14  C   UNL     1       6.591  -1.602  26.894  0.00  0.00    +0.000 A 
ATOM     15  C   UNL     1       3.115  -3.369  25.351  0.00  0.00    -0.013 A 
ATOM     16  C   UNL     1       1.747  -3.182  25.459  0.00  0.00    +0.009 A 
ATOM     17  C   UNL     1       0.897  -4.143  24.910  0.00  0.00    +0.001 A 
ATOM     18  C   UNL     1       1.420  -5.279  24.259  0.00  0.00    +0.000 A 
ATOM     19  C   UNL     1       2.797  -5.476  24.162  0.00  0.00    +0.006 A 
ATOM     20  C   UNL     1       6.586  -2.837  26.243  0.00  0.00    +0.006 A 
ATOM     21  C   UNL     1       3.637  -4.519  24.722  0.00  0.00    -0.018 A 
ENDBRANCH   6   9
BRANCH   2  22
ATOM     22  C   UNL     1       9.273  -0.628  22.879  0.00  0.00    +0.038 A 
ATOM     23  C   UNL     1       9.358   0.016  21.641  0.00  0.00    +0.015 A 
ATOM     24  C   UNL     1       9.410   1.407  21.538  0.00  0.00    +0.027 A 
ATOM     25  C   UNL     1       9.221   2.135  22.711  0.00  0.00    +0.046 A 
ATOM     26  N   UNL     1       9.165   3.496  22.900  0.00  0.00    -0.361 N 
ATOM     27  H   UNL     1       9.294   4.179  22.166  0.00  0.00    +0.165 HD
ATOM     28  C   UNL     1       8.849   3.776  24.201  0.00  0.00    +0.083 A 
ATOM     29  C   UNL     1       8.761   2.582  24.881  0.00  0.00    +0.027 A 
ATOM     30  C   UNL     1       9.009   1.533  23.952  0.00  0.00    +0.000 A 
ATOM     31  C   UNL     1       9.056   0.127  24.045  0.00  0.00    +0.023 A 
ENDBRANCH   2  22
TORSDOF 2
ENDMDL
MODEL 5
REMARK VINA RESULT:      -8.0      2.498      7.374
REMARK  Name = 
REMARK  2 active torsions:
REMARK  status: ('A' for Active; 'I' for Inactive)
REMARK    1  A    between atoms: C_2  and  C_22
REMARK    2  A    between atoms: N_6  and  C_9
REMARK                            x       y       z     vdW  Elec       q    Type
REMARK                         _______ _______ _______ _____ _____    ______ ____
ROOT
ATOM      1  O   UNL     1       9.837   1.882  24.549  0.00  0.00    -0.270 OA
ATOM      2  C   UNL     1       8.969   1.347  23.861  0.00  0.00    +0.247 C 
ATOM      3  N   UNL     1       9.032  -0.008  23.487  0.00  0.00    -0.295 N 
ATOM      4  C   UNL     1       9.969  -0.832  24.252  0.00  0.00    +0.123 C 
ATOM      5  C   UNL     1      10.184  -2.263  23.726  0.00  0.00    +0.104 C 
ATOM      6  N   UNL     1       9.006  -2.962  23.202  0.00  0.00    -0.289 NA
ATOM      7  C   UNL     1       8.330  -2.094  22.230  0.00  0.00    +0.104 C 
ATOM      8  C   UNL     1       7.965  -0.709  22.767  0.00  0.00    +0.123 C 
ENDROOT
BRANCH   6   9
ATOM      9  C   UNL     1       8.165  -3.682  24.181  0.00  0.00    +0.118 C 
ATOM     10  C   UNL     1       7.240  -2.878  25.099  0.00  0.00    -0.018 A 
ATOM     11  C   UNL     1       5.887  -3.124  24.770  0.00  0.00    -0.013 A 
ATOM     12  C   UNL     1       4.864  -2.410  25.377  0.00  0.00    +0.009 A 
ATOM     13  C   UNL     1       5.194  -1.478  26.363  0.00  0.00    +0.001 A 
ATOM     14  C   UNL     1       6.522  -1.330  26.784  0.00  0.00    +0.000 A 
ATOM     15  C   UNL     1       5.830  -4.199  23.804  0.00  0.00    -0.013 A 
ATOM     16  C   UNL     1       4.743  -4.881  23.285  0.00  0.00    +0.009 A 
ATOM     17  C   UNL     1       4.976  -5.929  22.394  0.00  0.00    +0.001 A 
ATOM     18  C   UNL     1       6.291  -6.285  22.030  0.00  0.00    +0.000 A 
ATOM     19  C   UNL     1       7.388  -5.607  22.562  0.00  0.00    +0.006 A 
ATOM     20  C   UNL     1       7.544  -2.065  26.179  0.00  0.00    +0.006 A 
ATOM     21  C   UNL     1       7.146  -4.572  23.458  0.00  0.00    -0.018 A 
ENDBRANCH   6   9
BRANCH   2  22
ATOM     22  C   UNL     1       7.836   2.205  23.411  0.00  0.00    +0.038 A 
ATOM     23  C   UNL     1       7.951   3.073  22.321  0.00  0.00    +0.015 A 
ATOM     24  C   UNL     1       6.922   3.946  21.966  0.00  0.00    +0.027 A 
ATOM     25  C   UNL     1       5.715   3.812  22.648  0.00  0.00    +0.046 A 
ATOM     26  N   UNL     1       4.528   4.486  22.474  0.00  0.00    -0.361 N 
ATOM     27  H   UNL     1       4.390   5.232  21.807  0.00  0.00    +0.165 HD
ATOM     28  C   UNL     1       3.565   3.956  23.287  0.00  0.00    +0.083 A 
ATOM     29  C   UNL     1       4.149   2.965  24.045  0.00  0.00    +0.027 A 
ATOM     30  C   UNL     1       5.516   2.873  23.661  0.00  0.00    +0.000 A 
ATOM     31  C   UNL     1       6.600   2.068  24.066  0.00  0.00    +0.023 A 
ENDBRANCH   2  22
TORSDOF 2
ENDMDL
MODEL 6
REMARK VINA RESULT:      -8.0      2.628      4.383
REMARK  Name = 
REMARK  2 active torsions:
REMARK  status: ('A' for Active; 'I' for Inactive)
REMARK    1  A    between atoms: C_2  and  C_22
REMARK    2  A    between atoms: N_6  and  C_9
REMARK                            x       y       z     vdW  Elec       q    Type
REMARK                         _______ _______ _______ _____ _____    ______ ____
ROOT
ATOM      1  O   UNL     1       8.868  -2.613  21.831  0.00  0.00    -0.270 OA
ATOM      2  C   UNL     1       9.028  -2.168  22.966  0.00  0.00    +0.247 C 
ATOM      3  N   UNL     1       9.434  -0.842  23.206  0.00  0.00    -0.295 N 
ATOM      4  C   UNL     1       9.298   0.075  22.073  0.00  0.00    +0.123 C 
ATOM      5  C   UNL     1       9.915   1.472  22.268  0.00  0.00    +0.104 C 
ATOM      6  N   UNL     1       9.780   2.080  23.595  0.00  0.00    -0.289 NA
ATOM      7  C   UNL     1      10.227   1.115  24.608  0.00  0.00    +0.104 C 
ATOM      8  C   UNL     1       9.525  -0.242  24.541  0.00  0.00    +0.123 C 
ENDROOT
BRANCH   6   9
ATOM      9  C   UNL     1       8.537   2.832  23.864  0.00  0.00    +0.118 C 
ATOM     10  C   UNL     1       7.637   2.390  25.022  0.00  0.00    -0.018 A 
ATOM     11  C   UNL     1       7.649   3.361  26.050  0.00  0.00    -0.013 A 
ATOM     12  C   UNL     1       7.011   3.126  27.260  0.00  0.00    +0.009 A 
ATOM     13  C   UNL     1       6.310   1.929  27.424  0.00  0.00    +0.001 A 
ATOM     14  C   UNL     1       6.187   1.027  26.359  0.00  0.00    +0.000 A 
ATOM     15  C   UNL     1       8.354   4.532  25.578  0.00  0.00    -0.013 A 
ATOM     16  C   UNL     1       8.512   5.778  26.159  0.00  0.00    +0.009 A 
ATOM     17  C   UNL     1       9.205   6.762  25.452  0.00  0.00    +0.001 A 
ATOM     18  C   UNL     1       9.735   6.490  24.174  0.00  0.00    +0.000 A 
ATOM     19  C   UNL     1       9.565   5.239  23.582  0.00  0.00    +0.006 A 
ATOM     20  C   UNL     1       6.818   1.280  25.140  0.00  0.00    +0.006 A 
ATOM     21  C   UNL     1       8.862   4.269  24.288  0.00  0.00    -0.018 A 
ENDBRANCH   6   9
BRANCH   2  22
ATOM     22  C   UNL     1       8.792  -3.104  24.102  0.00  0.00    +0.038 A 
ATOM     23  C   UNL     1       9.805  -3.923  24.610  0.00  0.00    +0.015 A 
ATOM     24  C   UNL     1       9.555  -4.869  25.605  0.00  0.00    +0.027 A 
ATOM     25  C   UNL     1       8.286  -4.861  26.180  0.00  0.00    +0.046 A 
ATOM     26  N   UNL     1       7.781  -5.629  27.205  0.00  0.00    -0.361 N 
ATOM     27  H   UNL     1       8.295  -6.361  27.674  0.00  0.00    +0.165 HD
ATOM     28  C   UNL     1       6.520  -5.211  27.526  0.00  0.00    +0.083 A 
ATOM     29  C   UNL     1       6.176  -4.199  26.657  0.00  0.00    +0.027 A 
ATOM     30  C   UNL     1       7.280  -3.977  25.788  0.00  0.00    +0.000 A 
ATOM     31  C   UNL     1       7.528  -3.095  24.716  0.00  0.00    +0.023 A 
ENDBRANCH   2  22
TORSDOF 2
ENDMDL
MODEL 7
REMARK VINA RESULT:      -8.0      2.395      7.595
REMARK  Name = 
REMARK  2 active torsions:
REMARK  status: ('A' for Active; 'I' for Inactive)
REMARK    1  A    between atoms: C_2  and  C_22
REMARK    2  A    between atoms: N_6  and  C_9
REMARK                            x       y       z     vdW  Elec       q    Type
REMARK                         _______ _______ _______ _____ _____    ______ ____
ROOT
ATOM      1  O   UNL     1      10.151  -3.744  24.112  0.00  0.00    -0.270 OA
ATOM      2  C   UNL     1       9.093  -3.134  23.967  0.00  0.00    +0.247 C 
ATOM      3  N   UNL     1       7.923  -3.754  23.491  0.00  0.00    -0.295 N 
ATOM      4  C   UNL     1       7.923  -5.217  23.529  0.00  0.00    +0.123 C 
ATOM      5  C   UNL     1       6.732  -5.903  22.835  0.00  0.00    +0.104 C 
ATOM      6  N   UNL     1       5.420  -5.265  22.983  0.00  0.00    -0.289 NA
ATOM      7  C   UNL     1       5.540  -3.843  22.634  0.00  0.00    +0.104 C 
ATOM      8  C   UNL     1       6.619  -3.090  23.414  0.00  0.00    +0.123 C 
ENDROOT
BRANCH   6   9
ATOM      9  C   UNL     1       4.638  -5.612  24.188  0.00  0.00    +0.118 C 
ATOM     10  C   UNL     1       4.884  -4.834  25.484  0.00  0.00    -0.018 A 
ATOM     11  C   UNL     1       3.757  -4.044  25.803  0.00  0.00    -0.013 A 
ATOM     12  C   UNL     1       3.790  -3.150  26.864  0.00  0.00    +0.009 A 
ATOM     13  C   UNL     1       4.945  -3.084  27.646  0.00  0.00    +0.001 A 
ATOM     14  C   UNL     1       6.012  -3.962  27.411  0.00  0.00    +0.000 A 
ATOM     15  C   UNL     1       2.678  -4.384  24.902  0.00  0.00    -0.013 A 
ATOM     16  C   UNL     1       1.352  -3.987  24.901  0.00  0.00    +0.009 A 
ATOM     17  C   UNL     1       0.497  -4.517  23.934  0.00  0.00    +0.001 A 
ATOM     18  C   UNL     1       0.975  -5.435  22.977  0.00  0.00    +0.000 A 
ATOM     19  C   UNL     1       2.308  -5.847  22.985  0.00  0.00    +0.006 A 
ATOM     20  C   UNL     1       5.963  -4.870  26.352  0.00  0.00    +0.006 A 
ATOM     21  C   UNL     1       3.149  -5.323  23.961  0.00  0.00    -0.018 A 
ENDBRANCH   6   9
BRANCH   2  22
ATOM     22  C   UNL     1       9.098  -1.681  24.303  0.00  0.00    +0.038 A 
ATOM     23  C   UNL     1       8.678  -1.207  25.549  0.00  0.00    +0.015 A 
ATOM     24  C   UNL     1       8.590   0.158  25.824  0.00  0.00    +0.027 A 
ATOM     25  C   UNL     1       9.081   1.031  24.856  0.00  0.00    +0.046 A 
ATOM     26  N   UNL     1       9.175   2.404  24.878  0.00  0.00    -0.361 N 
ATOM     27  H   UNL     1       8.848   2.985  25.637  0.00  0.00    +0.165 HD
ATOM     28  C   UNL     1       9.825   2.847  23.760  0.00  0.00    +0.083 A 
ATOM     29  C   UNL     1      10.103   1.752  22.971  0.00  0.00    +0.027 A 
ATOM     30  C   UNL     1       9.623   0.596  23.647  0.00  0.00    +0.000 A 
ATOM     31  C   UNL     1       9.614  -0.783  23.352  0.00  0.00    +0.023 A 
ENDBRANCH   2  22
TORSDOF 2
ENDMDL
MODEL 8
REMARK VINA RESULT:      -7.9      2.244      7.703
REMARK  Name = 
REMARK  2 active torsions:
REMARK  status: ('A' for Active; 'I' for Inactive)
REMARK    1  A    between atoms: C_2  and  C_22
REMARK    2  A    between atoms: N_6  and  C_9
REMARK                            x       y       z     vdW  Elec       q    Type
REMARK                         _______ _______ _______ _____ _____    ______ ____
ROOT
ATOM      1  O   UNL     1      10.995   2.067  24.110  0.00  0.00    -0.270 OA
ATOM      2  C   UNL     1       9.850   1.740  23.802  0.00  0.00    +0.247 C 
ATOM      3  N   UNL     1       9.542   0.468  23.285  0.00  0.00    -0.295 N 
ATOM      4  C   UNL     1      10.568  -0.557  23.477  0.00  0.00    +0.123 C 
ATOM      5  C   UNL     1      10.322  -1.892  22.750  0.00  0.00    +0.104 C 
ATOM      6  N   UNL     1       8.939  -2.379  22.704  0.00  0.00    -0.289 NA
ATOM      7  C   UNL     1       8.070  -1.299  22.220  0.00  0.00    +0.104 C 
ATOM      8  C   UNL     1       8.178   0.003  23.015  0.00  0.00    +0.123 C 
ENDROOT
BRANCH   6   9
ATOM      9  C   UNL     1       8.470  -3.173  23.859  0.00  0.00    +0.118 C 
ATOM     10  C   UNL     1       7.726  -2.464  24.994  0.00  0.00    -0.018 A 
ATOM     11  C   UNL     1       6.372  -2.871  25.023  0.00  0.00    -0.013 A 
ATOM     12  C   UNL     1       5.464  -2.270  25.883  0.00  0.00    +0.009 A 
ATOM     13  C   UNL     1       5.926  -1.286  26.760  0.00  0.00    +0.001 A 
ATOM     14  C   UNL     1       7.291  -0.977  26.824  0.00  0.00    +0.000 A 
ATOM     15  C   UNL     1       6.194  -3.965  24.093  0.00  0.00    -0.013 A 
ATOM     16  C   UNL     1       5.098  -4.779  23.866  0.00  0.00    +0.009 A 
ATOM     17  C   UNL     1       5.215  -5.811  22.933  0.00  0.00    +0.001 A 
ATOM     18  C   UNL     1       6.424  -6.017  22.237  0.00  0.00    +0.000 A 
ATOM     19  C   UNL     1       7.533  -5.206  22.475  0.00  0.00    +0.006 A 
ATOM     20  C   UNL     1       8.200  -1.600  25.967  0.00  0.00    +0.006 A 
ATOM     21  C   UNL     1       7.411  -4.189  23.414  0.00  0.00    -0.018 A 
ENDBRANCH   6   9
BRANCH   2  22
ATOM     22  C   UNL     1       8.782   2.765  23.981  0.00  0.00    +0.038 A 
ATOM     23  C   UNL     1       8.106   2.925  25.195  0.00  0.00    +0.015 A 
ATOM     24  C   UNL     1       7.040   3.816  25.329  0.00  0.00    +0.027 A 
ATOM     25  C   UNL     1       6.772   4.650  24.246  0.00  0.00    +0.046 A 
ATOM     26  N   UNL     1       5.834   5.648  24.117  0.00  0.00    -0.361 N 
ATOM     27  H   UNL     1       5.160   5.891  24.829  0.00  0.00    +0.165 HD
ATOM     28  C   UNL     1       5.994   6.290  22.920  0.00  0.00    +0.083 A 
ATOM     29  C   UNL     1       7.010   5.660  22.235  0.00  0.00    +0.027 A 
ATOM     30  C   UNL     1       7.503   4.609  23.058  0.00  0.00    +0.000 A 
ATOM     31  C   UNL     1       8.512   3.635  22.912  0.00  0.00    +0.023 A 
ENDBRANCH   2  22
TORSDOF 2
ENDMDL
MODEL 9
REMARK VINA RESULT:      -7.7      2.201      3.264
REMARK  Name = 
REMARK  2 active torsions:
REMARK  status: ('A' for Active; 'I' for Inactive)
REMARK    1  A    between atoms: C_2  and  C_22
REMARK    2  A    between atoms: N_6  and  C_9
REMARK                            x       y       z     vdW  Elec       q    Type
REMARK                         _______ _______ _______ _____ _____    ______ ____
ROOT
ATOM      1  O   UNL     1       3.890  -3.142  27.914  0.00  0.00    -0.270 OA
ATOM      2  C   UNL     1       4.254  -2.925  26.759  0.00  0.00    +0.247 C 
ATOM      3  N   UNL     1       4.889  -1.728  26.380  0.00  0.00    -0.295 N 
ATOM      4  C   UNL     1       5.425  -0.923  27.479  0.00  0.00    +0.123 C 
ATOM      5  C   UNL     1       5.949   0.472  27.089  0.00  0.00    +0.104 C 
ATOM      6  N   UNL     1       6.665   0.582  25.814  0.00  0.00    -0.289 NA
ATOM      7  C   UNL     1       5.853  -0.037  24.758  0.00  0.00    +0.104 C 
ATOM      8  C   UNL     1       5.438  -1.481  25.044  0.00  0.00    +0.123 C 
ENDROOT
BRANCH   6   9
ATOM      9  C   UNL     1       8.113   0.283  25.832  0.00  0.00    +0.118 C 
ATOM     10  C   UNL     1       8.580  -1.145  25.539  0.00  0.00    -0.018 A 
ATOM     11  C   UNL     1       9.270  -1.192  24.306  0.00  0.00    -0.013 A 
ATOM     12  C   UNL     1       9.678  -2.402  23.762  0.00  0.00    +0.009 A 
ATOM     13  C   UNL     1       9.439  -3.573  24.485  0.00  0.00    +0.001 A 
ATOM     14  C   UNL     1       8.875  -3.514  25.766  0.00  0.00    +0.000 A 
ATOM     15  C   UNL     1       9.470   0.159  23.831  0.00  0.00    -0.013 A 
ATOM     16  C   UNL     1      10.200   0.633  22.755  0.00  0.00    +0.009 A 
ATOM     17  C   UNL     1      10.271   2.011  22.550  0.00  0.00    +0.001 A 
ATOM     18  C   UNL     1       9.610   2.902  23.421  0.00  0.00    +0.000 A 
ATOM     19  C   UNL     1       8.884   2.427  24.513  0.00  0.00    +0.006 A 
ATOM     20  C   UNL     1       8.484  -2.290  26.312  0.00  0.00    +0.006 A 
ATOM     21  C   UNL     1       8.830   1.053  24.716  0.00  0.00    -0.018 A 
ENDBRANCH   6   9
BRANCH   2  22
ATOM     22  C   UNL     1       3.974  -3.987  25.751  0.00  0.00    +0.038 A 
ATOM     23  C   UNL     1       4.885  -5.014  25.486  0.00  0.00    +0.015 A 
ATOM     24  C   UNL     1       4.664  -5.948  24.472  0.00  0.00    +0.027 A 
ATOM     25  C   UNL     1       3.427  -5.906  23.832  0.00  0.00    +0.046 A 
ATOM     26  N   UNL     1       2.918  -6.725  22.851  0.00  0.00    -0.361 N 
ATOM     27  H   UNL     1       3.426  -7.487  22.425  0.00  0.00    +0.165 HD
ATOM     28  C   UNL     1       1.617  -6.392  22.591  0.00  0.00    +0.083 A 
ATOM     29  C   UNL     1       1.296  -5.302  23.370  0.00  0.00    +0.027 A 
ATOM     30  C   UNL     1       2.439  -4.974  24.151  0.00  0.00    +0.000 A 
ATOM     31  C   UNL     1       2.722  -3.981  25.112  0.00  0.00    +0.023 A 
ENDBRANCH   2  22
TORSDOF 2
ENDMDL
