MODEL 1
REMARK VINA RESULT:      -6.7      0.000      0.000
REMARK  Name = 
REMARK  7 active torsions:
REMARK  status: ('A' for Active; 'I' for Inactive)
REMARK    1  A    between atoms: C_1  and  C_2
REMARK    2  A    between atoms: C_5  and  C_21
REMARK    3  A    between atoms: C_7  and  C_8
REMARK    4  A    between atoms: C_11  and  C_14
REMARK    5  A    between atoms: N_16  and  C_17
REMARK    6  A    between atoms: C_17  and  C_18
REMARK    7  A    between atoms: N_23  and  C_24
REMARK                            x       y       z     vdW  Elec       q    Type
REMARK                         _______ _______ _______ _____ _____    ______ ____
ROOT
ATOM      1  C   UNL     1      11.945   4.391  23.396  0.00  0.00    +0.044 C 
ATOM      2  C   UNL     1      10.496   4.783  23.551  0.00  0.00    -0.043 A 
ATOM      3  C   UNL     1       9.415   3.862  23.628  0.00  0.00    -0.014 A 
ATOM      4  C   UNL     1       8.112   4.418  23.756  0.00  0.00    +0.021 A 
ATOM      5  C   UNL     1       7.885   5.802  23.834  0.00  0.00    +0.037 A 
ATOM      6  C   UNL     1       8.966   6.675  23.775  0.00  0.00    +0.013 A 
ATOM      7  C   UNL     1      10.254   6.171  23.646  0.00  0.00    +0.005 A 
ENDROOT
BRANCH   3   8
ATOM      8  C   UNL     1       9.560   2.369  23.614  0.00  0.00    -0.018 A 
ATOM      9  C   UNL     1       9.452   1.594  24.783  0.00  0.00    +0.009 A 
ATOM     10  C   UNL     1       9.528   0.194  24.768  0.00  0.00    +0.013 A 
ATOM     11  C   UNL     1       9.646  -0.492  23.561  0.00  0.00    +0.037 A 
ATOM     12  C   UNL     1       9.773   0.244  22.381  0.00  0.00    +0.013 A 
ATOM     13  C   UNL     1       9.746   1.650  22.413  0.00  0.00    +0.009 A 
BRANCH  11  14
ATOM     14  C   UNL     1       9.620  -1.984  23.502  0.00  0.00    +0.244 C 
ATOM     15  N   UNL     1       8.455  -2.581  23.947  0.00  0.00    -0.311 N 
ATOM     16  H   UNL     1       7.636  -2.007  24.081  0.00  0.00    +0.149 HD
ATOM     17  O   UNL     1      10.565  -2.606  23.034  0.00  0.00    -0.270 OA
BRANCH  15  18
ATOM     18  C   UNL     1       8.241  -4.000  23.788  0.00  0.00    +0.108 C 
BRANCH  18  19
ATOM     19  C   UNL     1       7.394  -4.243  22.577  0.00  0.00    +0.006 C 
ATOM     20  C   UNL     1       6.062  -4.941  22.705  0.00  0.00    +0.005 C 
ATOM     21  C   UNL     1       7.206  -5.638  22.025  0.00  0.00    +0.005 C 
ENDBRANCH  18  19
ENDBRANCH  15  18
ENDBRANCH  11  14
ENDBRANCH   3   8
BRANCH   5  22
ATOM     22  C   UNL     1       6.525   6.403  23.965  0.00  0.00    +0.244 C 
ATOM     23  N   UNL     1       5.750   6.445  22.820  0.00  0.00    -0.308 N 
ATOM     24  H   UNL     1       6.078   5.988  21.980  0.00  0.00    +0.149 HD
ATOM     25  O   UNL     1       6.137   6.793  25.061  0.00  0.00    -0.270 OA
BRANCH  23  26
ATOM     26  C   UNL     1       4.395   6.903  22.849  0.00  0.00    +0.073 C 
ATOM     27  C   UNL     1       3.270   5.972  22.489  0.00  0.00    +0.024 C 
ATOM     28  C   UNL     1       3.624   7.108  21.575  0.00  0.00    +0.024 C 
ENDBRANCH  23  26
ENDBRANCH   5  22
TORSDOF 6
ENDMDL
MODEL 2
REMARK VINA RESULT:      -6.6      4.062      7.710
REMARK  Name = 
REMARK  7 active torsions:
REMARK  status: ('A' for Active; 'I' for Inactive)
REMARK    1  A    between atoms: C_1  and  C_2
REMARK    2  A    between atoms: C_5  and  C_21
REMARK    3  A    between atoms: C_7  and  C_8
REMARK    4  A    between atoms: C_11  and  C_14
REMARK    5  A    between atoms: N_16  and  C_17
REMARK    6  A    between atoms: C_17  and  C_18
REMARK    7  A    between atoms: N_23  and  C_24
REMARK                            x       y       z     vdW  Elec       q    Type
REMARK                         _______ _______ _______ _____ _____    ______ ____
ROOT
ATOM      1  C   UNL     1       8.745  -5.105  24.894  0.00  0.00    +0.044 C 
ATOM      2  C   UNL     1       8.635  -3.795  24.153  0.00  0.00    -0.043 A 
ATOM      3  C   UNL     1       7.466  -3.346  23.478  0.00  0.00    -0.014 A 
ATOM      4  C   UNL     1       7.555  -2.089  22.818  0.00  0.00    +0.021 A 
ATOM      5  C   UNL     1       8.718  -1.302  22.844  0.00  0.00    +0.037 A 
ATOM      6  C   UNL     1       9.837  -1.761  23.530  0.00  0.00    +0.013 A 
ATOM      7  C   UNL     1       9.792  -2.986  24.184  0.00  0.00    +0.005 A 
ENDROOT
BRANCH   3   8
ATOM      8  C   UNL     1       6.161  -4.084  23.443  0.00  0.00    -0.018 A 
ATOM      9  C   UNL     1       5.009  -3.603  24.092  0.00  0.00    +0.009 A 
ATOM     10  C   UNL     1       3.772  -4.258  24.013  0.00  0.00    +0.013 A 
ATOM     11  C   UNL     1       3.625  -5.393  23.218  0.00  0.00    +0.037 A 
ATOM     12  C   UNL     1       4.749  -5.910  22.572  0.00  0.00    +0.013 A 
ATOM     13  C   UNL     1       5.997  -5.273  22.698  0.00  0.00    +0.009 A 
BRANCH  11  14
ATOM     14  C   UNL     1       2.297  -6.049  23.027  0.00  0.00    +0.244 C 
ATOM     15  N   UNL     1       2.329  -7.410  22.793  0.00  0.00    -0.311 N 
ATOM     16  H   UNL     1       3.186  -7.913  22.968  0.00  0.00    +0.149 HD
ATOM     17  O   UNL     1       1.262  -5.402  23.131  0.00  0.00    -0.270 OA
BRANCH  15  18
ATOM     18  C   UNL     1       1.111  -8.186  22.757  0.00  0.00    +0.108 C 
BRANCH  18  19
ATOM     19  C   UNL     1       0.709  -8.545  24.154  0.00  0.00    +0.006 C 
ATOM     20  C   UNL     1       1.676  -9.257  25.068  0.00  0.00    +0.005 C 
ATOM     21  C   UNL     1       0.468  -9.985  24.549  0.00  0.00    +0.005 C 
ENDBRANCH  18  19
ENDBRANCH  15  18
ENDBRANCH  11  14
ENDBRANCH   3   8
BRANCH   5  22
ATOM     22  C   UNL     1       8.830   0.017  22.156  0.00  0.00    +0.244 C 
ATOM     23  N   UNL     1       7.837   0.943  22.421  0.00  0.00    -0.308 N 
ATOM     24  H   UNL     1       7.146   0.743  23.130  0.00  0.00    +0.149 HD
ATOM     25  O   UNL     1       9.791   0.243  21.428  0.00  0.00    -0.270 OA
BRANCH  23  26
ATOM     26  C   UNL     1       7.896   2.274  21.899  0.00  0.00    +0.073 C 
ATOM     27  C   UNL     1       7.975   3.453  22.830  0.00  0.00    +0.024 C 
ATOM     28  C   UNL     1       6.725   3.208  22.037  0.00  0.00    +0.024 C 
ENDBRANCH  23  26
ENDBRANCH   5  22
TORSDOF 6
ENDMDL
MODEL 3
REMARK VINA RESULT:      -6.6      4.252     10.474
REMARK  Name = 
REMARK  7 active torsions:
REMARK  status: ('A' for Active; 'I' for Inactive)
REMARK    1  A    between atoms: C_1  and  C_2
REMARK    2  A    between atoms: C_5  and  C_21
REMARK    3  A    between atoms: C_7  and  C_8
REMARK    4  A    between atoms: C_11  and  C_14
REMARK    5  A    between atoms: N_16  and  C_17
REMARK    6  A    between atoms: C_17  and  C_18
REMARK    7  A    between atoms: N_23  and  C_24
REMARK                            x       y       z     vdW  Elec       q    Type
REMARK                         _______ _______ _______ _____ _____    ______ ____
ROOT
ATOM      1  C   UNL     1       5.676  -5.520  22.222  0.00  0.00    +0.044 C 
ATOM      2  C   UNL     1       5.553  -5.770  23.706  0.00  0.00    -0.043 A 
ATOM      3  C   UNL     1       6.230  -5.021  24.709  0.00  0.00    -0.014 A 
ATOM      4  C   UNL     1       6.005  -5.413  26.057  0.00  0.00    +0.021 A 
ATOM      5  C   UNL     1       5.141  -6.466  26.405  0.00  0.00    +0.037 A 
ATOM      6  C   UNL     1       4.479  -7.165  25.401  0.00  0.00    +0.013 A 
ATOM      7  C   UNL     1       4.676  -6.815  24.071  0.00  0.00    +0.005 A 
ENDROOT
BRANCH   3   8
ATOM      8  C   UNL     1       7.124  -3.846  24.442  0.00  0.00    -0.018 A 
ATOM      9  C   UNL     1       8.519  -3.977  24.325  0.00  0.00    +0.009 A 
ATOM     10  C   UNL     1       9.353  -2.892  24.018  0.00  0.00    +0.013 A 
ATOM     11  C   UNL     1       8.808  -1.639  23.746  0.00  0.00    +0.037 A 
ATOM     12  C   UNL     1       7.429  -1.467  23.870  0.00  0.00    +0.013 A 
ATOM     13  C   UNL     1       6.606  -2.550  24.227  0.00  0.00    +0.009 A 
BRANCH  11  14
ATOM     14  C   UNL     1       9.660  -0.492  23.310  0.00  0.00    +0.244 C 
ATOM     15  N   UNL     1       8.981   0.604  22.815  0.00  0.00    -0.311 N 
ATOM     16  H   UNL     1       7.985   0.666  22.963  0.00  0.00    +0.149 HD
ATOM     17  O   UNL     1      10.876  -0.532  23.446  0.00  0.00    -0.270 OA
BRANCH  15  18
ATOM     18  C   UNL     1       9.675   1.835  22.516  0.00  0.00    +0.108 C 
BRANCH  18  19
ATOM     19  C   UNL     1       9.925   2.587  23.786  0.00  0.00    +0.006 C 
ATOM     20  C   UNL     1       8.777   2.949  24.697  0.00  0.00    +0.005 C 
ATOM     21  C   UNL     1       9.492   4.028  23.936  0.00  0.00    +0.005 C 
ENDBRANCH  18  19
ENDBRANCH  15  18
ENDBRANCH  11  14
ENDBRANCH   3   8
BRANCH   5  22
ATOM     22  C   UNL     1       4.897  -6.893  27.813  0.00  0.00    +0.244 C 
ATOM     23  N   UNL     1       3.594  -6.811  28.270  0.00  0.00    -0.308 N 
ATOM     24  H   UNL     1       2.854  -6.572  27.625  0.00  0.00    +0.149 HD
ATOM     25  O   UNL     1       5.826  -7.325  28.487  0.00  0.00    -0.270 OA
BRANCH  23  26
ATOM     26  C   UNL     1       3.223  -7.289  29.567  0.00  0.00    +0.073 C 
ATOM     27  C   UNL     1       1.958  -8.081  29.754  0.00  0.00    +0.024 C 
ATOM     28  C   UNL     1       2.060  -6.689  30.306  0.00  0.00    +0.024 C 
ENDBRANCH  23  26
ENDBRANCH   5  22
TORSDOF 6
ENDMDL
MODEL 4
REMARK VINA RESULT:      -6.5      3.425      5.148
REMARK  Name = 
REMARK  7 active torsions:
REMARK  status: ('A' for Active; 'I' for Inactive)
REMARK    1  A    between atoms: C_1  and  C_2
REMARK    2  A    between atoms: C_5  and  C_21
REMARK    3  A    between atoms: C_7  and  C_8
REMARK    4  A    between atoms: C_11  and  C_14
REMARK    5  A    between atoms: N_16  and  C_17
REMARK    6  A    between atoms: C_17  and  C_18
REMARK    7  A    between atoms: N_23  and  C_24
REMARK                            x       y       z     vdW  Elec       q    Type
REMARK                         _______ _______ _______ _____ _____    ______ ____
ROOT
ATOM      1  C   UNL     1       9.475  -1.538  21.913  0.00  0.00    +0.044 C 
ATOM      2  C   UNL     1       9.357  -0.163  22.526  0.00  0.00    -0.043 A 
ATOM      3  C   UNL     1       8.682   0.121  23.745  0.00  0.00    -0.014 A 
ATOM      4  C   UNL     1       8.659   1.481  24.159  0.00  0.00    +0.021 A 
ATOM      5  C   UNL     1       9.288   2.504  23.429  0.00  0.00    +0.037 A 
ATOM      6  C   UNL     1       9.957   2.189  22.251  0.00  0.00    +0.013 A 
ATOM      7  C   UNL     1       9.998   0.872  21.811  0.00  0.00    +0.005 A 
ENDROOT
BRANCH   3   8
ATOM      8  C   UNL     1       8.032  -0.907  24.624  0.00  0.00    -0.018 A 
ATOM      9  C   UNL     1       6.691  -1.297  24.457  0.00  0.00    +0.009 A 
ATOM     10  C   UNL     1       6.096  -2.299  25.236  0.00  0.00    +0.013 A 
ATOM     11  C   UNL     1       6.849  -3.003  26.174  0.00  0.00    +0.037 A 
ATOM     12  C   UNL     1       8.179  -2.632  26.380  0.00  0.00    +0.013 A 
ATOM     13  C   UNL     1       8.752  -1.591  25.627  0.00  0.00    +0.009 A 
BRANCH  11  14
ATOM     14  C   UNL     1       6.273  -4.147  26.941  0.00  0.00    +0.244 C 
ATOM     15  N   UNL     1       5.001  -4.539  26.569  0.00  0.00    -0.311 N 
ATOM     16  H   UNL     1       4.623  -4.196  25.699  0.00  0.00    +0.149 HD
ATOM     17  O   UNL     1       6.933  -4.715  27.803  0.00  0.00    -0.270 OA
BRANCH  15  18
ATOM     18  C   UNL     1       4.402  -5.733  27.118  0.00  0.00    +0.108 C 
BRANCH  18  19
ATOM     19  C   UNL     1       4.632  -6.880  26.185  0.00  0.00    +0.006 C 
ATOM     20  C   UNL     1       4.613  -6.665  24.691  0.00  0.00    +0.005 C 
ATOM     21  C   UNL     1       3.505  -7.441  25.346  0.00  0.00    +0.005 C 
ENDBRANCH  18  19
ENDBRANCH  15  18
ENDBRANCH  11  14
ENDBRANCH   3   8
BRANCH   5  22
ATOM     22  C   UNL     1       9.271   3.936  23.846  0.00  0.00    +0.244 C 
ATOM     23  N   UNL     1      10.439   4.653  23.657  0.00  0.00    -0.308 N 
ATOM     24  H   UNL     1      11.211   4.226  23.163  0.00  0.00    +0.149 HD
ATOM     25  O   UNL     1       8.240   4.427  24.293  0.00  0.00    -0.270 OA
BRANCH  23  26
ATOM     26  C   UNL     1      10.508   6.057  23.923  0.00  0.00    +0.073 C 
ATOM     27  C   UNL     1      11.691   6.637  24.649  0.00  0.00    +0.024 C 
ATOM     28  C   UNL     1      10.351   6.585  25.322  0.00  0.00    +0.024 C 
ENDBRANCH  23  26
ENDBRANCH   5  22
TORSDOF 6
ENDMDL
MODEL 5
REMARK VINA RESULT:      -6.5      3.339      4.934
REMARK  Name = 
REMARK  7 active torsions:
REMARK  status: ('A' for Active; 'I' for Inactive)
REMARK    1  A    between atoms: C_1  and  C_2
REMARK    2  A    between atoms: C_5  and  C_21
REMARK    3  A    between atoms: C_7  and  C_8
REMARK    4  A    between atoms: C_11  and  C_14
REMARK    5  A    between atoms: N_16  and  C_17
REMARK    6  A    between atoms: C_17  and  C_18
REMARK    7  A    between atoms: N_23  and  C_24
REMARK                            x       y       z     vdW  Elec       q    Type
REMARK                         _______ _______ _______ _____ _____    ______ ____
ROOT
ATOM      1  C   UNL     1      10.548  -1.489  22.425  0.00  0.00    +0.044 C 
ATOM      2  C   UNL     1       9.440  -0.463  22.446  0.00  0.00    -0.043 A 
ATOM      3  C   UNL     1       8.152  -0.679  23.009  0.00  0.00    -0.014 A 
ATOM      4  C   UNL     1       7.230   0.400  22.921  0.00  0.00    +0.021 A 
ATOM      5  C   UNL     1       7.563   1.634  22.336  0.00  0.00    +0.037 A 
ATOM      6  C   UNL     1       8.838   1.819  21.813  0.00  0.00    +0.013 A 
ATOM      7  C   UNL     1       9.767   0.787  21.876  0.00  0.00    +0.005 A 
ENDROOT
BRANCH   3   8
ATOM      8  C   UNL     1       7.721  -1.936  23.705  0.00  0.00    -0.018 A 
ATOM      9  C   UNL     1       7.673  -2.039  25.106  0.00  0.00    +0.009 A 
ATOM     10  C   UNL     1       7.214  -3.191  25.761  0.00  0.00    +0.013 A 
ATOM     11  C   UNL     1       6.718  -4.267  25.029  0.00  0.00    +0.037 A 
ATOM     12  C   UNL     1       6.765  -4.209  23.635  0.00  0.00    +0.013 A 
ATOM     13  C   UNL     1       7.274  -3.068  22.988  0.00  0.00    +0.009 A 
BRANCH  11  14
ATOM     14  C   UNL     1       6.122  -5.462  25.699  0.00  0.00    +0.244 C 
ATOM     15  N   UNL     1       4.864  -5.830  25.261  0.00  0.00    -0.311 N 
ATOM     16  H   UNL     1       4.512  -5.429  24.405  0.00  0.00    +0.149 HD
ATOM     17  O   UNL     1       6.756  -6.086  26.540  0.00  0.00    -0.270 OA
BRANCH  15  18
ATOM     18  C   UNL     1       4.252  -7.058  25.708  0.00  0.00    +0.108 C 
BRANCH  18  19
ATOM     19  C   UNL     1       3.311  -7.558  24.657  0.00  0.00    +0.006 C 
ATOM     20  C   UNL     1       1.917  -6.990  24.548  0.00  0.00    +0.005 C 
ATOM     21  C   UNL     1       2.110  -8.402  25.023  0.00  0.00    +0.005 C 
ENDBRANCH  18  19
ENDBRANCH  15  18
ENDBRANCH  11  14
ENDBRANCH   3   8
BRANCH   5  22
ATOM     22  C   UNL     1       6.608   2.775  22.232  0.00  0.00    +0.244 C 
ATOM     23  N   UNL     1       5.296   2.523  22.590  0.00  0.00    -0.308 N 
ATOM     24  H   UNL     1       5.054   1.630  22.996  0.00  0.00    +0.149 HD
ATOM     25  O   UNL     1       7.014   3.877  21.879  0.00  0.00    -0.270 OA
BRANCH  23  26
ATOM     26  C   UNL     1       4.316   3.565  22.628  0.00  0.00    +0.073 C 
ATOM     27  C   UNL     1       3.031   3.373  23.387  0.00  0.00    +0.024 C 
ATOM     28  C   UNL     1       3.015   3.426  21.887  0.00  0.00    +0.024 C 
ENDBRANCH  23  26
ENDBRANCH   5  22
TORSDOF 6
ENDMDL
MODEL 6
REMARK VINA RESULT:      -6.4      3.065      4.930
REMARK  Name = 
REMARK  7 active torsions:
REMARK  status: ('A' for Active; 'I' for Inactive)
REMARK    1  A    between atoms: C_1  and  C_2
REMARK    2  A    between atoms: C_5  and  C_21
REMARK    3  A    between atoms: C_7  and  C_8
REMARK    4  A    between atoms: C_11  and  C_14
REMARK    5  A    between atoms: N_16  and  C_17
REMARK    6  A    between atoms: C_17  and  C_18
REMARK    7  A    between atoms: N_23  and  C_24
REMARK                            x       y       z     vdW  Elec       q    Type
REMARK                         _______ _______ _______ _____ _____    ______ ____
ROOT
ATOM      1  C   UNL     1      10.259  -1.653  22.432  0.00  0.00    +0.044 C 
ATOM      2  C   UNL     1       9.332  -0.462  22.462  0.00  0.00    -0.043 A 
ATOM      3  C   UNL     1       8.043  -0.459  23.064  0.00  0.00    -0.014 A 
ATOM      4  C   UNL     1       7.303   0.753  22.979  0.00  0.00    +0.021 A 
ATOM      5  C   UNL     1       7.813   1.908  22.361  0.00  0.00    +0.037 A 
ATOM      6  C   UNL     1       9.085   1.877  21.800  0.00  0.00    +0.013 A 
ATOM      7  C   UNL     1       9.837   0.710  21.859  0.00  0.00    +0.005 A 
ENDROOT
BRANCH   3   8
ATOM      8  C   UNL     1       7.437  -1.619  23.797  0.00  0.00    -0.018 A 
ATOM      9  C   UNL     1       6.540  -2.510  23.181  0.00  0.00    +0.009 A 
ATOM     10  C   UNL     1       6.017  -3.630  23.843  0.00  0.00    +0.013 A 
ATOM     11  C   UNL     1       6.431  -3.940  25.137  0.00  0.00    +0.037 A 
ATOM     12  C   UNL     1       7.307  -3.070  25.787  0.00  0.00    +0.013 A 
ATOM     13  C   UNL     1       7.788  -1.922  25.131  0.00  0.00    +0.009 A 
BRANCH  11  14
ATOM     14  C   UNL     1       5.976  -5.184  25.827  0.00  0.00    +0.244 C 
ATOM     15  N   UNL     1       4.629  -5.471  25.719  0.00  0.00    -0.311 N 
ATOM     16  H   UNL     1       4.080  -4.974  25.034  0.00  0.00    +0.149 HD
ATOM     17  O   UNL     1       6.780  -5.909  26.399  0.00  0.00    -0.270 OA
BRANCH  15  18
ATOM     18  C   UNL     1       4.096  -6.725  26.198  0.00  0.00    +0.108 C 
BRANCH  18  19
ATOM     19  C   UNL     1       3.655  -7.556  25.034  0.00  0.00    +0.006 C 
ATOM     20  C   UNL     1       2.740  -6.975  23.984  0.00  0.00    +0.005 C 
ATOM     21  C   UNL     1       2.225  -8.035  24.916  0.00  0.00    +0.005 C 
ENDBRANCH  18  19
ENDBRANCH  15  18
ENDBRANCH  11  14
ENDBRANCH   3   8
BRANCH   5  22
ATOM     22  C   UNL     1       7.050   3.186  22.260  0.00  0.00    +0.244 C 
ATOM     23  N   UNL     1       7.792   4.353  22.231  0.00  0.00    -0.308 N 
ATOM     24  H   UNL     1       8.800   4.300  22.176  0.00  0.00    +0.149 HD
ATOM     25  O   UNL     1       5.827   3.158  22.170  0.00  0.00    -0.270 OA
BRANCH  23  26
ATOM     26  C   UNL     1       7.175   5.629  22.032  0.00  0.00    +0.073 C 
ATOM     27  C   UNL     1       7.760   6.863  22.663  0.00  0.00    +0.024 C 
ATOM     28  C   UNL     1       6.452   6.318  23.156  0.00  0.00    +0.024 C 
ENDBRANCH  23  26
ENDBRANCH   5  22
TORSDOF 6
ENDMDL
MODEL 7
REMARK VINA RESULT:      -6.4      3.551      5.053
REMARK  Name = 
REMARK  7 active torsions:
REMARK  status: ('A' for Active; 'I' for Inactive)
REMARK    1  A    between atoms: C_1  and  C_2
REMARK    2  A    between atoms: C_5  and  C_21
REMARK    3  A    between atoms: C_7  and  C_8
REMARK    4  A    between atoms: C_11  and  C_14
REMARK    5  A    between atoms: N_16  and  C_17
REMARK    6  A    between atoms: C_17  and  C_18
REMARK    7  A    between atoms: N_23  and  C_24
REMARK                            x       y       z     vdW  Elec       q    Type
REMARK                         _______ _______ _______ _____ _____    ______ ____
ROOT
ATOM      1  C   UNL     1      10.227  -1.495  22.304  0.00  0.00    +0.044 C 
ATOM      2  C   UNL     1       9.156  -0.435  22.396  0.00  0.00    -0.043 A 
ATOM      3  C   UNL     1       8.029  -0.500  23.262  0.00  0.00    -0.014 A 
ATOM      4  C   UNL     1       7.113   0.586  23.198  0.00  0.00    +0.021 A 
ATOM      5  C   UNL     1       7.307   1.690  22.351  0.00  0.00    +0.037 A 
ATOM      6  C   UNL     1       8.430   1.732  21.531  0.00  0.00    +0.013 A 
ATOM      7  C   UNL     1       9.346   0.687  21.561  0.00  0.00    +0.005 A 
ENDROOT
BRANCH   3   8
ATOM      8  C   UNL     1       7.766  -1.605  24.243  0.00  0.00    -0.018 A 
ATOM      9  C   UNL     1       6.916  -2.685  23.945  0.00  0.00    +0.009 A 
ATOM     10  C   UNL     1       6.713  -3.750  24.835  0.00  0.00    +0.013 A 
ATOM     11  C   UNL     1       7.413  -3.806  26.038  0.00  0.00    +0.037 A 
ATOM     12  C   UNL     1       8.251  -2.743  26.376  0.00  0.00    +0.013 A 
ATOM     13  C   UNL     1       8.410  -1.655  25.498  0.00  0.00    +0.009 A 
BRANCH  11  14
ATOM     14  C   UNL     1       7.300  -4.979  26.956  0.00  0.00    +0.244 C 
ATOM     15  N   UNL     1       6.314  -4.893  27.921  0.00  0.00    -0.311 N 
ATOM     16  H   UNL     1       5.609  -4.177  27.831  0.00  0.00    +0.149 HD
ATOM     17  O   UNL     1       8.015  -5.961  26.803  0.00  0.00    -0.270 OA
BRANCH  15  18
ATOM     18  C   UNL     1       5.995  -6.024  28.759  0.00  0.00    +0.108 C 
BRANCH  18  19
ATOM     19  C   UNL     1       4.876  -6.803  28.140  0.00  0.00    +0.006 C 
ATOM     20  C   UNL     1       3.768  -6.092  27.403  0.00  0.00    +0.005 C 
ATOM     21  C   UNL     1       3.480  -6.755  28.719  0.00  0.00    +0.005 C 
ENDBRANCH  18  19
ENDBRANCH  15  18
ENDBRANCH  11  14
ENDBRANCH   3   8
BRANCH   5  22
ATOM     22  C   UNL     1       6.356   2.836  22.269  0.00  0.00    +0.244 C 
ATOM     23  N   UNL     1       5.025   2.560  22.526  0.00  0.00    -0.308 N 
ATOM     24  H   UNL     1       4.762   1.641  22.853  0.00  0.00    +0.149 HD
ATOM     25  O   UNL     1       6.779   3.960  22.020  0.00  0.00    -0.270 OA
BRANCH  23  26
ATOM     26  C   UNL     1       4.041   3.597  22.578  0.00  0.00    +0.073 C 
ATOM     27  C   UNL     1       2.996   3.602  23.660  0.00  0.00    +0.024 C 
ATOM     28  C   UNL     1       2.604   3.312  22.241  0.00  0.00    +0.024 C 
ENDBRANCH  23  26
ENDBRANCH   5  22
TORSDOF 6
ENDMDL
MODEL 8
REMARK VINA RESULT:      -6.4      4.052     10.152
REMARK  Name = 
REMARK  7 active torsions:
REMARK  status: ('A' for Active; 'I' for Inactive)
REMARK    1  A    between atoms: C_1  and  C_2
REMARK    2  A    between atoms: C_5  and  C_21
REMARK    3  A    between atoms: C_7  and  C_8
REMARK    4  A    between atoms: C_11  and  C_14
REMARK    5  A    between atoms: N_16  and  C_17
REMARK    6  A    between atoms: C_17  and  C_18
REMARK    7  A    between atoms: N_23  and  C_24
REMARK                            x       y       z     vdW  Elec       q    Type
REMARK                         _______ _______ _______ _____ _____    ______ ____
ROOT
ATOM      1  C   UNL     1       7.398  -5.256  27.076  0.00  0.00    +0.044 C 
ATOM      2  C   UNL     1       6.119  -5.521  26.319  0.00  0.00    -0.043 A 
ATOM      3  C   UNL     1       5.728  -4.839  25.134  0.00  0.00    -0.014 A 
ATOM      4  C   UNL     1       4.478  -5.212  24.567  0.00  0.00    +0.021 A 
ATOM      5  C   UNL     1       3.668  -6.219  25.119  0.00  0.00    +0.037 A 
ATOM      6  C   UNL     1       4.089  -6.880  26.268  0.00  0.00    +0.013 A 
ATOM      7  C   UNL     1       5.303  -6.542  26.854  0.00  0.00    +0.005 A 
ENDROOT
BRANCH   3   8
ATOM      8  C   UNL     1       6.548  -3.794  24.437  0.00  0.00    -0.018 A 
ATOM      9  C   UNL     1       7.351  -4.091  23.321  0.00  0.00    +0.009 A 
ATOM     10  C   UNL     1       8.073  -3.107  22.629  0.00  0.00    +0.013 A 
ATOM     11  C   UNL     1       7.962  -1.767  22.992  0.00  0.00    +0.037 A 
ATOM     12  C   UNL     1       7.188  -1.435  24.105  0.00  0.00    +0.013 A 
ATOM     13  C   UNL     1       6.507  -2.436  24.822  0.00  0.00    +0.009 A 
BRANCH  11  14
ATOM     14  C   UNL     1       8.631  -0.686  22.209  0.00  0.00    +0.244 C 
ATOM     15  N   UNL     1       8.186   0.599  22.458  0.00  0.00    -0.311 N 
ATOM     16  H   UNL     1       7.612   0.764  23.271  0.00  0.00    +0.149 HD
ATOM     17  O   UNL     1       9.548  -0.948  21.441  0.00  0.00    -0.270 OA
BRANCH  15  18
ATOM     18  C   UNL     1       8.862   1.742  21.891  0.00  0.00    +0.108 C 
BRANCH  18  19
ATOM     19  C   UNL     1       9.980   2.158  22.795  0.00  0.00    +0.006 C 
ATOM     20  C   UNL     1       9.871   1.957  24.287  0.00  0.00    +0.005 C 
ATOM     21  C   UNL     1       9.834   3.347  23.719  0.00  0.00    +0.005 C 
ENDBRANCH  18  19
ENDBRANCH  15  18
ENDBRANCH  11  14
ENDBRANCH   3   8
BRANCH   5  22
ATOM     22  C   UNL     1       2.353  -6.620  24.541  0.00  0.00    +0.244 C 
ATOM     23  N   UNL     1       2.383  -7.293  23.333  0.00  0.00    -0.308 N 
ATOM     24  H   UNL     1       3.272  -7.575  22.943  0.00  0.00    +0.149 HD
ATOM     25  O   UNL     1       1.320  -6.381  25.158  0.00  0.00    -0.270 OA
BRANCH  23  26
ATOM     26  C   UNL     1       1.193  -7.816  22.736  0.00  0.00    +0.073 C 
ATOM     27  C   UNL     1       1.196  -8.267  21.301  0.00  0.00    +0.024 C 
ATOM     28  C   UNL     1       0.443  -7.031  21.696  0.00  0.00    +0.024 C 
ENDBRANCH  23  26
ENDBRANCH   5  22
TORSDOF 6
ENDMDL
MODEL 9
REMARK VINA RESULT:      -6.4      2.361      4.306
REMARK  Name = 
REMARK  7 active torsions:
REMARK  status: ('A' for Active; 'I' for Inactive)
REMARK    1  A    between atoms: C_1  and  C_2
REMARK    2  A    between atoms: C_5  and  C_21
REMARK    3  A    between atoms: C_7  and  C_8
REMARK    4  A    between atoms: C_11  and  C_14
REMARK    5  A    between atoms: N_16  and  C_17
REMARK    6  A    between atoms: C_17  and  C_18
REMARK    7  A    between atoms: N_23  and  C_24
REMARK                            x       y       z     vdW  Elec       q    Type
REMARK                         _______ _______ _______ _____ _____    ______ ____
ROOT
ATOM      1  C   UNL     1       5.497   2.126  24.567  0.00  0.00    +0.044 C 
ATOM      2  C   UNL     1       6.781   2.895  24.376  0.00  0.00    -0.043 A 
ATOM      3  C   UNL     1       8.067   2.300  24.253  0.00  0.00    -0.014 A 
ATOM      4  C   UNL     1       9.168   3.186  24.097  0.00  0.00    +0.021 A 
ATOM      5  C   UNL     1       9.012   4.582  24.036  0.00  0.00    +0.037 A 
ATOM      6  C   UNL     1       7.739   5.131  24.139  0.00  0.00    +0.013 A 
ATOM      7  C   UNL     1       6.638   4.298  24.297  0.00  0.00    +0.005 A 
ENDROOT
BRANCH   3   8
ATOM      8  C   UNL     1       8.330   0.822  24.247  0.00  0.00    -0.018 A 
ATOM      9  C   UNL     1       8.330   0.055  25.426  0.00  0.00    +0.009 A 
ATOM     10  C   UNL     1       8.516  -1.335  25.419  0.00  0.00    +0.013 A 
ATOM     11  C   UNL     1       8.640  -2.023  24.214  0.00  0.00    +0.037 A 
ATOM     12  C   UNL     1       8.662  -1.294  23.024  0.00  0.00    +0.013 A 
ATOM     13  C   UNL     1       8.525   0.107  23.045  0.00  0.00    +0.009 A 
BRANCH  11  14
ATOM     14  C   UNL     1       8.730  -3.513  24.169  0.00  0.00    +0.244 C 
ATOM     15  N   UNL     1       7.593  -4.169  23.735  0.00  0.00    -0.311 N 
ATOM     16  H   UNL     1       6.866  -3.634  23.285  0.00  0.00    +0.149 HD
ATOM     17  O   UNL     1       9.775  -4.084  24.454  0.00  0.00    -0.270 OA
BRANCH  15  18
ATOM     18  C   UNL     1       7.605  -5.592  23.490  0.00  0.00    +0.108 C 
BRANCH  18  19
ATOM     19  C   UNL     1       7.262  -5.853  22.056  0.00  0.00    +0.006 C 
ATOM     20  C   UNL     1       6.350  -4.913  21.306  0.00  0.00    +0.005 C 
ATOM     21  C   UNL     1       5.873  -6.295  21.655  0.00  0.00    +0.005 C 
ENDBRANCH  18  19
ENDBRANCH  15  18
ENDBRANCH  11  14
ENDBRANCH   3   8
BRANCH   5  22
ATOM     22  C   UNL     1      10.155   5.527  23.875  0.00  0.00    +0.244 C 
ATOM     23  N   UNL     1      11.325   5.006  23.353  0.00  0.00    -0.308 N 
ATOM     24  H   UNL     1      11.337   4.055  23.010  0.00  0.00    +0.149 HD
ATOM     25  O   UNL     1      10.011   6.709  24.168  0.00  0.00    -0.270 OA
BRANCH  23  26
ATOM     26  C   UNL     1      12.451   5.838  23.059  0.00  0.00    +0.073 C 
ATOM     27  C   UNL     1      13.200   5.675  21.765  0.00  0.00    +0.024 C 
ATOM     28  C   UNL     1      13.845   5.276  23.060  0.00  0.00    +0.024 C 
ENDBRANCH  23  26
ENDBRANCH   5  22
TORSDOF 6
ENDMDL
