MODEL 1
REMARK VINA RESULT:      -5.6      0.000      0.000
REMARK  Name = 
REMARK  11 active torsions:
REMARK  status: ('A' for Active; 'I' for Inactive)
REMARK    1  A    between atoms: O_1  and  C_2
REMARK    2  A    between atoms: C_4  and  O_6
REMARK    3  A    between atoms: C_7  and  C_9
REMARK    4  A    between atoms: C_9  and  P_10
REMARK    5  A    between atoms: P_10  and  O_11
REMARK    6  A    between atoms: P_10  and  O_12
REMARK    7  A    between atoms: C_15  and  C_17
REMARK    8  A    between atoms: C_17  and  O_18
REMARK    9  A    between atoms: O_18  and  P_19
REMARK   10  A    between atoms: P_19  and  O_20
REMARK   11  A    between atoms: P_19  and  O_21
REMARK                            x       y       z     vdW  Elec       q    Type
REMARK                         _______ _______ _______ _____ _____    ______ ____
ROOT
ATOM      1  C   UNL     1       9.186  -1.725  22.302  0.00  0.00    +0.176 C 
ATOM      2  C   UNL     1       9.633  -1.099  23.637  0.00  0.00    +0.176 C 
ATOM      3  O   UNL     1       8.637  -0.136  24.040  0.00  0.00    -0.365 OA
ATOM      4  C   UNL     1       7.595  -0.100  23.042  0.00  0.00    +0.161 C 
ATOM      5  C   UNL     1       7.690  -1.434  22.274  0.00  0.00    +0.175 C 
ENDROOT
BRANCH   1   6
ATOM      6  O   UNL     1       9.786  -1.092  21.167  0.00  0.00    -0.386 OA
ATOM      7  H   UNL     1       9.718  -0.126  21.264  0.00  0.00    +0.210 HD
ENDBRANCH   1   6
BRANCH   5   8
ATOM      8  O   UNL     1       6.987  -2.470  22.959  0.00  0.00    -0.387 OA
ATOM      9  H   UNL     1       7.198  -3.310  22.510  0.00  0.00    +0.210 HD
ENDBRANCH   5   8
BRANCH   2  10
ATOM     10  C   UNL     1       9.796  -2.137  24.748  0.00  0.00    +0.206 C 
BRANCH  10  11
ATOM     11  O   UNL     1       9.766  -3.434  24.166  0.00  0.00    -0.284 OA
BRANCH  11  12
ATOM     12  P   UNL     1       9.003  -4.633  25.151  0.00  0.00    +0.472 P 
ATOM     13  O   UNL     1       8.320  -5.708  26.033  0.00  0.00    -0.228 OA
BRANCH  12  14
ATOM     14  O   UNL     1      10.407  -5.466  25.101  0.00  0.00    -0.303 OA
ATOM     15  H   UNL     1      10.892  -5.208  25.914  0.00  0.00    +0.222 HD
ENDBRANCH  12  14
BRANCH  12  16
ATOM     16  O   UNL     1       8.411  -5.211  23.747  0.00  0.00    -0.303 OA
ATOM     17  H   UNL     1       8.898  -4.803  23.017  0.00  0.00    +0.222 HD
ENDBRANCH  12  16
ENDBRANCH  11  12
ENDBRANCH  10  11
ENDBRANCH   2  10
BRANCH   4  18
ATOM     18  C   UNL     1       7.873   1.094  22.145  0.00  0.00    +0.161 C 
BRANCH  18  19
ATOM     19  P   UNL     1       9.043   2.307  22.855  0.00  0.00    +0.330 P 
ATOM     20  O   UNL     1      10.034   3.334  23.456  0.00  0.00    -0.259 OA
BRANCH  19  21
ATOM     21  O   UNL     1       8.168   3.462  22.076  0.00  0.00    -0.324 OA
ATOM     22  H   UNL     1       8.786   4.138  21.715  0.00  0.00    +0.220 HD
ENDBRANCH  19  21
BRANCH  19  23
ATOM     23  O   UNL     1      10.039   1.985  21.586  0.00  0.00    -0.324 OA
ATOM     24  H   UNL     1      10.101   1.013  21.501  0.00  0.00    +0.220 HD
ENDBRANCH  19  23
ENDBRANCH  18  19
ENDBRANCH   4  18
TORSDOF 11
ENDMDL
MODEL 2
REMARK VINA RESULT:      -5.5      2.038      6.047
REMARK  Name = 
REMARK  11 active torsions:
REMARK  status: ('A' for Active; 'I' for Inactive)
REMARK    1  A    between atoms: O_1  and  C_2
REMARK    2  A    between atoms: C_4  and  O_6
REMARK    3  A    between atoms: C_7  and  C_9
REMARK    4  A    between atoms: C_9  and  P_10
REMARK    5  A    between atoms: P_10  and  O_11
REMARK    6  A    between atoms: P_10  and  O_12
REMARK    7  A    between atoms: C_15  and  C_17
REMARK    8  A    between atoms: C_17  and  O_18
REMARK    9  A    between atoms: O_18  and  P_19
REMARK   10  A    between atoms: P_19  and  O_20
REMARK   11  A    between atoms: P_19  and  O_21
REMARK                            x       y       z     vdW  Elec       q    Type
REMARK                         _______ _______ _______ _____ _____    ______ ____
ROOT
ATOM      1  C   UNL     1       9.615  -2.042  23.810  0.00  0.00    +0.176 C 
ATOM      2  C   UNL     1       9.303  -1.796  22.320  0.00  0.00    +0.176 C 
ATOM      3  O   UNL     1       7.914  -2.114  22.092  0.00  0.00    -0.365 OA
ATOM      4  C   UNL     1       7.329  -2.556  23.335  0.00  0.00    +0.161 C 
ATOM      5  C   UNL     1       8.235  -2.009  24.456  0.00  0.00    +0.175 C 
ENDROOT
BRANCH   1   6
ATOM      6  O   UNL     1      10.191  -3.330  24.048  0.00  0.00    -0.386 OA
ATOM      7  H   UNL     1       9.572  -4.020  23.748  0.00  0.00    +0.210 HD
ENDBRANCH   1   6
BRANCH   5   8
ATOM      8  O   UNL     1       7.890  -0.664  24.782  0.00  0.00    -0.387 OA
ATOM      9  H   UNL     1       7.783  -0.618  25.751  0.00  0.00    +0.210 HD
ENDBRANCH   5   8
BRANCH   2  10
ATOM     10  C   UNL     1       9.557  -0.349  21.897  0.00  0.00    +0.206 C 
BRANCH  10  11
ATOM     11  O   UNL     1      10.305   0.299  22.919  0.00  0.00    -0.284 OA
BRANCH  11  12
ATOM     12  P   UNL     1       9.903   1.966  23.140  0.00  0.00    +0.472 P 
ATOM     13  O   UNL     1       9.542   3.460  23.337  0.00  0.00    -0.228 OA
BRANCH  12  14
ATOM     14  O   UNL     1       8.333   1.520  23.096  0.00  0.00    -0.303 OA
ATOM     15  H   UNL     1       8.331   0.605  22.740  0.00  0.00    +0.222 HD
ENDBRANCH  12  14
BRANCH  12  16
ATOM     16  O   UNL     1      10.094   2.083  21.526  0.00  0.00    -0.303 OA
ATOM     17  H   UNL     1      10.529   2.925  21.329  0.00  0.00    +0.222 HD
ENDBRANCH  12  16
ENDBRANCH  11  12
ENDBRANCH  10  11
ENDBRANCH   2  10
BRANCH   4  18
ATOM     18  C   UNL     1       7.311  -4.075  23.307  0.00  0.00    +0.161 C 
BRANCH  18  19
ATOM     19  P   UNL     1       6.563  -4.787  21.797  0.00  0.00    +0.330 P 
ATOM     20  O   UNL     1       5.929  -5.392  20.520  0.00  0.00    -0.259 OA
BRANCH  19  21
ATOM     21  O   UNL     1       5.419  -3.612  21.925  0.00  0.00    -0.324 OA
ATOM     22  H   UNL     1       4.645  -3.862  21.373  0.00  0.00    +0.220 HD
ENDBRANCH  19  21
BRANCH  19  23
ATOM     23  O   UNL     1       5.789  -5.862  22.773  0.00  0.00    -0.324 OA
ATOM     24  H   UNL     1       5.502  -5.380  23.573  0.00  0.00    +0.220 HD
ENDBRANCH  19  23
ENDBRANCH  18  19
ENDBRANCH   4  18
TORSDOF 11
ENDMDL
MODEL 3
REMARK VINA RESULT:      -5.5      1.300      2.059
REMARK  Name = 
REMARK  11 active torsions:
REMARK  status: ('A' for Active; 'I' for Inactive)
REMARK    1  A    between atoms: O_1  and  C_2
REMARK    2  A    between atoms: C_4  and  O_6
REMARK    3  A    between atoms: C_7  and  C_9
REMARK    4  A    between atoms: C_9  and  P_10
REMARK    5  A    between atoms: P_10  and  O_11
REMARK    6  A    between atoms: P_10  and  O_12
REMARK    7  A    between atoms: C_15  and  C_17
REMARK    8  A    between atoms: C_17  and  O_18
REMARK    9  A    between atoms: O_18  and  P_19
REMARK   10  A    between atoms: P_19  and  O_20
REMARK   11  A    between atoms: P_19  and  O_21
REMARK                            x       y       z     vdW  Elec       q    Type
REMARK                         _______ _______ _______ _____ _____    ______ ____
ROOT
ATOM      1  C   UNL     1       9.752  -1.405  24.203  0.00  0.00    +0.176 C 
ATOM      2  C   UNL     1       8.312  -1.809  23.831  0.00  0.00    +0.176 C 
ATOM      3  O   UNL     1       7.884  -0.987  22.726  0.00  0.00    -0.365 OA
ATOM      4  C   UNL     1       8.951  -0.080  22.381  0.00  0.00    +0.161 C 
ATOM      5  C   UNL     1      10.245  -0.705  22.942  0.00  0.00    +0.175 C 
ENDROOT
BRANCH   1   6
ATOM      6  O   UNL     1       9.801  -0.468  25.283  0.00  0.00    -0.386 OA
ATOM      7  H   UNL     1      10.635  -0.585  25.774  0.00  0.00    +0.210 HD
ENDBRANCH   1   6
BRANCH   5   8
ATOM      8  O   UNL     1      10.781  -1.668  22.037  0.00  0.00    -0.387 OA
ATOM      9  H   UNL     1      11.188  -2.376  22.573  0.00  0.00    +0.210 HD
ENDBRANCH   5   8
BRANCH   2  10
ATOM     10  C   UNL     1       8.200  -3.280  23.428  0.00  0.00    +0.206 C 
BRANCH  10  11
ATOM     11  O   UNL     1       9.151  -4.030  24.175  0.00  0.00    -0.284 OA
BRANCH  11  12
ATOM     12  P   UNL     1       8.456  -5.036  25.398  0.00  0.00    +0.472 P 
ATOM     13  O   UNL     1       7.833  -5.937  26.494  0.00  0.00    -0.228 OA
BRANCH  12  14
ATOM     14  O   UNL     1       9.041  -3.981  26.499  0.00  0.00    -0.303 OA
ATOM     15  H   UNL     1       8.262  -3.686  27.017  0.00  0.00    +0.222 HD
ENDBRANCH  12  14
BRANCH  12  16
ATOM     16  O   UNL     1       9.821  -5.913  25.257  0.00  0.00    -0.303 OA
ATOM     17  H   UNL     1      10.424  -5.449  24.658  0.00  0.00    +0.222 HD
ENDBRANCH  12  16
ENDBRANCH  11  12
ENDBRANCH  10  11
ENDBRANCH   2  10
BRANCH   4  18
ATOM     18  C   UNL     1       8.635   1.255  23.033  0.00  0.00    +0.161 C 
BRANCH  18  19
ATOM     19  P   UNL     1      10.054   2.406  23.109  0.00  0.00    +0.330 P 
ATOM     20  O   UNL     1      11.256   3.380  23.174  0.00  0.00    -0.259 OA
BRANCH  19  21
ATOM     21  O   UNL     1       8.946   3.622  23.083  0.00  0.00    -0.324 OA
ATOM     22  H   UNL     1       8.175   3.336  22.544  0.00  0.00    +0.220 HD
ENDBRANCH  19  21
BRANCH  19  23
ATOM     23  O   UNL     1      10.167   2.265  21.474  0.00  0.00    -0.324 OA
ATOM     24  H   UNL     1       9.316   2.560  21.094  0.00  0.00    +0.220 HD
ENDBRANCH  19  23
ENDBRANCH  18  19
ENDBRANCH   4  18
TORSDOF 11
ENDMDL
MODEL 4
REMARK VINA RESULT:      -5.4      1.937      6.356
REMARK  Name = 
REMARK  11 active torsions:
REMARK  status: ('A' for Active; 'I' for Inactive)
REMARK    1  A    between atoms: O_1  and  C_2
REMARK    2  A    between atoms: C_4  and  O_6
REMARK    3  A    between atoms: C_7  and  C_9
REMARK    4  A    between atoms: C_9  and  P_10
REMARK    5  A    between atoms: P_10  and  O_11
REMARK    6  A    between atoms: P_10  and  O_12
REMARK    7  A    between atoms: C_15  and  C_17
REMARK    8  A    between atoms: C_17  and  O_18
REMARK    9  A    between atoms: O_18  and  P_19
REMARK   10  A    between atoms: P_19  and  O_20
REMARK   11  A    between atoms: P_19  and  O_21
REMARK                            x       y       z     vdW  Elec       q    Type
REMARK                         _______ _______ _______ _____ _____    ______ ____
ROOT
ATOM      1  C   UNL     1       9.582  -2.900  24.503  0.00  0.00    +0.176 C 
ATOM      2  C   UNL     1       8.689  -2.541  23.299  0.00  0.00    +0.176 C 
ATOM      3  O   UNL     1       7.312  -2.608  23.722  0.00  0.00    -0.365 OA
ATOM      4  C   UNL     1       7.271  -2.999  25.110  0.00  0.00    +0.161 C 
ATOM      5  C   UNL     1       8.659  -2.662  25.693  0.00  0.00    +0.175 C 
ENDROOT
BRANCH   1   6
ATOM      6  O   UNL     1       9.974  -4.276  24.509  0.00  0.00    -0.386 OA
ATOM      7  H   UNL     1      10.471  -4.473  23.694  0.00  0.00    +0.210 HD
ENDBRANCH   1   6
BRANCH   5   8
ATOM      8  O   UNL     1       8.729  -1.294  26.088  0.00  0.00    -0.387 OA
ATOM      9  H   UNL     1       9.641  -1.126  26.394  0.00  0.00    +0.210 HD
ENDBRANCH   5   8
BRANCH   2  10
ATOM     10  C   UNL     1       8.973  -1.141  22.754  0.00  0.00    +0.206 C 
BRANCH  10  11
ATOM     11  O   UNL     1      10.174  -0.657  23.345  0.00  0.00    -0.284 OA
BRANCH  11  12
ATOM     12  P   UNL     1      10.148   1.031  23.716  0.00  0.00    +0.472 P 
ATOM     13  O   UNL     1      10.125   2.544  24.050  0.00  0.00    -0.228 OA
BRANCH  12  14
ATOM     14  O   UNL     1      10.664   0.638  25.215  0.00  0.00    -0.303 OA
ATOM     15  H   UNL     1      10.976  -0.291  25.148  0.00  0.00    +0.222 HD
ENDBRANCH  12  14
BRANCH  12  16
ATOM     16  O   UNL     1       8.563   0.800  24.015  0.00  0.00    -0.303 OA
ATOM     17  H   UNL     1       8.474   0.330  24.856  0.00  0.00    +0.222 HD
ENDBRANCH  12  16
ENDBRANCH  11  12
ENDBRANCH  10  11
ENDBRANCH   2  10
BRANCH   4  18
ATOM     18  C   UNL     1       6.984  -4.490  25.149  0.00  0.00    +0.161 C 
BRANCH  18  19
ATOM     19  P   UNL     1       7.061  -5.224  26.823  0.00  0.00    +0.330 P 
ATOM     20  O   UNL     1       7.125  -5.845  28.240  0.00  0.00    -0.259 OA
BRANCH  19  21
ATOM     21  O   UNL     1       8.419  -6.001  26.315  0.00  0.00    -0.324 OA
ATOM     22  H   UNL     1       8.671  -5.652  25.431  0.00  0.00    +0.220 HD
ENDBRANCH  19  21
BRANCH  19  23
ATOM     23  O   UNL     1       6.014  -6.376  26.290  0.00  0.00    -0.324 OA
ATOM     24  H   UNL     1       5.603  -6.042  25.468  0.00  0.00    +0.220 HD
ENDBRANCH  19  23
ENDBRANCH  18  19
ENDBRANCH   4  18
TORSDOF 11
ENDMDL
MODEL 5
REMARK VINA RESULT:      -5.4      3.425      6.876
REMARK  Name = 
REMARK  11 active torsions:
REMARK  status: ('A' for Active; 'I' for Inactive)
REMARK    1  A    between atoms: O_1  and  C_2
REMARK    2  A    between atoms: C_4  and  O_6
REMARK    3  A    between atoms: C_7  and  C_9
REMARK    4  A    between atoms: C_9  and  P_10
REMARK    5  A    between atoms: P_10  and  O_11
REMARK    6  A    between atoms: P_10  and  O_12
REMARK    7  A    between atoms: C_15  and  C_17
REMARK    8  A    between atoms: C_17  and  O_18
REMARK    9  A    between atoms: O_18  and  P_19
REMARK   10  A    between atoms: P_19  and  O_20
REMARK   11  A    between atoms: P_19  and  O_21
REMARK                            x       y       z     vdW  Elec       q    Type
REMARK                         _______ _______ _______ _____ _____    ______ ____
ROOT
ATOM      1  C   UNL     1       5.344  -4.239  23.903  0.00  0.00    +0.176 C 
ATOM      2  C   UNL     1       5.948  -3.252  24.921  0.00  0.00    +0.176 C 
ATOM      3  O   UNL     1       6.725  -4.006  25.874  0.00  0.00    -0.365 OA
ATOM      4  C   UNL     1       6.644  -5.407  25.535  0.00  0.00    +0.161 C 
ATOM      5  C   UNL     1       6.236  -5.466  24.049  0.00  0.00    +0.175 C 
ENDROOT
BRANCH   1   6
ATOM      6  O   UNL     1       4.004  -4.617  24.229  0.00  0.00    -0.386 OA
ATOM      7  H   UNL     1       4.005  -5.117  25.066  0.00  0.00    +0.210 HD
ENDBRANCH   1   6
BRANCH   5   8
ATOM      8  O   UNL     1       7.375  -5.335  23.201  0.00  0.00    -0.387 OA
ATOM      9  H   UNL     1       7.144  -4.697  22.500  0.00  0.00    +0.210 HD
ENDBRANCH   5   8
BRANCH   2  10
ATOM     10  C   UNL     1       6.849  -2.206  24.264  0.00  0.00    +0.206 C 
BRANCH  10  11
ATOM     11  O   UNL     1       8.112  -2.218  24.918  0.00  0.00    -0.284 OA
BRANCH  11  12
ATOM     12  P   UNL     1       9.464  -2.302  23.843  0.00  0.00    +0.472 P 
ATOM     13  O   UNL     1      10.675  -2.378  22.880  0.00  0.00    -0.228 OA
BRANCH  12  14
ATOM     14  O   UNL     1       8.400  -2.601  22.641  0.00  0.00    -0.303 OA
ATOM     15  H   UNL     1       7.797  -3.291  22.993  0.00  0.00    +0.222 HD
ENDBRANCH  12  14
BRANCH  12  16
ATOM     16  O   UNL     1       9.592  -3.846  24.347  0.00  0.00    -0.303 OA
ATOM     17  H   UNL     1       9.066  -3.951  25.154  0.00  0.00    +0.222 HD
ENDBRANCH  12  16
ENDBRANCH  11  12
ENDBRANCH  10  11
ENDBRANCH   2  10
BRANCH   4  18
ATOM     18  C   UNL     1       5.592  -6.027  26.439  0.00  0.00    +0.161 C 
BRANCH  18  19
ATOM     19  P   UNL     1       5.959  -5.878  28.226  0.00  0.00    +0.330 P 
ATOM     20  O   UNL     1       6.268  -5.753  29.737  0.00  0.00    -0.259 OA
BRANCH  19  21
ATOM     21  O   UNL     1       7.539  -6.093  27.821  0.00  0.00    -0.324 OA
ATOM     22  H   UNL     1       7.588  -6.398  26.888  0.00  0.00    +0.220 HD
ENDBRANCH  19  21
BRANCH  19  23
ATOM     23  O   UNL     1       5.614  -7.481  28.358  0.00  0.00    -0.324 OA
ATOM     24  H   UNL     1       6.096  -7.946  27.646  0.00  0.00    +0.220 HD
ENDBRANCH  19  23
ENDBRANCH  18  19
ENDBRANCH   4  18
TORSDOF 11
ENDMDL
MODEL 6
REMARK VINA RESULT:      -5.4      1.376      6.208
REMARK  Name = 
REMARK  11 active torsions:
REMARK  status: ('A' for Active; 'I' for Inactive)
REMARK    1  A    between atoms: O_1  and  C_2
REMARK    2  A    between atoms: C_4  and  O_6
REMARK    3  A    between atoms: C_7  and  C_9
REMARK    4  A    between atoms: C_9  and  P_10
REMARK    5  A    between atoms: P_10  and  O_11
REMARK    6  A    between atoms: P_10  and  O_12
REMARK    7  A    between atoms: C_15  and  C_17
REMARK    8  A    between atoms: C_17  and  O_18
REMARK    9  A    between atoms: O_18  and  P_19
REMARK   10  A    between atoms: P_19  and  O_20
REMARK   11  A    between atoms: P_19  and  O_21
REMARK                            x       y       z     vdW  Elec       q    Type
REMARK                         _______ _______ _______ _____ _____    ______ ____
ROOT
ATOM      1  C   UNL     1       7.983  -1.008  22.926  0.00  0.00    +0.176 C 
ATOM      2  C   UNL     1       8.203  -0.729  24.426  0.00  0.00    +0.176 C 
ATOM      3  O   UNL     1       9.165  -1.680  24.927  0.00  0.00    -0.365 OA
ATOM      4  C   UNL     1       9.560  -2.553  23.847  0.00  0.00    +0.161 C 
ATOM      5  C   UNL     1       9.228  -1.800  22.543  0.00  0.00    +0.175 C 
ENDROOT
BRANCH   1   6
ATOM      6  O   UNL     1       6.837  -1.829  22.680  0.00  0.00    -0.386 OA
ATOM      7  H   UNL     1       6.135  -1.288  22.276  0.00  0.00    +0.210 HD
ENDBRANCH   1   6
BRANCH   5   8
ATOM      8  O   UNL     1      10.278  -0.902  22.190  0.00  0.00    -0.387 OA
ATOM      9  H   UNL     1      10.081  -0.562  21.296  0.00  0.00    +0.210 HD
ENDBRANCH   5   8
BRANCH   2  10
ATOM     10  C   UNL     1       8.721   0.686  24.690  0.00  0.00    +0.206 C 
BRANCH  10  11
ATOM     11  O   UNL     1       8.776   1.388  23.454  0.00  0.00    -0.284 OA
BRANCH  11  12
ATOM     12  P   UNL     1      10.062   2.540  23.353  0.00  0.00    +0.472 P 
ATOM     13  O   UNL     1      11.214   3.571  23.262  0.00  0.00    -0.228 OA
BRANCH  12  14
ATOM     14  O   UNL     1      10.228   2.111  21.786  0.00  0.00    -0.303 OA
ATOM     15  H   UNL     1      10.306   2.955  21.291  0.00  0.00    +0.222 HD
ENDBRANCH  12  14
BRANCH  12  16
ATOM     16  O   UNL     1      10.992   1.347  23.958  0.00  0.00    -0.303 OA
ATOM     17  H   UNL     1      11.918   1.628  23.915  0.00  0.00    +0.222 HD
ENDBRANCH  12  16
ENDBRANCH  11  12
ENDBRANCH  10  11
ENDBRANCH   2  10
BRANCH   4  18
ATOM     18  C   UNL     1       8.754  -3.833  23.987  0.00  0.00    +0.161 C 
BRANCH  18  19
ATOM     19  P   UNL     1       8.649  -4.468  25.699  0.00  0.00    +0.330 P 
ATOM     20  O   UNL     1       8.559  -5.005  27.149  0.00  0.00    -0.259 OA
BRANCH  19  21
ATOM     21  O   UNL     1       9.765  -5.589  25.250  0.00  0.00    -0.324 OA
ATOM     22  H   UNL     1      10.612  -5.131  25.050  0.00  0.00    +0.220 HD
ENDBRANCH  19  21
BRANCH  19  23
ATOM     23  O   UNL     1       7.344  -5.347  25.219  0.00  0.00    -0.324 OA
ATOM     24  H   UNL     1       7.624  -6.282  25.161  0.00  0.00    +0.220 HD
ENDBRANCH  19  23
ENDBRANCH  18  19
ENDBRANCH   4  18
TORSDOF 11
ENDMDL
MODEL 7
REMARK VINA RESULT:      -5.3      2.081      6.082
REMARK  Name = 
REMARK  11 active torsions:
REMARK  status: ('A' for Active; 'I' for Inactive)
REMARK    1  A    between atoms: O_1  and  C_2
REMARK    2  A    between atoms: C_4  and  O_6
REMARK    3  A    between atoms: C_7  and  C_9
REMARK    4  A    between atoms: C_9  and  P_10
REMARK    5  A    between atoms: P_10  and  O_11
REMARK    6  A    between atoms: P_10  and  O_12
REMARK    7  A    between atoms: C_15  and  C_17
REMARK    8  A    between atoms: C_17  and  O_18
REMARK    9  A    between atoms: O_18  and  P_19
REMARK   10  A    between atoms: P_19  and  O_20
REMARK   11  A    between atoms: P_19  and  O_21
REMARK                            x       y       z     vdW  Elec       q    Type
REMARK                         _______ _______ _______ _____ _____    ______ ____
ROOT
ATOM      1  C   UNL     1       7.914  -0.786  22.779  0.00  0.00    +0.176 C 
ATOM      2  C   UNL     1       8.466  -0.907  24.214  0.00  0.00    +0.176 C 
ATOM      3  O   UNL     1       8.832  -2.283  24.442  0.00  0.00    -0.365 OA
ATOM      4  C   UNL     1       8.537  -3.045  23.253  0.00  0.00    +0.161 C 
ATOM      5  C   UNL     1       8.473  -2.029  22.095  0.00  0.00    +0.175 C 
ENDROOT
BRANCH   1   6
ATOM      6  O   UNL     1       6.486  -0.851  22.729  0.00  0.00    -0.386 OA
ATOM      7  H   UNL     1       6.191  -0.751  21.806  0.00  0.00    +0.210 HD
ENDBRANCH   1   6
BRANCH   5   8
ATOM      8  O   UNL     1       9.775  -1.751  21.585  0.00  0.00    -0.387 OA
ATOM      9  H   UNL     1       9.810  -2.097  20.673  0.00  0.00    +0.210 HD
ENDBRANCH   5   8
BRANCH   2  10
ATOM     10  C   UNL     1       9.690  -0.022  24.449  0.00  0.00    +0.206 C 
BRANCH  10  11
ATOM     11  O   UNL     1      10.039   0.608  23.222  0.00  0.00    -0.284 OA
BRANCH  11  12
ATOM     12  P   UNL     1      10.387   2.295  23.368  0.00  0.00    +0.472 P 
ATOM     13  O   UNL     1      10.698   3.808  23.498  0.00  0.00    -0.228 OA
BRANCH  12  14
ATOM     14  O   UNL     1       8.798   2.526  23.666  0.00  0.00    -0.303 OA
ATOM     15  H   UNL     1       8.326   1.994  22.989  0.00  0.00    +0.222 HD
ENDBRANCH  12  14
BRANCH  12  16
ATOM     16  O   UNL     1      10.263   2.320  21.744  0.00  0.00    -0.303 OA
ATOM     17  H   UNL     1      11.146   2.196  21.366  0.00  0.00    +0.222 HD
ENDBRANCH  12  16
ENDBRANCH  11  12
ENDBRANCH  10  11
ENDBRANCH   2  10
BRANCH   4  18
ATOM     18  C   UNL     1       7.203  -3.735  23.480  0.00  0.00    +0.161 C 
BRANCH  18  19
ATOM     19  P   UNL     1       6.511  -4.537  21.989  0.00  0.00    +0.330 P 
ATOM     20  O   UNL     1       5.926  -5.218  20.727  0.00  0.00    -0.259 OA
BRANCH  19  21
ATOM     21  O   UNL     1       5.241  -3.503  22.139  0.00  0.00    -0.324 OA
ATOM     22  H   UNL     1       4.564  -3.916  22.722  0.00  0.00    +0.220 HD
ENDBRANCH  19  21
BRANCH  19  23
ATOM     23  O   UNL     1       5.890  -5.691  22.983  0.00  0.00    -0.324 OA
ATOM     24  H   UNL     1       4.949  -5.808  22.747  0.00  0.00    +0.220 HD
ENDBRANCH  19  23
ENDBRANCH  18  19
ENDBRANCH   4  18
TORSDOF 11
ENDMDL
MODEL 8
REMARK VINA RESULT:      -5.3      2.710      4.399
REMARK  Name = 
REMARK  11 active torsions:
REMARK  status: ('A' for Active; 'I' for Inactive)
REMARK    1  A    between atoms: O_1  and  C_2
REMARK    2  A    between atoms: C_4  and  O_6
REMARK    3  A    between atoms: C_7  and  C_9
REMARK    4  A    between atoms: C_9  and  P_10
REMARK    5  A    between atoms: P_10  and  O_11
REMARK    6  A    between atoms: P_10  and  O_12
REMARK    7  A    between atoms: C_15  and  C_17
REMARK    8  A    between atoms: C_17  and  O_18
REMARK    9  A    between atoms: O_18  and  P_19
REMARK   10  A    between atoms: P_19  and  O_20
REMARK   11  A    between atoms: P_19  and  O_21
REMARK                            x       y       z     vdW  Elec       q    Type
REMARK                         _______ _______ _______ _____ _____    ______ ____
ROOT
ATOM      1  C   UNL     1       8.020  -4.246  25.783  0.00  0.00    +0.176 C 
ATOM      2  C   UNL     1       7.153  -3.930  24.549  0.00  0.00    +0.176 C 
ATOM      3  O   UNL     1       7.990  -3.301  23.558  0.00  0.00    -0.365 OA
ATOM      4  C   UNL     1       9.328  -3.185  24.086  0.00  0.00    +0.161 C 
ATOM      5  C   UNL     1       9.435  -4.228  25.217  0.00  0.00    +0.175 C 
ENDROOT
BRANCH   1   6
ATOM      6  O   UNL     1       7.929  -3.238  26.795  0.00  0.00    -0.386 OA
ATOM      7  H   UNL     1       7.297  -3.524  27.479  0.00  0.00    +0.210 HD
ENDBRANCH   1   6
BRANCH   5   8
ATOM      8  O   UNL     1       9.761  -5.515  24.697  0.00  0.00    -0.387 OA
ATOM      9  H   UNL     1       9.091  -5.734  24.022  0.00  0.00    +0.210 HD
ENDBRANCH   5   8
BRANCH   2  10
ATOM     10  C   UNL     1       6.518  -5.181  23.941  0.00  0.00    +0.206 C 
BRANCH  10  11
ATOM     11  O   UNL     1       7.361  -5.657  22.898  0.00  0.00    -0.284 OA
BRANCH  11  12
ATOM     12  P   UNL     1       6.588  -5.752  21.354  0.00  0.00    +0.472 P 
ATOM     13  O   UNL     1       5.896  -5.837  19.970  0.00  0.00    -0.228 OA
BRANCH  12  14
ATOM     14  O   UNL     1       6.269  -4.157  21.494  0.00  0.00    -0.303 OA
ATOM     15  H   UNL     1       5.323  -4.058  21.249  0.00  0.00    +0.222 HD
ENDBRANCH  12  14
BRANCH  12  16
ATOM     16  O   UNL     1       5.287  -6.262  22.191  0.00  0.00    -0.303 OA
ATOM     17  H   UNL     1       4.906  -7.025  21.731  0.00  0.00    +0.222 HD
ENDBRANCH  12  16
ENDBRANCH  11  12
ENDBRANCH  10  11
ENDBRANCH   2  10
BRANCH   4  18
ATOM     18  C   UNL     1       9.486  -1.766  24.603  0.00  0.00    +0.161 C 
BRANCH  18  19
ATOM     19  P   UNL     1       9.889  -0.538  23.308  0.00  0.00    +0.330 P 
ATOM     20  O   UNL     1      10.231   0.501  22.212  0.00  0.00    -0.259 OA
BRANCH  19  21
ATOM     21  O   UNL     1       8.300  -0.604  22.885  0.00  0.00    -0.324 OA
ATOM     22  H   UNL     1       8.236  -0.671  21.906  0.00  0.00    +0.220 HD
ENDBRANCH  19  21
BRANCH  19  23
ATOM     23  O   UNL     1      10.355  -1.797  22.357  0.00  0.00    -0.324 OA
ATOM     24  H   UNL     1      11.148  -1.513  21.861  0.00  0.00    +0.220 HD
ENDBRANCH  19  23
ENDBRANCH  18  19
ENDBRANCH   4  18
TORSDOF 11
ENDMDL
MODEL 9
REMARK VINA RESULT:      -5.3      2.829      4.204
REMARK  Name = 
REMARK  11 active torsions:
REMARK  status: ('A' for Active; 'I' for Inactive)
REMARK    1  A    between atoms: O_1  and  C_2
REMARK    2  A    between atoms: C_4  and  O_6
REMARK    3  A    between atoms: C_7  and  C_9
REMARK    4  A    between atoms: C_9  and  P_10
REMARK    5  A    between atoms: P_10  and  O_11
REMARK    6  A    between atoms: P_10  and  O_12
REMARK    7  A    between atoms: C_15  and  C_17
REMARK    8  A    between atoms: C_17  and  O_18
REMARK    9  A    between atoms: O_18  and  P_19
REMARK   10  A    between atoms: P_19  and  O_20
REMARK   11  A    between atoms: P_19  and  O_21
REMARK                            x       y       z     vdW  Elec       q    Type
REMARK                         _______ _______ _______ _____ _____    ______ ____
ROOT
ATOM      1  C   UNL     1       8.803  -5.267  25.120  0.00  0.00    +0.176 C 
ATOM      2  C   UNL     1       8.514  -4.252  26.244  0.00  0.00    +0.176 C 
ATOM      3  O   UNL     1       8.315  -2.956  25.641  0.00  0.00    -0.365 OA
ATOM      4  C   UNL     1       8.473  -3.080  24.212  0.00  0.00    +0.161 C 
ATOM      5  C   UNL     1       8.251  -4.570  23.883  0.00  0.00    +0.175 C 
ENDROOT
BRANCH   1   6
ATOM      6  O   UNL     1      10.203  -5.487  24.924  0.00  0.00    -0.386 OA
ATOM      7  H   UNL     1      10.545  -4.837  24.284  0.00  0.00    +0.210 HD
ENDBRANCH   1   6
BRANCH   5   8
ATOM      8  O   UNL     1       6.862  -4.862  23.746  0.00  0.00    -0.387 OA
ATOM      9  H   UNL     1       6.789  -5.699  23.249  0.00  0.00    +0.210 HD
ENDBRANCH   5   8
BRANCH   2  10
ATOM     10  C   UNL     1       7.272  -4.615  27.059  0.00  0.00    +0.206 C 
BRANCH  10  11
ATOM     11  O   UNL     1       6.814  -5.896  26.642  0.00  0.00    -0.284 OA
BRANCH  11  12
ATOM     12  P   UNL     1       5.097  -6.091  26.717  0.00  0.00    +0.472 P 
ATOM     13  O   UNL     1       3.559  -6.265  26.784  0.00  0.00    -0.228 OA
BRANCH  12  14
ATOM     14  O   UNL     1       5.178  -6.758  25.229  0.00  0.00    -0.303 OA
ATOM     15  H   UNL     1       5.580  -6.070  24.656  0.00  0.00    +0.222 HD
ENDBRANCH  12  14
BRANCH  12  16
ATOM     16  O   UNL     1       5.038  -4.544  26.209  0.00  0.00    -0.303 OA
ATOM     17  H   UNL     1       5.865  -4.341  25.748  0.00  0.00    +0.222 HD
ENDBRANCH  12  16
ENDBRANCH  11  12
ENDBRANCH  10  11
ENDBRANCH   2  10
BRANCH   4  18
ATOM     18  C   UNL     1       9.882  -2.625  23.875  0.00  0.00    +0.161 C 
BRANCH  18  19
ATOM     19  P   UNL     1       9.972  -0.961  23.121  0.00  0.00    +0.330 P 
ATOM     20  O   UNL     1      10.049   0.447  22.482  0.00  0.00    -0.259 OA
BRANCH  19  21
ATOM     21  O   UNL     1       8.328  -0.955  23.170  0.00  0.00    -0.324 OA
ATOM     22  H   UNL     1       8.038  -1.094  24.100  0.00  0.00    +0.220 HD
ENDBRANCH  19  21
BRANCH  19  23
ATOM     23  O   UNL     1      10.080  -1.706  21.658  0.00  0.00    -0.324 OA
ATOM     24  H   UNL     1      11.019  -1.937  21.515  0.00  0.00    +0.220 HD
ENDBRANCH  19  23
ENDBRANCH  18  19
ENDBRANCH   4  18
TORSDOF 11
ENDMDL
