MODEL 1
REMARK VINA RESULT:      -5.9      0.000      0.000
REMARK  Name = 
REMARK  9 active torsions:
REMARK  status: ('A' for Active; 'I' for Inactive)
REMARK    1  A    between atoms: C_1  and  C_2
REMARK    2  A    between atoms: C_2  and  N_3
REMARK    3  A    between atoms: N_3  and  C_4
REMARK    4  A    between atoms: N_7  and  C_8
REMARK    5  A    between atoms: C_8  and  C_9
REMARK    6  A    between atoms: C_9  and  O_10
REMARK    7  A    between atoms: O_10  and  C_11
REMARK    8  A    between atoms: C_18  and  S_20
REMARK    9  A    between atoms: S_20  and  N_21
REMARK                            x       y       z     vdW  Elec       q    Type
REMARK                         _______ _______ _______ _____ _____    ______ ____
ROOT
ATOM      1  C   UNL     1       6.412  -2.817  22.830  0.00  0.00    +0.102 C 
ATOM      2  C   UNL     1       6.743  -3.350  24.225  0.00  0.00    +0.006 A 
ATOM      3  C   UNL     1       5.876  -4.061  25.119  0.00  0.00    +0.043 A 
ATOM      4  C   UNL     1       6.516  -4.482  26.269  0.00  0.00    +0.144 A 
ATOM      5  S   UNL     1       8.100  -3.848  26.374  0.00  0.00    -0.048 S 
ATOM      6  C   UNL     1       7.933  -3.077  24.877  0.00  0.00    +0.149 A 
ATOM      7  S   UNL     1       9.196  -1.979  24.320  0.00  0.00    +0.068 S 
ATOM      8  O   UNL     1       9.577  -1.157  25.442  0.00  0.00    -0.152 OA
ATOM      9  O   UNL     1      10.128  -2.806  23.588  0.00  0.00    -0.152 OA
ATOM     10  N   UNL     1       8.285  -1.087  23.224  0.00  0.00    -0.172 NA
ATOM     11  C   UNL     1       7.526  -1.858  22.215  0.00  0.00    +0.133 C 
ENDROOT
BRANCH   4  12
ATOM     12  S   UNL     1       5.989  -5.542  27.590  0.00  0.00    +0.062 S 
ATOM     13  O   UNL     1       4.967  -4.787  28.275  0.00  0.00    -0.153 OA
ATOM     14  O   UNL     1       7.192  -6.017  28.223  0.00  0.00    -0.153 OA
BRANCH  12  15
ATOM     15  N   UNL     1       5.221  -6.851  26.869  0.00  0.00    -0.203 NA
ATOM     16  H   UNL     1       5.766  -7.236  26.098  0.00  0.00    +0.144 HD
ATOM     17  H   UNL     1       4.921  -7.537  27.560  0.00  0.00    +0.144 HD
ENDBRANCH  12  15
ENDBRANCH   4  12
BRANCH   1  18
ATOM     18  N   UNL     1       6.215  -3.940  21.875  0.00  0.00    -0.308 NA
ATOM     19  H   UNL     1       5.326  -4.395  22.085  0.00  0.00    +0.123 HD
BRANCH  18  21
ATOM     20  C   UNL     1       6.689  -6.369  21.862  0.00  0.00    +0.020 C 
ATOM     21  C   UNL     1       7.263  -4.959  21.867  0.00  0.00    +0.078 C 
ENDBRANCH  18  21
ENDBRANCH   1  18
BRANCH  10  22
ATOM     22  C   UNL     1       8.526   0.348  23.051  0.00  0.00    +0.137 C 
BRANCH  22  23
ATOM     23  C   UNL     1       9.212   0.621  21.707  0.00  0.00    +0.176 C 
BRANCH  23  24
ATOM     24  O   UNL     1      10.192   1.653  21.859  0.00  0.00    -0.382 OA
ATOM     25  C   UNL     1      10.204   2.184  23.176  0.00  0.00    +0.194 C 
ENDBRANCH  23  24
ENDBRANCH  22  23
ENDBRANCH  10  22
TORSDOF 7
ENDMDL
MODEL 2
REMARK VINA RESULT:      -5.9      3.083      4.546
REMARK  Name = 
REMARK  9 active torsions:
REMARK  status: ('A' for Active; 'I' for Inactive)
REMARK    1  A    between atoms: C_1  and  C_2
REMARK    2  A    between atoms: C_2  and  N_3
REMARK    3  A    between atoms: N_3  and  C_4
REMARK    4  A    between atoms: N_7  and  C_8
REMARK    5  A    between atoms: C_8  and  C_9
REMARK    6  A    between atoms: C_9  and  O_10
REMARK    7  A    between atoms: O_10  and  C_11
REMARK    8  A    between atoms: C_18  and  S_20
REMARK    9  A    between atoms: S_20  and  N_21
REMARK                            x       y       z     vdW  Elec       q    Type
REMARK                         _______ _______ _______ _____ _____    ______ ____
ROOT
ATOM      1  C   UNL     1       9.027   0.292  25.632  0.00  0.00    +0.102 C 
ATOM      2  C   UNL     1       8.797  -1.022  24.884  0.00  0.00    +0.006 A 
ATOM      3  C   UNL     1       8.972  -2.356  25.382  0.00  0.00    +0.043 A 
ATOM      4  C   UNL     1       8.588  -3.325  24.475  0.00  0.00    +0.144 A 
ATOM      5  S   UNL     1       8.214  -2.645  22.951  0.00  0.00    -0.048 S 
ATOM      6  C   UNL     1       8.510  -1.083  23.532  0.00  0.00    +0.149 A 
ATOM      7  S   UNL     1       8.503   0.276  22.408  0.00  0.00    +0.068 S 
ATOM      8  O   UNL     1       9.229  -0.135  21.230  0.00  0.00    -0.152 OA
ATOM      9  O   UNL     1       7.136   0.741  22.376  0.00  0.00    -0.152 OA
ATOM     10  N   UNL     1       9.422   1.353  23.314  0.00  0.00    -0.172 NA
ATOM     11  C   UNL     1       8.981   1.588  24.706  0.00  0.00    +0.133 C 
ENDROOT
BRANCH   4  12
ATOM     12  S   UNL     1       8.412  -5.083  24.632  0.00  0.00    +0.062 S 
ATOM     13  O   UNL     1       8.253  -5.554  23.276  0.00  0.00    -0.153 OA
ATOM     14  O   UNL     1       7.436  -5.294  25.670  0.00  0.00    -0.153 OA
BRANCH  12  15
ATOM     15  N   UNL     1       9.893  -5.661  25.175  0.00  0.00    -0.203 NA
ATOM     16  H   UNL     1       9.791  -6.511  25.728  0.00  0.00    +0.144 HD
ATOM     17  H   UNL     1      10.571  -5.726  24.418  0.00  0.00    +0.144 HD
ENDBRANCH  12  15
ENDBRANCH   4  12
BRANCH   1  18
ATOM     18  N   UNL     1       8.008   0.470  26.700  0.00  0.00    -0.308 NA
ATOM     19  H   UNL     1       7.641  -0.447  26.959  0.00  0.00    +0.123 HD
BRANCH  18  21
ATOM     20  C   UNL     1       5.654   0.544  25.940  0.00  0.00    +0.020 C 
ATOM     21  C   UNL     1       6.880   1.338  26.365  0.00  0.00    +0.078 C 
ENDBRANCH  18  21
ENDBRANCH   1  18
BRANCH  10  22
ATOM     22  C   UNL     1      10.360   2.268  22.657  0.00  0.00    +0.137 C 
BRANCH  22  23
ATOM     23  C   UNL     1      10.567   3.528  23.506  0.00  0.00    +0.176 C 
BRANCH  23  24
ATOM     24  O   UNL     1      11.920   3.979  23.389  0.00  0.00    -0.382 OA
ATOM     25  C   UNL     1      12.016   5.394  23.456  0.00  0.00    +0.194 C 
ENDBRANCH  23  24
ENDBRANCH  22  23
ENDBRANCH  10  22
TORSDOF 7
ENDMDL
MODEL 3
REMARK VINA RESULT:      -5.7      2.792      6.581
REMARK  Name = 
REMARK  9 active torsions:
REMARK  status: ('A' for Active; 'I' for Inactive)
REMARK    1  A    between atoms: C_1  and  C_2
REMARK    2  A    between atoms: C_2  and  N_3
REMARK    3  A    between atoms: N_3  and  C_4
REMARK    4  A    between atoms: N_7  and  C_8
REMARK    5  A    between atoms: C_8  and  C_9
REMARK    6  A    between atoms: C_9  and  O_10
REMARK    7  A    between atoms: O_10  and  C_11
REMARK    8  A    between atoms: C_18  and  S_20
REMARK    9  A    between atoms: S_20  and  N_21
REMARK                            x       y       z     vdW  Elec       q    Type
REMARK                         _______ _______ _______ _____ _____    ______ ____
ROOT
ATOM      1  C   UNL     1       5.833  -1.534  24.416  0.00  0.00    +0.102 C 
ATOM      2  C   UNL     1       7.210  -0.895  24.228  0.00  0.00    +0.006 A 
ATOM      3  C   UNL     1       7.512   0.374  23.630  0.00  0.00    +0.043 A 
ATOM      4  C   UNL     1       8.854   0.696  23.699  0.00  0.00    +0.144 A 
ATOM      5  S   UNL     1       9.783  -0.610  24.291  0.00  0.00    -0.048 S 
ATOM      6  C   UNL     1       8.395  -1.555  24.499  0.00  0.00    +0.149 A 
ATOM      7  S   UNL     1       8.560  -3.251  24.954  0.00  0.00    +0.068 S 
ATOM      8  O   UNL     1       9.621  -3.811  24.153  0.00  0.00    -0.152 OA
ATOM      9  O   UNL     1       8.566  -3.263  26.399  0.00  0.00    -0.152 OA
ATOM     10  N   UNL     1       7.066  -3.801  24.413  0.00  0.00    -0.172 NA
ATOM     11  C   UNL     1       5.878  -3.056  24.886  0.00  0.00    +0.133 C 
ENDROOT
BRANCH   4  12
ATOM     12  S   UNL     1       9.729   2.188  23.304  0.00  0.00    +0.062 S 
ATOM     13  O   UNL     1      11.000   2.051  23.976  0.00  0.00    -0.153 OA
ATOM     14  O   UNL     1       8.807   3.267  23.550  0.00  0.00    -0.153 OA
BRANCH  12  15
ATOM     15  N   UNL     1      10.044   2.130  21.655  0.00  0.00    -0.203 NA
ATOM     16  H   UNL     1       9.946   3.044  21.216  0.00  0.00    +0.144 HD
ATOM     17  H   UNL     1      10.924   1.657  21.457  0.00  0.00    +0.144 HD
ENDBRANCH  12  15
ENDBRANCH   4  12
BRANCH   1  18
ATOM     18  N   UNL     1       5.041  -0.780  25.424  0.00  0.00    -0.308 NA
ATOM     19  H   UNL     1       5.118   0.217  25.221  0.00  0.00    +0.123 HD
BRANCH  18  21
ATOM     20  C   UNL     1       5.835   0.299  27.505  0.00  0.00    +0.020 C 
ATOM     21  C   UNL     1       5.419  -0.995  26.820  0.00  0.00    +0.078 C 
ENDBRANCH  18  21
ENDBRANCH   1  18
BRANCH  10  22
ATOM     22  C   UNL     1       6.933  -5.136  23.825  0.00  0.00    +0.137 C 
BRANCH  22  23
ATOM     23  C   UNL     1       5.495  -5.374  23.349  0.00  0.00    +0.176 C 
BRANCH  23  24
ATOM     24  O   UNL     1       5.357  -4.968  21.984  0.00  0.00    -0.382 OA
ATOM     25  C   UNL     1       6.231  -5.687  21.125  0.00  0.00    +0.194 C 
ENDBRANCH  23  24
ENDBRANCH  22  23
ENDBRANCH  10  22
TORSDOF 7
ENDMDL
MODEL 4
REMARK VINA RESULT:      -5.7      1.641      1.834
REMARK  Name = 
REMARK  9 active torsions:
REMARK  status: ('A' for Active; 'I' for Inactive)
REMARK    1  A    between atoms: C_1  and  C_2
REMARK    2  A    between atoms: C_2  and  N_3
REMARK    3  A    between atoms: N_3  and  C_4
REMARK    4  A    between atoms: N_7  and  C_8
REMARK    5  A    between atoms: C_8  and  C_9
REMARK    6  A    between atoms: C_9  and  O_10
REMARK    7  A    between atoms: O_10  and  C_11
REMARK    8  A    between atoms: C_18  and  S_20
REMARK    9  A    between atoms: S_20  and  N_21
REMARK                            x       y       z     vdW  Elec       q    Type
REMARK                         _______ _______ _______ _____ _____    ______ ____
ROOT
ATOM      1  C   UNL     1       5.434  -3.529  23.244  0.00  0.00    +0.102 C 
ATOM      2  C   UNL     1       5.598  -4.137  24.638  0.00  0.00    +0.006 A 
ATOM      3  C   UNL     1       4.577  -4.699  25.474  0.00  0.00    +0.043 A 
ATOM      4  C   UNL     1       5.076  -5.248  26.640  0.00  0.00    +0.144 A 
ATOM      5  S   UNL     1       6.740  -4.907  26.831  0.00  0.00    -0.048 S 
ATOM      6  C   UNL     1       6.784  -4.092  25.349  0.00  0.00    +0.149 A 
ATOM      7  S   UNL     1       8.247  -3.226  24.878  0.00  0.00    +0.068 S 
ATOM      8  O   UNL     1       8.712  -2.505  26.037  0.00  0.00    -0.152 OA
ATOM      9  O   UNL     1       9.053  -4.191  24.167  0.00  0.00    -0.152 OA
ATOM     10  N   UNL     1       7.562  -2.167  23.767  0.00  0.00    -0.172 NA
ATOM     11  C   UNL     1       6.728  -2.772  22.705  0.00  0.00    +0.133 C 
ENDROOT
BRANCH   4  12
ATOM     12  S   UNL     1       4.307  -6.222  27.908  0.00  0.00    +0.062 S 
ATOM     13  O   UNL     1       3.181  -6.844  27.253  0.00  0.00    -0.153 OA
ATOM     14  O   UNL     1       4.189  -5.359  29.055  0.00  0.00    -0.153 OA
BRANCH  12  15
ATOM     15  N   UNL     1       5.389  -7.451  28.283  0.00  0.00    -0.203 NA
ATOM     16  H   UNL     1       5.771  -7.349  29.222  0.00  0.00    +0.144 HD
ATOM     17  H   UNL     1       4.998  -8.370  28.081  0.00  0.00    +0.144 HD
ENDBRANCH  12  15
ENDBRANCH   4  12
BRANCH   1  18
ATOM     18  N   UNL     1       5.088  -4.582  22.253  0.00  0.00    -0.308 NA
ATOM     19  H   UNL     1       4.705  -5.387  22.750  0.00  0.00    +0.123 HD
BRANCH  18  21
ATOM     20  C   UNL     1       6.841  -6.304  21.956  0.00  0.00    +0.020 C 
ATOM     21  C   UNL     1       6.186  -5.045  21.406  0.00  0.00    +0.078 C 
ENDBRANCH  18  21
ENDBRANCH   1  18
BRANCH  10  22
ATOM     22  C   UNL     1       8.060  -0.794  23.643  0.00  0.00    +0.137 C 
BRANCH  22  23
ATOM     23  C   UNL     1       9.400  -0.773  22.899  0.00  0.00    +0.176 C 
BRANCH  23  24
ATOM     24  O   UNL     1      10.460  -0.466  23.809  0.00  0.00    -0.382 OA
ATOM     25  C   UNL     1      10.069   0.501  24.773  0.00  0.00    +0.194 C 
ENDBRANCH  23  24
ENDBRANCH  22  23
ENDBRANCH  10  22
TORSDOF 7
ENDMDL
MODEL 5
REMARK VINA RESULT:      -5.7      2.533      6.552
REMARK  Name = 
REMARK  9 active torsions:
REMARK  status: ('A' for Active; 'I' for Inactive)
REMARK    1  A    between atoms: C_1  and  C_2
REMARK    2  A    between atoms: C_2  and  N_3
REMARK    3  A    between atoms: N_3  and  C_4
REMARK    4  A    between atoms: N_7  and  C_8
REMARK    5  A    between atoms: C_8  and  C_9
REMARK    6  A    between atoms: C_9  and  O_10
REMARK    7  A    between atoms: O_10  and  C_11
REMARK    8  A    between atoms: C_18  and  S_20
REMARK    9  A    between atoms: S_20  and  N_21
REMARK                            x       y       z     vdW  Elec       q    Type
REMARK                         _______ _______ _______ _____ _____    ______ ____
ROOT
ATOM      1  C   UNL     1       7.970  -3.135  23.731  0.00  0.00    +0.102 C 
ATOM      2  C   UNL     1       8.067  -1.625  23.956  0.00  0.00    +0.006 A 
ATOM      3  C   UNL     1       9.071  -0.728  23.460  0.00  0.00    +0.043 A 
ATOM      4  C   UNL     1       8.814   0.593  23.771  0.00  0.00    +0.144 A 
ATOM      5  S   UNL     1       7.484   0.740  24.834  0.00  0.00    -0.048 S 
ATOM      6  C   UNL     1       7.236  -0.934  24.819  0.00  0.00    +0.149 A 
ATOM      7  S   UNL     1       6.044  -1.644  25.907  0.00  0.00    +0.068 S 
ATOM      8  O   UNL     1       6.209  -1.017  27.196  0.00  0.00    -0.152 OA
ATOM      9  O   UNL     1       4.800  -1.635  25.173  0.00  0.00    -0.152 OA
ATOM     10  N   UNL     1       6.643  -3.215  25.942  0.00  0.00    -0.172 NA
ATOM     11  C   UNL     1       6.874  -3.861  24.631  0.00  0.00    +0.133 C 
ENDROOT
BRANCH   4  12
ATOM     12  S   UNL     1       9.597   2.099  23.255  0.00  0.00    +0.062 S 
ATOM     13  O   UNL     1      10.897   2.065  23.883  0.00  0.00    -0.153 OA
ATOM     14  O   UNL     1       8.631   3.145  23.472  0.00  0.00    -0.153 OA
BRANCH  12  15
ATOM     15  N   UNL     1       9.855   1.956  21.601  0.00  0.00    -0.203 NA
ATOM     16  H   UNL     1       9.041   1.576  21.119  0.00  0.00    +0.144 HD
ATOM     17  H   UNL     1      10.219   2.820  21.202  0.00  0.00    +0.144 HD
ENDBRANCH  12  15
ENDBRANCH   4  12
BRANCH   1  18
ATOM     18  N   UNL     1       7.647  -3.431  22.310  0.00  0.00    -0.308 NA
ATOM     19  H   UNL     1       7.537  -2.549  21.809  0.00  0.00    +0.123 HD
BRANCH  18  21
ATOM     20  C   UNL     1       6.773  -5.552  21.383  0.00  0.00    +0.020 C 
ATOM     21  C   UNL     1       6.451  -4.241  22.085  0.00  0.00    +0.078 C 
ENDBRANCH  18  21
ENDBRANCH   1  18
BRANCH  10  22
ATOM     22  C   UNL     1       6.582  -4.008  27.173  0.00  0.00    +0.137 C 
BRANCH  22  23
ATOM     23  C   UNL     1       7.476  -5.248  27.059  0.00  0.00    +0.176 C 
BRANCH  23  24
ATOM     24  O   UNL     1       7.241  -6.124  28.165  0.00  0.00    -0.382 OA
ATOM     25  C   UNL     1       5.917  -6.005  28.664  0.00  0.00    +0.194 C 
ENDBRANCH  23  24
ENDBRANCH  22  23
ENDBRANCH  10  22
TORSDOF 7
ENDMDL
MODEL 6
REMARK VINA RESULT:      -5.6      2.895      3.458
REMARK  Name = 
REMARK  9 active torsions:
REMARK  status: ('A' for Active; 'I' for Inactive)
REMARK    1  A    between atoms: C_1  and  C_2
REMARK    2  A    between atoms: C_2  and  N_3
REMARK    3  A    between atoms: N_3  and  C_4
REMARK    4  A    between atoms: N_7  and  C_8
REMARK    5  A    between atoms: C_8  and  C_9
REMARK    6  A    between atoms: C_9  and  O_10
REMARK    7  A    between atoms: O_10  and  C_11
REMARK    8  A    between atoms: C_18  and  S_20
REMARK    9  A    between atoms: S_20  and  N_21
REMARK                            x       y       z     vdW  Elec       q    Type
REMARK                         _______ _______ _______ _____ _____    ______ ____
ROOT
ATOM      1  C   UNL     1       8.014  -4.098  23.514  0.00  0.00    +0.102 C 
ATOM      2  C   UNL     1       6.525  -4.182  23.857  0.00  0.00    +0.006 A 
ATOM      3  C   UNL     1       5.587  -5.185  23.444  0.00  0.00    +0.043 A 
ATOM      4  C   UNL     1       4.335  -5.016  24.006  0.00  0.00    +0.144 A 
ATOM      5  S   UNL     1       4.226  -3.541  24.862  0.00  0.00    -0.048 S 
ATOM      6  C   UNL     1       5.845  -3.180  24.525  0.00  0.00    +0.149 A 
ATOM      7  S   UNL     1       6.491  -1.598  24.964  0.00  0.00    +0.068 S 
ATOM      8  O   UNL     1       5.507  -0.612  24.591  0.00  0.00    -0.152 OA
ATOM      9  O   UNL     1       6.992  -1.749  26.311  0.00  0.00    -0.152 OA
ATOM     10  N   UNL     1       7.792  -1.557  23.901  0.00  0.00    -0.172 NA
ATOM     11  C   UNL     1       8.703  -2.722  23.928  0.00  0.00    +0.133 C 
ENDROOT
BRANCH   4  12
ATOM     12  S   UNL     1       2.891  -6.046  23.997  0.00  0.00    +0.062 S 
ATOM     13  O   UNL     1       2.251  -5.761  22.735  0.00  0.00    -0.153 OA
ATOM     14  O   UNL     1       2.257  -5.854  25.276  0.00  0.00    -0.153 OA
BRANCH  12  15
ATOM     15  N   UNL     1       3.440  -7.632  23.915  0.00  0.00    -0.203 NA
ATOM     16  H   UNL     1       4.455  -7.680  23.836  0.00  0.00    +0.144 HD
ATOM     17  H   UNL     1       3.044  -8.205  24.658  0.00  0.00    +0.144 HD
ENDBRANCH  12  15
ENDBRANCH   4  12
BRANCH   1  18
ATOM     18  N   UNL     1       8.766  -5.193  24.183  0.00  0.00    -0.308 NA
ATOM     19  H   UNL     1       8.135  -5.981  24.330  0.00  0.00    +0.123 HD
BRANCH  18  21
ATOM     20  C   UNL     1       8.448  -5.119  26.636  0.00  0.00    +0.020 C 
ATOM     21  C   UNL     1       9.382  -4.851  25.464  0.00  0.00    +0.078 C 
ENDBRANCH  18  21
ENDBRANCH   1  18
BRANCH  10  22
ATOM     22  C   UNL     1       8.198  -0.298  23.271  0.00  0.00    +0.137 C 
BRANCH  22  23
ATOM     23  C   UNL     1       9.204  -0.560  22.143  0.00  0.00    +0.176 C 
BRANCH  23  24
ATOM     24  O   UNL     1       9.355   0.614  21.339  0.00  0.00    -0.382 OA
ATOM     25  C   UNL     1       9.990   1.666  22.051  0.00  0.00    +0.194 C 
ENDBRANCH  23  24
ENDBRANCH  22  23
ENDBRANCH  10  22
TORSDOF 7
ENDMDL
MODEL 7
REMARK VINA RESULT:      -5.6      3.274      4.181
REMARK  Name = 
REMARK  9 active torsions:
REMARK  status: ('A' for Active; 'I' for Inactive)
REMARK    1  A    between atoms: C_1  and  C_2
REMARK    2  A    between atoms: C_2  and  N_3
REMARK    3  A    between atoms: N_3  and  C_4
REMARK    4  A    between atoms: N_7  and  C_8
REMARK    5  A    between atoms: C_8  and  C_9
REMARK    6  A    between atoms: C_9  and  O_10
REMARK    7  A    between atoms: O_10  and  C_11
REMARK    8  A    between atoms: C_18  and  S_20
REMARK    9  A    between atoms: S_20  and  N_21
REMARK                            x       y       z     vdW  Elec       q    Type
REMARK                         _______ _______ _______ _____ _____    ______ ____
ROOT
ATOM      1  C   UNL     1       8.766  -2.426  25.307  0.00  0.00    +0.102 C 
ATOM      2  C   UNL     1       7.817  -2.856  24.188  0.00  0.00    +0.006 A 
ATOM      3  C   UNL     1       7.759  -4.130  23.529  0.00  0.00    +0.043 A 
ATOM      4  C   UNL     1       6.721  -4.222  22.622  0.00  0.00    +0.144 A 
ATOM      5  S   UNL     1       5.943  -2.715  22.405  0.00  0.00    -0.048 S 
ATOM      6  C   UNL     1       6.951  -1.985  23.552  0.00  0.00    +0.149 A 
ATOM      7  S   UNL     1       6.876  -0.238  23.786  0.00  0.00    +0.068 S 
ATOM      8  O   UNL     1       6.820   0.370  22.479  0.00  0.00    -0.152 OA
ATOM      9  O   UNL     1       5.870  -0.030  24.802  0.00  0.00    -0.152 OA
ATOM     10  N   UNL     1       8.394  -0.013  24.471  0.00  0.00    -0.172 NA
ATOM     11  C   UNL     1       8.727  -0.866  25.633  0.00  0.00    +0.133 C 
ENDROOT
BRANCH   4  12
ATOM     12  S   UNL     1       6.082  -5.594  21.698  0.00  0.00    +0.062 S 
ATOM     13  O   UNL     1       6.954  -6.694  22.033  0.00  0.00    -0.153 OA
ATOM     14  O   UNL     1       5.883  -5.111  20.355  0.00  0.00    -0.153 OA
BRANCH  12  15
ATOM     15  N   UNL     1       4.578  -5.949  22.358  0.00  0.00    -0.203 NA
ATOM     16  H   UNL     1       4.593  -6.813  22.898  0.00  0.00    +0.144 HD
ATOM     17  H   UNL     1       4.184  -5.148  22.848  0.00  0.00    +0.144 HD
ENDBRANCH  12  15
ENDBRANCH   4  12
BRANCH   1  18
ATOM     18  N   UNL     1       8.453  -3.153  26.566  0.00  0.00    -0.308 NA
ATOM     19  H   UNL     1       8.924  -2.685  27.340  0.00  0.00    +0.123 HD
BRANCH  18  21
ATOM     20  C   UNL     1       7.647  -5.455  26.981  0.00  0.00    +0.020 C 
ATOM     21  C   UNL     1       8.820  -4.568  26.591  0.00  0.00    +0.078 C 
ENDBRANCH  18  21
ENDBRANCH   1  18
BRANCH  10  22
ATOM     22  C   UNL     1       9.174   1.192  24.174  0.00  0.00    +0.137 C 
BRANCH  22  23
ATOM     23  C   UNL     1      10.093   0.955  22.969  0.00  0.00    +0.176 C 
BRANCH  23  24
ATOM     24  O   UNL     1      10.532   2.208  22.436  0.00  0.00    -0.382 OA
ATOM     25  C   UNL     1      10.504   3.240  23.411  0.00  0.00    +0.194 C 
ENDBRANCH  23  24
ENDBRANCH  22  23
ENDBRANCH  10  22
TORSDOF 7
ENDMDL
MODEL 8
REMARK VINA RESULT:      -5.6      3.140      6.624
REMARK  Name = 
REMARK  9 active torsions:
REMARK  status: ('A' for Active; 'I' for Inactive)
REMARK    1  A    between atoms: C_1  and  C_2
REMARK    2  A    between atoms: C_2  and  N_3
REMARK    3  A    between atoms: N_3  and  C_4
REMARK    4  A    between atoms: N_7  and  C_8
REMARK    5  A    between atoms: C_8  and  C_9
REMARK    6  A    between atoms: C_9  and  O_10
REMARK    7  A    between atoms: O_10  and  C_11
REMARK    8  A    between atoms: C_18  and  S_20
REMARK    9  A    between atoms: S_20  and  N_21
REMARK                            x       y       z     vdW  Elec       q    Type
REMARK                         _______ _______ _______ _____ _____    ______ ____
ROOT
ATOM      1  C   UNL     1       6.849  -3.246  25.707  0.00  0.00    +0.102 C 
ATOM      2  C   UNL     1       7.523  -2.414  24.615  0.00  0.00    +0.006 A 
ATOM      3  C   UNL     1       8.216  -1.166  24.767  0.00  0.00    +0.043 A 
ATOM      4  C   UNL     1       8.789  -0.722  23.591  0.00  0.00    +0.144 A 
ATOM      5  S   UNL     1       8.324  -1.691  22.261  0.00  0.00    -0.048 S 
ATOM      6  C   UNL     1       7.422  -2.709  23.267  0.00  0.00    +0.149 A 
ATOM      7  S   UNL     1       6.412  -3.964  22.550  0.00  0.00    +0.068 S 
ATOM      8  O   UNL     1       5.724  -3.375  21.427  0.00  0.00    -0.152 OA
ATOM      9  O   UNL     1       7.263  -5.126  22.439  0.00  0.00    -0.152 OA
ATOM     10  N   UNL     1       5.348  -4.191  23.832  0.00  0.00    -0.172 NA
ATOM     11  C   UNL     1       5.957  -4.447  25.156  0.00  0.00    +0.133 C 
ENDROOT
BRANCH   4  12
ATOM     12  S   UNL     1       9.897   0.622  23.254  0.00  0.00    +0.062 S 
ATOM     13  O   UNL     1      10.002   0.653  21.814  0.00  0.00    -0.153 OA
ATOM     14  O   UNL     1      11.022   0.440  24.134  0.00  0.00    -0.153 OA
BRANCH  12  15
ATOM     15  N   UNL     1       9.092   2.024  23.711  0.00  0.00    -0.203 NA
ATOM     16  H   UNL     1       8.131   1.837  23.994  0.00  0.00    +0.144 HD
ATOM     17  H   UNL     1       9.634   2.567  24.381  0.00  0.00    +0.144 HD
ENDBRANCH  12  15
ENDBRANCH   4  12
BRANCH   1  18
ATOM     18  N   UNL     1       7.866  -3.830  26.621  0.00  0.00    -0.308 NA
ATOM     19  H   UNL     1       8.663  -3.194  26.672  0.00  0.00    +0.123 HD
BRANCH  18  21
ATOM     20  C   UNL     1       9.683  -5.093  25.514  0.00  0.00    +0.020 C 
ATOM     21  C   UNL     1       8.359  -5.158  26.260  0.00  0.00    +0.078 C 
ENDBRANCH  18  21
ENDBRANCH   1  18
BRANCH  10  22
ATOM     22  C   UNL     1       3.934  -4.485  23.584  0.00  0.00    +0.137 C 
BRANCH  22  23
ATOM     23  C   UNL     1       3.761  -5.932  23.107  0.00  0.00    +0.176 C 
BRANCH  23  24
ATOM     24  O   UNL     1       2.434  -6.126  22.607  0.00  0.00    -0.382 OA
ATOM     25  C   UNL     1       1.491  -5.296  23.268  0.00  0.00    +0.194 C 
ENDBRANCH  23  24
ENDBRANCH  22  23
ENDBRANCH  10  22
TORSDOF 7
ENDMDL
MODEL 9
REMARK VINA RESULT:      -5.5      2.227      5.935
REMARK  Name = 
REMARK  9 active torsions:
REMARK  status: ('A' for Active; 'I' for Inactive)
REMARK    1  A    between atoms: C_1  and  C_2
REMARK    2  A    between atoms: C_2  and  N_3
REMARK    3  A    between atoms: N_3  and  C_4
REMARK    4  A    between atoms: N_7  and  C_8
REMARK    5  A    between atoms: C_8  and  C_9
REMARK    6  A    between atoms: C_9  and  O_10
REMARK    7  A    between atoms: O_10  and  C_11
REMARK    8  A    between atoms: C_18  and  S_20
REMARK    9  A    between atoms: S_20  and  N_21
REMARK                            x       y       z     vdW  Elec       q    Type
REMARK                         _______ _______ _______ _____ _____    ______ ____
ROOT
ATOM      1  C   UNL     1       6.014  -4.524  23.549  0.00  0.00    +0.102 C 
ATOM      2  C   UNL     1       6.880  -3.276  23.731  0.00  0.00    +0.006 A 
ATOM      3  C   UNL     1       8.116  -2.964  23.073  0.00  0.00    +0.043 A 
ATOM      4  C   UNL     1       8.597  -1.709  23.397  0.00  0.00    +0.144 A 
ATOM      5  S   UNL     1       7.680  -0.989  24.647  0.00  0.00    -0.048 S 
ATOM      6  C   UNL     1       6.633  -2.318  24.698  0.00  0.00    +0.149 A 
ATOM      7  S   UNL     1       5.411  -2.412  25.967  0.00  0.00    +0.068 S 
ATOM      8  O   UNL     1       6.045  -2.027  27.205  0.00  0.00    -0.152 OA
ATOM      9  O   UNL     1       4.248  -1.744  25.430  0.00  0.00    -0.152 OA
ATOM     10  N   UNL     1       5.147  -4.071  25.936  0.00  0.00    -0.172 NA
ATOM     11  C   UNL     1       4.840  -4.667  24.617  0.00  0.00    +0.133 C 
ENDROOT
BRANCH   4  12
ATOM     12  S   UNL     1       9.944  -0.759  22.743  0.00  0.00    +0.062 S 
ATOM     13  O   UNL     1      10.850  -1.742  22.197  0.00  0.00    -0.153 OA
ATOM     14  O   UNL     1      10.308   0.178  23.774  0.00  0.00    -0.153 OA
BRANCH  12  15
ATOM     15  N   UNL     1       9.326   0.105  21.441  0.00  0.00    -0.203 NA
ATOM     16  H   UNL     1       9.430   1.111  21.567  0.00  0.00    +0.144 HD
ATOM     17  H   UNL     1       9.679  -0.250  20.553  0.00  0.00    +0.144 HD
ENDBRANCH  12  15
ENDBRANCH   4  12
BRANCH   1  18
ATOM     18  N   UNL     1       5.391  -4.534  22.198  0.00  0.00    -0.308 NA
ATOM     19  H   UNL     1       4.422  -4.839  22.288  0.00  0.00    +0.123 HD
BRANCH  18  21
ATOM     20  C   UNL     1       7.034  -6.349  21.835  0.00  0.00    +0.020 C 
ATOM     21  C   UNL     1       6.049  -5.377  21.201  0.00  0.00    +0.078 C 
ENDBRANCH  18  21
ENDBRANCH   1  18
BRANCH  10  22
ATOM     22  C   UNL     1       4.873  -4.804  27.176  0.00  0.00    +0.137 C 
BRANCH  22  23
ATOM     23  C   UNL     1       6.179  -5.296  27.811  0.00  0.00    +0.176 C 
BRANCH  23  24
ATOM     24  O   UNL     1       7.042  -5.832  26.803  0.00  0.00    -0.382 OA
ATOM     25  C   UNL     1       8.267  -5.120  26.720  0.00  0.00    +0.194 C 
ENDBRANCH  23  24
ENDBRANCH  22  23
ENDBRANCH  10  22
TORSDOF 7
ENDMDL
