MODEL 1
REMARK VINA RESULT:      -6.7      0.000      0.000
REMARK  Name = 
REMARK  9 active torsions:
REMARK  status: ('A' for Active; 'I' for Inactive)
REMARK    1  A    between atoms: C_1  and  C_2
REMARK    2  A    between atoms: C_2  and  C_4
REMARK    3  A    between atoms: N_15  and  C_16
REMARK    4  A    between atoms: C_16  and  C_17
REMARK    5  A    between atoms: C_17  and  C_18
REMARK    6  A    between atoms: C_18  and  N_19
REMARK    7  A    between atoms: N_22  and  C_23
REMARK    8  A    between atoms: C_23  and  C_24
REMARK    9  A    between atoms: C_24  and  O_25
REMARK                            x       y       z     vdW  Elec       q    Type
REMARK                         _______ _______ _______ _____ _____    ______ ____
ROOT
ATOM      1  C   UNL     1       5.301  -5.582  22.963  0.00  0.00    +0.019 A 
ATOM      2  C   UNL     1       5.938  -5.551  24.219  0.00  0.00    +0.036 A 
ATOM      3  C   UNL     1       5.259  -5.805  25.437  0.00  0.00    +0.049 A 
ATOM      4  C   UNL     1       3.884  -6.078  25.320  0.00  0.00    +0.034 A 
ATOM      5  S   UNL     1       2.810  -6.418  26.686  0.00  0.00    -0.086 S 
ATOM      6  C   UNL     1       3.923  -6.377  28.063  0.00  0.00    +0.034 A 
ATOM      7  C   UNL     1       3.309  -6.649  29.305  0.00  0.00    +0.017 A 
ATOM      8  C   UNL     1       4.040  -6.651  30.483  0.00  0.00    +0.001 A 
ATOM      9  C   UNL     1       5.397  -6.389  30.421  0.00  0.00    +0.002 A 
ATOM     10  C   UNL     1       6.012  -6.123  29.186  0.00  0.00    +0.024 A 
ATOM     11  C   UNL     1       5.303  -6.094  27.963  0.00  0.00    +0.048 A 
ATOM     12  C   UNL     1       3.243  -6.102  24.068  0.00  0.00    +0.017 A 
ATOM     13  N   UNL     1       5.920  -5.795  26.707  0.00  0.00    -0.298 N 
ATOM     14  C   UNL     1       3.943  -5.855  22.892  0.00  0.00    +0.012 A 
ENDROOT
BRANCH   1  16
ATOM     15  C   UNL     1       7.459  -5.993  21.609  0.00  0.00    +0.091 C 
ATOM     16  C   UNL     1       6.113  -5.327  21.737  0.00  0.00    +0.160 C 
ATOM     17  O   UNL     1       5.686  -4.574  20.863  0.00  0.00    -0.292 OA
ENDBRANCH   1  16
BRANCH  13  18
ATOM     18  C   UNL     1       7.376  -5.477  26.697  0.00  0.00    +0.112 C 
BRANCH  18  19
ATOM     19  C   UNL     1       7.608  -3.960  26.757  0.00  0.00    +0.035 C 
BRANCH  19  20
ATOM     20  C   UNL     1       8.596  -3.454  25.693  0.00  0.00    +0.086 C 
BRANCH  20  21
ATOM     21  N   UNL     1       8.013  -2.545  24.689  0.00  0.00    -0.300 NA
ATOM     22  C   UNL     1       8.682  -2.713  23.373  0.00  0.00    +0.100 C 
ATOM     23  C   UNL     1      10.094  -2.071  23.262  0.00  0.00    +0.100 C 
ATOM     24  N   UNL     1      10.186  -0.658  23.717  0.00  0.00    -0.298 NA
ATOM     25  C   UNL     1       9.543  -0.562  25.044  0.00  0.00    +0.100 C 
ATOM     26  C   UNL     1       8.107  -1.124  25.078  0.00  0.00    +0.100 C 
BRANCH  24  27
ATOM     27  C   UNL     1       9.565   0.243  22.714  0.00  0.00    +0.112 C 
BRANCH  27  28
ATOM     28  C   UNL     1      10.075   1.692  22.786  0.00  0.00    +0.171 C 
BRANCH  28  29
ATOM     29  O   UNL     1       9.977   2.321  21.512  0.00  0.00    -0.394 OA
ATOM     30  H   UNL     1       9.501   1.683  20.945  0.00  0.00    +0.209 HD
ENDBRANCH  28  29
ENDBRANCH  27  28
ENDBRANCH  24  27
ENDBRANCH  20  21
ENDBRANCH  19  20
ENDBRANCH  18  19
ENDBRANCH  13  18
TORSDOF 8
ENDMDL
MODEL 2
REMARK VINA RESULT:      -6.6      3.632      6.843
REMARK  Name = 
REMARK  9 active torsions:
REMARK  status: ('A' for Active; 'I' for Inactive)
REMARK    1  A    between atoms: C_1  and  C_2
REMARK    2  A    between atoms: C_2  and  C_4
REMARK    3  A    between atoms: N_15  and  C_16
REMARK    4  A    between atoms: C_16  and  C_17
REMARK    5  A    between atoms: C_17  and  C_18
REMARK    6  A    between atoms: C_18  and  N_19
REMARK    7  A    between atoms: N_22  and  C_23
REMARK    8  A    between atoms: C_23  and  C_24
REMARK    9  A    between atoms: C_24  and  O_25
REMARK                            x       y       z     vdW  Elec       q    Type
REMARK                         _______ _______ _______ _____ _____    ______ ____
ROOT
ATOM      1  C   UNL     1       7.376  -4.592  25.447  0.00  0.00    +0.019 A 
ATOM      2  C   UNL     1       7.888  -3.323  25.781  0.00  0.00    +0.036 A 
ATOM      3  C   UNL     1       8.340  -2.391  24.814  0.00  0.00    +0.049 A 
ATOM      4  C   UNL     1       8.263  -2.819  23.475  0.00  0.00    +0.034 A 
ATOM      5  S   UNL     1       8.770  -1.852  22.083  0.00  0.00    -0.086 S 
ATOM      6  C   UNL     1       9.274  -0.332  22.840  0.00  0.00    +0.034 A 
ATOM      7  C   UNL     1       9.710   0.648  21.922  0.00  0.00    +0.017 A 
ATOM      8  C   UNL     1      10.143   1.892  22.352  0.00  0.00    +0.001 A 
ATOM      9  C   UNL     1      10.131   2.166  23.708  0.00  0.00    +0.002 A 
ATOM     10  C   UNL     1       9.693   1.195  24.624  0.00  0.00    +0.024 A 
ATOM     11  C   UNL     1       9.258  -0.093  24.231  0.00  0.00    +0.048 A 
ATOM     12  C   UNL     1       7.758  -4.090  23.139  0.00  0.00    +0.017 A 
ATOM     13  N   UNL     1       8.838  -1.095  25.162  0.00  0.00    -0.298 N 
ATOM     14  C   UNL     1       7.316  -4.975  24.115  0.00  0.00    +0.012 A 
ENDROOT
BRANCH   1  16
ATOM     15  C   UNL     1       5.544  -6.131  26.412  0.00  0.00    +0.091 C 
ATOM     16  C   UNL     1       6.901  -5.489  26.541  0.00  0.00    +0.160 C 
ATOM     17  O   UNL     1       7.607  -5.679  27.529  0.00  0.00    -0.292 OA
ENDBRANCH   1  16
BRANCH  13  18
ATOM     18  C   UNL     1       8.883  -0.768  26.615  0.00  0.00    +0.112 C 
BRANCH  18  19
ATOM     19  C   UNL     1       7.474  -0.486  27.159  0.00  0.00    +0.035 C 
BRANCH  19  20
ATOM     20  C   UNL     1       7.170   1.014  27.309  0.00  0.00    +0.086 C 
BRANCH  20  21
ATOM     21  N   UNL     1       5.790   1.403  26.965  0.00  0.00    -0.300 NA
ATOM     22  C   UNL     1       5.297   0.625  25.799  0.00  0.00    +0.100 C 
ATOM     23  C   UNL     1       5.861   1.073  24.420  0.00  0.00    +0.100 C 
ATOM     24  N   UNL     1       5.779   2.532  24.145  0.00  0.00    -0.298 NA
ATOM     25  C   UNL     1       6.319   3.250  25.319  0.00  0.00    +0.100 C 
ATOM     26  C   UNL     1       5.659   2.840  26.651  0.00  0.00    +0.100 C 
BRANCH  24  27
ATOM     27  C   UNL     1       4.380   2.917  23.834  0.00  0.00    +0.112 C 
BRANCH  27  28
ATOM     28  C   UNL     1       4.200   3.506  22.425  0.00  0.00    +0.171 C 
BRANCH  28  29
ATOM     29  O   UNL     1       5.463   3.821  21.849  0.00  0.00    -0.394 OA
ATOM     30  H   UNL     1       5.303   3.868  20.886  0.00  0.00    +0.209 HD
ENDBRANCH  28  29
ENDBRANCH  27  28
ENDBRANCH  24  27
ENDBRANCH  20  21
ENDBRANCH  19  20
ENDBRANCH  18  19
ENDBRANCH  13  18
TORSDOF 8
ENDMDL
MODEL 3
REMARK VINA RESULT:      -6.5      4.038      7.092
REMARK  Name = 
REMARK  9 active torsions:
REMARK  status: ('A' for Active; 'I' for Inactive)
REMARK    1  A    between atoms: C_1  and  C_2
REMARK    2  A    between atoms: C_2  and  C_4
REMARK    3  A    between atoms: N_15  and  C_16
REMARK    4  A    between atoms: C_16  and  C_17
REMARK    5  A    between atoms: C_17  and  C_18
REMARK    6  A    between atoms: C_18  and  N_19
REMARK    7  A    between atoms: N_22  and  C_23
REMARK    8  A    between atoms: C_23  and  C_24
REMARK    9  A    between atoms: C_24  and  O_25
REMARK                            x       y       z     vdW  Elec       q    Type
REMARK                         _______ _______ _______ _____ _____    ______ ____
ROOT
ATOM      1  C   UNL     1      10.000   2.042  23.266  0.00  0.00    +0.019 A 
ATOM      2  C   UNL     1       9.675   1.185  24.336  0.00  0.00    +0.036 A 
ATOM      3  C   UNL     1       9.266  -0.160  24.153  0.00  0.00    +0.049 A 
ATOM      4  C   UNL     1       9.184  -0.594  22.817  0.00  0.00    +0.034 A 
ATOM      5  S   UNL     1       8.691  -2.219  22.320  0.00  0.00    -0.086 S 
ATOM      6  C   UNL     1       8.439  -3.032  23.875  0.00  0.00    +0.034 A 
ATOM      7  C   UNL     1       8.056  -4.385  23.758  0.00  0.00    +0.017 A 
ATOM      8  C   UNL     1       7.815  -5.162  24.881  0.00  0.00    +0.001 A 
ATOM      9  C   UNL     1       7.967  -4.588  26.129  0.00  0.00    +0.002 A 
ATOM     10  C   UNL     1       8.354  -3.242  26.249  0.00  0.00    +0.024 A 
ATOM     11  C   UNL     1       8.594  -2.408  25.132  0.00  0.00    +0.048 A 
ATOM     12  C   UNL     1       9.500   0.262  21.746  0.00  0.00    +0.017 A 
ATOM     13  N   UNL     1       8.961  -1.030  25.249  0.00  0.00    -0.298 N 
ATOM     14  C   UNL     1       9.906   1.575  21.963  0.00  0.00    +0.012 A 
ENDROOT
BRANCH   1  16
ATOM     15  C   UNL     1       9.433   4.421  24.089  0.00  0.00    +0.091 C 
ATOM     16  C   UNL     1      10.446   3.434  23.567  0.00  0.00    +0.160 C 
ATOM     17  O   UNL     1      11.616   3.759  23.374  0.00  0.00    -0.292 OA
ENDBRANCH   1  16
BRANCH  13  18
ATOM     18  C   UNL     1       9.071  -0.445  26.615  0.00  0.00    +0.112 C 
BRANCH  18  19
ATOM     19  C   UNL     1       7.682  -0.178  27.213  0.00  0.00    +0.035 C 
BRANCH  19  20
ATOM     20  C   UNL     1       7.104   1.191  26.819  0.00  0.00    +0.086 C 
BRANCH  20  21
ATOM     21  N   UNL     1       5.714   1.159  26.329  0.00  0.00    -0.300 NA
ATOM     22  C   UNL     1       5.664   0.722  24.910  0.00  0.00    +0.100 C 
ATOM     23  C   UNL     1       6.098   1.797  23.872  0.00  0.00    +0.100 C 
ATOM     24  N   UNL     1       5.454   3.128  24.030  0.00  0.00    -0.298 NA
ATOM     25  C   UNL     1       5.570   3.527  25.449  0.00  0.00    +0.100 C 
ATOM     26  C   UNL     1       5.037   2.467  26.435  0.00  0.00    +0.100 C 
BRANCH  24  27
ATOM     27  C   UNL     1       4.045   3.073  23.566  0.00  0.00    +0.112 C 
BRANCH  27  28
ATOM     28  C   UNL     1       3.720   4.090  22.459  0.00  0.00    +0.171 C 
BRANCH  28  29
ATOM     29  O   UNL     1       4.874   4.854  22.126  0.00  0.00    -0.394 OA
ATOM     30  H   UNL     1       5.536   4.635  22.812  0.00  0.00    +0.209 HD
ENDBRANCH  28  29
ENDBRANCH  27  28
ENDBRANCH  24  27
ENDBRANCH  20  21
ENDBRANCH  19  20
ENDBRANCH  18  19
ENDBRANCH  13  18
TORSDOF 8
ENDMDL
MODEL 4
REMARK VINA RESULT:      -6.2      3.114      5.578
REMARK  Name = 
REMARK  9 active torsions:
REMARK  status: ('A' for Active; 'I' for Inactive)
REMARK    1  A    between atoms: C_1  and  C_2
REMARK    2  A    between atoms: C_2  and  C_4
REMARK    3  A    between atoms: N_15  and  C_16
REMARK    4  A    between atoms: C_16  and  C_17
REMARK    5  A    between atoms: C_17  and  C_18
REMARK    6  A    between atoms: C_18  and  N_19
REMARK    7  A    between atoms: N_22  and  C_23
REMARK    8  A    between atoms: C_23  and  C_24
REMARK    9  A    between atoms: C_24  and  O_25
REMARK                            x       y       z     vdW  Elec       q    Type
REMARK                         _______ _______ _______ _____ _____    ______ ____
ROOT
ATOM      1  C   UNL     1       9.737  -0.337  23.465  0.00  0.00    +0.019 A 
ATOM      2  C   UNL     1       8.986  -1.013  24.447  0.00  0.00    +0.036 A 
ATOM      3  C   UNL     1       8.166  -2.132  24.159  0.00  0.00    +0.049 A 
ATOM      4  C   UNL     1       8.130  -2.528  22.810  0.00  0.00    +0.034 A 
ATOM      5  S   UNL     1       7.180  -3.886  22.189  0.00  0.00    -0.086 S 
ATOM      6  C   UNL     1       6.443  -4.539  23.662  0.00  0.00    +0.034 A 
ATOM      7  C   UNL     1       5.634  -5.675  23.443  0.00  0.00    +0.017 A 
ATOM      8  C   UNL     1       4.981  -6.304  24.491  0.00  0.00    +0.001 A 
ATOM      9  C   UNL     1       5.144  -5.803  25.770  0.00  0.00    +0.002 A 
ATOM     10  C   UNL     1       5.952  -4.675  25.992  0.00  0.00    +0.024 A 
ATOM     11  C   UNL     1       6.624  -3.992  24.951  0.00  0.00    +0.048 A 
ATOM     12  C   UNL     1       8.873  -1.850  21.825  0.00  0.00    +0.017 A 
ATOM     13  N   UNL     1       7.425  -2.827  25.169  0.00  0.00    -0.298 N 
ATOM     14  C   UNL     1       9.674  -0.759  22.146  0.00  0.00    +0.012 A 
ENDROOT
BRANCH   1  16
ATOM     15  C   UNL     1      10.517   2.092  23.079  0.00  0.00    +0.091 C 
ATOM     16  C   UNL     1      10.591   0.816  23.877  0.00  0.00    +0.160 C 
ATOM     17  O   UNL     1      11.345   0.708  24.842  0.00  0.00    -0.292 OA
ENDBRANCH   1  16
BRANCH  13  18
ATOM     18  C   UNL     1       7.536  -2.299  26.558  0.00  0.00    +0.112 C 
BRANCH  18  19
ATOM     19  C   UNL     1       6.452  -1.246  26.834  0.00  0.00    +0.035 C 
BRANCH  19  20
ATOM     20  C   UNL     1       7.022   0.157  27.102  0.00  0.00    +0.086 C 
BRANCH  20  21
ATOM     21  N   UNL     1       6.114   1.268  26.767  0.00  0.00    -0.300 NA
ATOM     22  C   UNL     1       5.459   1.038  25.454  0.00  0.00    +0.100 C 
ATOM     23  C   UNL     1       6.362   1.286  24.211  0.00  0.00    +0.100 C 
ATOM     24  N   UNL     1       7.095   2.580  24.208  0.00  0.00    -0.298 NA
ATOM     25  C   UNL     1       7.757   2.734  25.521  0.00  0.00    +0.100 C 
ATOM     26  C   UNL     1       6.799   2.575  26.719  0.00  0.00    +0.100 C 
BRANCH  24  27
ATOM     27  C   UNL     1       6.163   3.694  23.904  0.00  0.00    +0.112 C 
BRANCH  27  28
ATOM     28  C   UNL     1       6.620   4.579  22.732  0.00  0.00    +0.171 C 
BRANCH  28  29
ATOM     29  O   UNL     1       7.757   4.011  22.089  0.00  0.00    -0.394 OA
ATOM     30  H   UNL     1       8.481   4.075  22.742  0.00  0.00    +0.209 HD
ENDBRANCH  28  29
ENDBRANCH  27  28
ENDBRANCH  24  27
ENDBRANCH  20  21
ENDBRANCH  19  20
ENDBRANCH  18  19
ENDBRANCH  13  18
TORSDOF 8
ENDMDL
MODEL 5
REMARK VINA RESULT:      -6.1      3.149      7.814
REMARK  Name = 
REMARK  9 active torsions:
REMARK  status: ('A' for Active; 'I' for Inactive)
REMARK    1  A    between atoms: C_1  and  C_2
REMARK    2  A    between atoms: C_2  and  C_4
REMARK    3  A    between atoms: N_15  and  C_16
REMARK    4  A    between atoms: C_16  and  C_17
REMARK    5  A    between atoms: C_17  and  C_18
REMARK    6  A    between atoms: C_18  and  N_19
REMARK    7  A    between atoms: N_22  and  C_23
REMARK    8  A    between atoms: C_23  and  C_24
REMARK    9  A    between atoms: C_24  and  O_25
REMARK                            x       y       z     vdW  Elec       q    Type
REMARK                         _______ _______ _______ _____ _____    ______ ____
ROOT
ATOM      1  C   UNL     1       8.431   2.283  22.967  0.00  0.00    +0.019 A 
ATOM      2  C   UNL     1       7.973   1.394  23.959  0.00  0.00    +0.036 A 
ATOM      3  C   UNL     1       8.439   0.061  24.079  0.00  0.00    +0.049 A 
ATOM      4  C   UNL     1       9.391  -0.338  23.123  0.00  0.00    +0.034 A 
ATOM      5  S   UNL     1      10.121  -1.949  23.047  0.00  0.00    -0.086 S 
ATOM      6  C   UNL     1       9.398  -2.759  24.447  0.00  0.00    +0.034 A 
ATOM      7  C   UNL     1       9.845  -4.085  24.635  0.00  0.00    +0.017 A 
ATOM      8  C   UNL     1       9.373  -4.860  25.682  0.00  0.00    +0.001 A 
ATOM      9  C   UNL     1       8.455  -4.306  26.555  0.00  0.00    +0.002 A 
ATOM     10  C   UNL     1       8.011  -2.985  26.374  0.00  0.00    +0.024 A 
ATOM     11  C   UNL     1       8.454  -2.164  25.311  0.00  0.00    +0.048 A 
ATOM     12  C   UNL     1       9.845   0.545  22.125  0.00  0.00    +0.017 A 
ATOM     13  N   UNL     1       7.984  -0.828  25.106  0.00  0.00    -0.298 N 
ATOM     14  C   UNL     1       9.370   1.849  22.043  0.00  0.00    +0.012 A 
ENDROOT
BRANCH   1  16
ATOM     15  C   UNL     1       6.529   3.915  22.357  0.00  0.00    +0.091 C 
ATOM     16  C   UNL     1       7.896   3.675  22.944  0.00  0.00    +0.160 C 
ATOM     17  O   UNL     1       8.574   4.601  23.386  0.00  0.00    -0.292 OA
ENDBRANCH   1  16
BRANCH  13  18
ATOM     18  C   UNL     1       6.963  -0.289  26.048  0.00  0.00    +0.112 C 
BRANCH  18  19
ATOM     19  C   UNL     1       5.545  -0.479  25.490  0.00  0.00    +0.035 C 
BRANCH  19  20
ATOM     20  C   UNL     1       4.734  -1.547  26.242  0.00  0.00    +0.086 C 
BRANCH  20  21
ATOM     21  N   UNL     1       3.816  -2.335  25.399  0.00  0.00    -0.300 NA
ATOM     22  C   UNL     1       2.723  -2.923  26.216  0.00  0.00    +0.100 C 
ATOM     23  C   UNL     1       3.129  -4.153  27.078  0.00  0.00    +0.100 C 
ATOM     24  N   UNL     1       3.868  -5.220  26.352  0.00  0.00    -0.298 NA
ATOM     25  C   UNL     1       4.964  -4.581  25.593  0.00  0.00    +0.100 C 
ATOM     26  C   UNL     1       4.496  -3.430  24.680  0.00  0.00    +0.100 C 
BRANCH  24  27
ATOM     27  C   UNL     1       2.940  -5.983  25.481  0.00  0.00    +0.112 C 
BRANCH  27  28
ATOM     28  C   UNL     1       3.344  -7.454  25.288  0.00  0.00    +0.171 C 
BRANCH  28  29
ATOM     29  O   UNL     1       3.992  -7.634  24.033  0.00  0.00    -0.394 OA
ATOM     30  H   UNL     1       3.712  -6.874  23.486  0.00  0.00    +0.209 HD
ENDBRANCH  28  29
ENDBRANCH  27  28
ENDBRANCH  24  27
ENDBRANCH  20  21
ENDBRANCH  19  20
ENDBRANCH  18  19
ENDBRANCH  13  18
TORSDOF 8
ENDMDL
MODEL 6
REMARK VINA RESULT:      -6.1      3.693      8.343
REMARK  Name = 
REMARK  9 active torsions:
REMARK  status: ('A' for Active; 'I' for Inactive)
REMARK    1  A    between atoms: C_1  and  C_2
REMARK    2  A    between atoms: C_2  and  C_4
REMARK    3  A    between atoms: N_15  and  C_16
REMARK    4  A    between atoms: C_16  and  C_17
REMARK    5  A    between atoms: C_17  and  C_18
REMARK    6  A    between atoms: C_18  and  N_19
REMARK    7  A    between atoms: N_22  and  C_23
REMARK    8  A    between atoms: C_23  and  C_24
REMARK    9  A    between atoms: C_24  and  O_25
REMARK                            x       y       z     vdW  Elec       q    Type
REMARK                         _______ _______ _______ _____ _____    ______ ____
ROOT
ATOM      1  C   UNL     1       9.113  -2.306  23.852  0.00  0.00    +0.019 A 
ATOM      2  C   UNL     1       8.483  -1.340  24.662  0.00  0.00    +0.036 A 
ATOM      3  C   UNL     1       8.728   0.050  24.540  0.00  0.00    +0.049 A 
ATOM      4  C   UNL     1       9.666   0.418  23.557  0.00  0.00    +0.034 A 
ATOM      5  S   UNL     1      10.155   2.083  23.211  0.00  0.00    -0.086 S 
ATOM      6  C   UNL     1       9.141   3.015  24.325  0.00  0.00    +0.034 A 
ATOM      7  C   UNL     1       9.320   4.413  24.231  0.00  0.00    +0.017 A 
ATOM      8  C   UNL     1       8.606   5.284  25.038  0.00  0.00    +0.001 A 
ATOM      9  C   UNL     1       7.697   4.760  25.939  0.00  0.00    +0.002 A 
ATOM     10  C   UNL     1       7.512   3.370  26.031  0.00  0.00    +0.024 A 
ATOM     11  C   UNL     1       8.231   2.443  25.240  0.00  0.00    +0.048 A 
ATOM     12  C   UNL     1      10.302  -0.545  22.752  0.00  0.00    +0.017 A 
ATOM     13  N   UNL     1       8.066   1.026  25.351  0.00  0.00    -0.298 N 
ATOM     14  C   UNL     1      10.031  -1.902  22.895  0.00  0.00    +0.012 A 
ENDROOT
BRANCH   1  16
ATOM     15  C   UNL     1       9.439  -4.511  25.152  0.00  0.00    +0.091 C 
ATOM     16  C   UNL     1       8.765  -3.745  24.044  0.00  0.00    +0.160 C 
ATOM     17  O   UNL     1       7.953  -4.285  23.295  0.00  0.00    -0.292 OA
ENDBRANCH   1  16
BRANCH  13  18
ATOM     18  C   UNL     1       7.106   0.507  26.366  0.00  0.00    +0.112 C 
BRANCH  18  19
ATOM     19  C   UNL     1       5.716   0.289  25.747  0.00  0.00    +0.035 C 
BRANCH  19  20
ATOM     20  C   UNL     1       4.830  -0.664  26.567  0.00  0.00    +0.086 C 
BRANCH  20  21
ATOM     21  N   UNL     1       4.138  -1.699  25.777  0.00  0.00    -0.300 NA
ATOM     22  C   UNL     1       3.185  -2.460  26.624  0.00  0.00    +0.100 C 
ATOM     23  C   UNL     1       3.836  -3.500  27.581  0.00  0.00    +0.100 C 
ATOM     24  N   UNL     1       4.817  -4.419  26.946  0.00  0.00    -0.298 NA
ATOM     25  C   UNL     1       5.761  -3.604  26.152  0.00  0.00    +0.100 C 
ATOM     26  C   UNL     1       5.069  -2.659  25.150  0.00  0.00    +0.100 C 
BRANCH  24  27
ATOM     27  C   UNL     1       4.111  -5.435  26.127  0.00  0.00    +0.112 C 
BRANCH  27  28
ATOM     28  C   UNL     1       4.796  -6.812  26.124  0.00  0.00    +0.171 C 
BRANCH  28  29
ATOM     29  O   UNL     1       5.114  -7.216  27.452  0.00  0.00    -0.394 OA
ATOM     30  H   UNL     1       4.253  -7.381  27.884  0.00  0.00    +0.209 HD
ENDBRANCH  28  29
ENDBRANCH  27  28
ENDBRANCH  24  27
ENDBRANCH  20  21
ENDBRANCH  19  20
ENDBRANCH  18  19
ENDBRANCH  13  18
TORSDOF 8
ENDMDL
MODEL 7
REMARK VINA RESULT:      -6.0      3.369      5.760
REMARK  Name = 
REMARK  9 active torsions:
REMARK  status: ('A' for Active; 'I' for Inactive)
REMARK    1  A    between atoms: C_1  and  C_2
REMARK    2  A    between atoms: C_2  and  C_4
REMARK    3  A    between atoms: N_15  and  C_16
REMARK    4  A    between atoms: C_16  and  C_17
REMARK    5  A    between atoms: C_17  and  C_18
REMARK    6  A    between atoms: C_18  and  N_19
REMARK    7  A    between atoms: N_22  and  C_23
REMARK    8  A    between atoms: C_23  and  C_24
REMARK    9  A    between atoms: C_24  and  O_25
REMARK                            x       y       z     vdW  Elec       q    Type
REMARK                         _______ _______ _______ _____ _____    ______ ____
ROOT
ATOM      1  C   UNL     1       9.188  -0.128  22.644  0.00  0.00    +0.019 A 
ATOM      2  C   UNL     1       8.118  -0.379  23.526  0.00  0.00    +0.036 A 
ATOM      3  C   UNL     1       8.014  -1.562  24.299  0.00  0.00    +0.049 A 
ATOM      4  C   UNL     1       9.049  -2.498  24.119  0.00  0.00    +0.034 A 
ATOM      5  S   UNL     1       9.148  -4.055  24.955  0.00  0.00    -0.086 S 
ATOM      6  C   UNL     1       7.728  -4.009  26.013  0.00  0.00    +0.034 A 
ATOM      7  C   UNL     1       7.584  -5.152  26.830  0.00  0.00    +0.017 A 
ATOM      8  C   UNL     1       6.522  -5.275  27.712  0.00  0.00    +0.001 A 
ATOM      9  C   UNL     1       5.600  -4.246  27.788  0.00  0.00    +0.002 A 
ATOM     10  C   UNL     1       5.743  -3.105  26.980  0.00  0.00    +0.024 A 
ATOM     11  C   UNL     1       6.802  -2.944  26.055  0.00  0.00    +0.048 A 
ATOM     12  C   UNL     1      10.114  -2.255  23.232  0.00  0.00    +0.017 A 
ATOM     13  N   UNL     1       6.935  -1.796  25.211  0.00  0.00    -0.298 N 
ATOM     14  C   UNL     1      10.188  -1.078  22.495  0.00  0.00    +0.012 A 
ENDROOT
BRANCH   1  16
ATOM     15  C   UNL     1      10.323   2.144  22.190  0.00  0.00    +0.091 C 
ATOM     16  C   UNL     1       9.218   1.163  21.895  0.00  0.00    +0.160 C 
ATOM     17  O   UNL     1       8.343   1.413  21.068  0.00  0.00    -0.292 OA
ENDBRANCH   1  16
BRANCH  13  18
ATOM     18  C   UNL     1       5.895  -0.734  25.299  0.00  0.00    +0.112 C 
BRANCH  18  19
ATOM     19  C   UNL     1       6.156   0.194  26.495  0.00  0.00    +0.035 C 
BRANCH  19  20
ATOM     20  C   UNL     1       7.125   1.344  26.172  0.00  0.00    +0.086 C 
BRANCH  20  21
ATOM     21  N   UNL     1       6.507   2.682  26.137  0.00  0.00    -0.300 NA
ATOM     22  C   UNL     1       5.665   2.844  24.924  0.00  0.00    +0.100 C 
ATOM     23  C   UNL     1       6.449   3.074  23.600  0.00  0.00    +0.100 C 
ATOM     24  N   UNL     1       7.491   4.135  23.657  0.00  0.00    -0.298 NA
ATOM     25  C   UNL     1       8.320   3.898  24.857  0.00  0.00    +0.100 C 
ATOM     26  C   UNL     1       7.502   3.773  26.159  0.00  0.00    +0.100 C 
BRANCH  24  27
ATOM     27  C   UNL     1       6.855   5.476  23.656  0.00  0.00    +0.112 C 
BRANCH  27  28
ATOM     28  C   UNL     1       7.560   6.493  22.742  0.00  0.00    +0.171 C 
BRANCH  28  29
ATOM     29  O   UNL     1       7.581   6.026  21.397  0.00  0.00    -0.394 OA
ATOM     30  H   UNL     1       8.255   6.572  20.945  0.00  0.00    +0.209 HD
ENDBRANCH  28  29
ENDBRANCH  27  28
ENDBRANCH  24  27
ENDBRANCH  20  21
ENDBRANCH  19  20
ENDBRANCH  18  19
ENDBRANCH  13  18
TORSDOF 8
ENDMDL
MODEL 8
REMARK VINA RESULT:      -6.0      3.584      5.760
REMARK  Name = 
REMARK  9 active torsions:
REMARK  status: ('A' for Active; 'I' for Inactive)
REMARK    1  A    between atoms: C_1  and  C_2
REMARK    2  A    between atoms: C_2  and  C_4
REMARK    3  A    between atoms: N_15  and  C_16
REMARK    4  A    between atoms: C_16  and  C_17
REMARK    5  A    between atoms: C_17  and  C_18
REMARK    6  A    between atoms: C_18  and  N_19
REMARK    7  A    between atoms: N_22  and  C_23
REMARK    8  A    between atoms: C_23  and  C_24
REMARK    9  A    between atoms: C_24  and  O_25
REMARK                            x       y       z     vdW  Elec       q    Type
REMARK                         _______ _______ _______ _____ _____    ______ ____
ROOT
ATOM      1  C   UNL     1       5.902  -0.447  26.760  0.00  0.00    +0.019 A 
ATOM      2  C   UNL     1       6.690  -1.120  25.805  0.00  0.00    +0.036 A 
ATOM      3  C   UNL     1       6.230  -2.244  25.075  0.00  0.00    +0.049 A 
ATOM      4  C   UNL     1       4.922  -2.670  25.376  0.00  0.00    +0.034 A 
ATOM      5  S   UNL     1       4.118  -4.050  24.615  0.00  0.00    -0.086 S 
ATOM      6  C   UNL     1       5.331  -4.598  23.445  0.00  0.00    +0.034 A 
ATOM      7  C   UNL     1       4.919  -5.702  22.667  0.00  0.00    +0.017 A 
ATOM      8  C   UNL     1       5.753  -6.255  21.708  0.00  0.00    +0.001 A 
ATOM      9  C   UNL     1       7.004  -5.698  21.516  0.00  0.00    +0.002 A 
ATOM     10  C   UNL     1       7.415  -4.596  22.285  0.00  0.00    +0.024 A 
ATOM     11  C   UNL     1       6.604  -4.010  23.285  0.00  0.00    +0.048 A 
ATOM     12  C   UNL     1       4.136  -2.005  26.335  0.00  0.00    +0.017 A 
ATOM     13  N   UNL     1       7.030  -2.906  24.090  0.00  0.00    -0.298 N 
ATOM     14  C   UNL     1       4.618  -0.899  27.027  0.00  0.00    +0.012 A 
ENDROOT
BRANCH   1  16
ATOM     15  C   UNL     1       5.854   2.095  27.200  0.00  0.00    +0.091 C 
ATOM     16  C   UNL     1       6.472   0.744  27.455  0.00  0.00    +0.160 C 
ATOM     17  O   UNL     1       7.435   0.614  28.207  0.00  0.00    -0.292 OA
ENDBRANCH   1  16
BRANCH  13  18
ATOM     18  C   UNL     1       8.402  -2.367  23.875  0.00  0.00    +0.112 C 
BRANCH  18  19
ATOM     19  C   UNL     1       8.469  -1.529  22.589  0.00  0.00    +0.035 C 
BRANCH  19  20
ATOM     20  C   UNL     1       9.501  -0.390  22.659  0.00  0.00    +0.086 C 
BRANCH  20  21
ATOM     21  N   UNL     1       9.016   0.915  22.175  0.00  0.00    -0.300 NA
ATOM     22  C   UNL     1      10.114   1.914  22.161  0.00  0.00    +0.100 C 
ATOM     23  C   UNL     1      10.512   2.480  23.555  0.00  0.00    +0.100 C 
ATOM     24  N   UNL     1       9.379   2.962  24.390  0.00  0.00    -0.298 NA
ATOM     25  C   UNL     1       8.338   1.913  24.399  0.00  0.00    +0.100 C 
ATOM     26  C   UNL     1       7.910   1.455  22.990  0.00  0.00    +0.100 C 
BRANCH  24  27
ATOM     27  C   UNL     1       8.878   4.259  23.872  0.00  0.00    +0.112 C 
BRANCH  27  28
ATOM     28  C   UNL     1       9.818   5.443  24.157  0.00  0.00    +0.171 C 
BRANCH  28  29
ATOM     29  O   UNL     1      10.388   5.932  22.947  0.00  0.00    -0.394 OA
ATOM     30  H   UNL     1      10.468   6.898  23.071  0.00  0.00    +0.209 HD
ENDBRANCH  28  29
ENDBRANCH  27  28
ENDBRANCH  24  27
ENDBRANCH  20  21
ENDBRANCH  19  20
ENDBRANCH  18  19
ENDBRANCH  13  18
TORSDOF 8
ENDMDL
MODEL 9
REMARK VINA RESULT:      -5.9      4.198      8.592
REMARK  Name = 
REMARK  9 active torsions:
REMARK  status: ('A' for Active; 'I' for Inactive)
REMARK    1  A    between atoms: C_1  and  C_2
REMARK    2  A    between atoms: C_2  and  C_4
REMARK    3  A    between atoms: N_15  and  C_16
REMARK    4  A    between atoms: C_16  and  C_17
REMARK    5  A    between atoms: C_17  and  C_18
REMARK    6  A    between atoms: C_18  and  N_19
REMARK    7  A    between atoms: N_22  and  C_23
REMARK    8  A    between atoms: C_23  and  C_24
REMARK    9  A    between atoms: C_24  and  O_25
REMARK                            x       y       z     vdW  Elec       q    Type
REMARK                         _______ _______ _______ _____ _____    ______ ____
ROOT
ATOM      1  C   UNL     1       9.376  -0.061  22.781  0.00  0.00    +0.019 A 
ATOM      2  C   UNL     1       8.755   0.265  24.003  0.00  0.00    +0.036 A 
ATOM      3  C   UNL     1       8.554   1.599  24.437  0.00  0.00    +0.049 A 
ATOM      4  C   UNL     1       9.033   2.599  23.571  0.00  0.00    +0.034 A 
ATOM      5  S   UNL     1       8.916   4.336  23.883  0.00  0.00    -0.086 S 
ATOM      6  C   UNL     1       8.037   4.387  25.421  0.00  0.00    +0.034 A 
ATOM      7  C   UNL     1       7.782   5.693  25.893  0.00  0.00    +0.017 A 
ATOM      8  C   UNL     1       7.108   5.907  27.085  0.00  0.00    +0.001 A 
ATOM      9  C   UNL     1       6.676   4.810  27.808  0.00  0.00    +0.002 A 
ATOM     10  C   UNL     1       6.923   3.509  27.339  0.00  0.00    +0.024 A 
ATOM     11  C   UNL     1       7.621   3.244  26.137  0.00  0.00    +0.048 A 
ATOM     12  C   UNL     1       9.661   2.276  22.353  0.00  0.00    +0.017 A 
ATOM     13  N   UNL     1       7.900   1.920  25.670  0.00  0.00    -0.298 N 
ATOM     14  C   UNL     1       9.835   0.955  21.956  0.00  0.00    +0.012 A 
ENDROOT
BRANCH   1  16
ATOM     15  C   UNL     1       8.268  -2.326  22.233  0.00  0.00    +0.091 C 
ATOM     16  C   UNL     1       9.515  -1.498  22.405  0.00  0.00    +0.160 C 
ATOM     17  O   UNL     1      10.633  -1.988  22.254  0.00  0.00    -0.292 OA
ENDBRANCH   1  16
BRANCH  13  18
ATOM     18  C   UNL     1       7.451   0.771  26.505  0.00  0.00    +0.112 C 
BRANCH  18  19
ATOM     19  C   UNL     1       5.992   0.402  26.194  0.00  0.00    +0.035 C 
BRANCH  19  20
ATOM     20  C   UNL     1       5.812  -1.069  25.784  0.00  0.00    +0.086 C 
BRANCH  20  21
ATOM     21  N   UNL     1       6.182  -2.051  26.820  0.00  0.00    -0.300 NA
ATOM     22  C   UNL     1       7.287  -2.924  26.349  0.00  0.00    +0.100 C 
ATOM     23  C   UNL     1       6.873  -4.025  25.330  0.00  0.00    +0.100 C 
ATOM     24  N   UNL     1       5.695  -4.842  25.723  0.00  0.00    -0.298 NA
ATOM     25  C   UNL     1       4.617  -3.920  26.141  0.00  0.00    +0.100 C 
ATOM     26  C   UNL     1       5.052  -2.912  27.224  0.00  0.00    +0.100 C 
BRANCH  24  27
ATOM     27  C   UNL     1       6.071  -5.802  26.790  0.00  0.00    +0.112 C 
BRANCH  27  28
ATOM     28  C   UNL     1       4.923  -6.731  27.218  0.00  0.00    +0.171 C 
BRANCH  28  29
ATOM     29  O   UNL     1       5.317  -7.536  28.326  0.00  0.00    -0.394 OA
ATOM     30  H   UNL     1       5.581  -8.394  27.940  0.00  0.00    +0.209 HD
ENDBRANCH  28  29
ENDBRANCH  27  28
ENDBRANCH  24  27
ENDBRANCH  20  21
ENDBRANCH  19  20
ENDBRANCH  18  19
ENDBRANCH  13  18
TORSDOF 8
ENDMDL
