MODEL 1
REMARK VINA RESULT:      -7.3      0.000      0.000
REMARK  Name = 
REMARK  12 active torsions:
REMARK  status: ('A' for Active; 'I' for Inactive)
REMARK    1  A    between atoms: O_1  and  C_2
REMARK    2  A    between atoms: C_2  and  C_3
REMARK    3  A    between atoms: C_3  and  C_4
REMARK    4  A    between atoms: C_4  and  N_5
REMARK    5  A    between atoms: N_5  and  C_6
REMARK    6  A    between atoms: C_6  and  C_7
REMARK    7  A    between atoms: C_7  and  S_8
REMARK    8  A    between atoms: S_8  and  C_11
REMARK    9  A    between atoms: C_14  and  N_15
REMARK   10  A    between atoms: C_18  and  O_19
REMARK   11  A    between atoms: O_19  and  C_20
REMARK   12  A    between atoms: C_20  and  C_21
REMARK                            x       y       z     vdW  Elec       q    Type
REMARK                         _______ _______ _______ _____ _____    ______ ____
ROOT
ATOM      1  N   UNL     1       8.706  -3.817  25.335  0.00  0.00    -0.283 N 
ATOM      2  H   UNL     1       9.165  -4.136  26.178  0.00  0.00    +0.155 HD
ATOM      3  C   UNL     1       7.502  -4.502  25.132  0.00  0.00    +0.225 A 
ATOM      4  N   UNL     1       6.875  -4.300  23.957  0.00  0.00    -0.195 NA
ATOM      5  C   UNL     1       5.744  -4.995  23.841  0.00  0.00    +0.167 A 
ATOM      6  C   UNL     1       5.179  -5.843  24.766  0.00  0.00    +0.169 A 
ATOM      7  N   UNL     1       3.995  -6.359  24.282  0.00  0.00    -0.229 NA
ATOM      8  C   UNL     1       3.861  -5.835  23.081  0.00  0.00    +0.199 A 
ATOM      9  C   UNL     1       5.896  -5.995  25.952  0.00  0.00    +0.248 A 
ATOM     10  N   UNL     1       4.908  -5.014  22.765  0.00  0.00    -0.329 N 
ATOM     11  H   UNL     1       5.056  -4.511  21.904  0.00  0.00    +0.168 HD
ATOM     12  N   UNL     1       7.077  -5.329  26.120  0.00  0.00    -0.177 NA
ENDROOT
BRANCH   1  16
ATOM     13  C   UNL     1       9.724   0.074  24.052  0.00  0.00    +0.088 A 
ATOM     14  C   UNL     1       9.046  -0.110  25.258  0.00  0.00    +0.029 A 
ATOM     15  C   UNL     1       8.710  -1.409  25.670  0.00  0.00    +0.025 A 
ATOM     16  C   UNL     1       9.057  -2.527  24.896  0.00  0.00    +0.034 A 
ATOM     17  C   UNL     1       9.797  -2.310  23.722  0.00  0.00    +0.025 A 
ATOM     18  C   UNL     1      10.129  -1.022  23.293  0.00  0.00    +0.029 A 
BRANCH  13  19
ATOM     19  S   UNL     1      10.083   1.716  23.466  0.00  0.00    -0.002 S 
ATOM     20  O   UNL     1      11.442   2.032  23.865  0.00  0.00    -0.169 OA
ATOM     21  O   UNL     1       9.683   1.773  22.073  0.00  0.00    -0.169 OA
BRANCH  19  22
ATOM     22  C   UNL     1       8.954   2.718  24.423  0.00  0.00    +0.187 C 
BRANCH  22  23
ATOM     23  C   UNL     1       8.952   4.152  23.918  0.00  0.00    +0.104 C 
BRANCH  23  24
ATOM     24  N   UNL     1      10.275   4.518  23.383  0.00  0.00    -0.314 NA
ATOM     25  H   UNL     1      10.967   3.825  23.673  0.00  0.00    +0.122 HD
BRANCH  24  26
ATOM     26  C   UNL     1      10.688   5.828  23.909  0.00  0.00    +0.083 C 
BRANCH  26  27
ATOM     27  C   UNL     1      12.212   5.898  24.041  0.00  0.00    +0.043 C 
BRANCH  27  28
ATOM     28  C   UNL     1      12.905   5.096  22.944  0.00  0.00    +0.157 C 
BRANCH  28  29
ATOM     29  O   UNL     1      14.313   5.135  23.133  0.00  0.00    -0.395 OA
ATOM     30  H   UNL     1      14.542   4.401  23.730  0.00  0.00    +0.209 HD
ENDBRANCH  28  29
ENDBRANCH  27  28
ENDBRANCH  26  27
ENDBRANCH  24  26
ENDBRANCH  23  24
ENDBRANCH  22  23
ENDBRANCH  19  22
ENDBRANCH  13  19
ENDBRANCH   1  16
BRANCH   9  31
ATOM     31  O   UNL     1       5.452  -6.901  26.890  0.00  0.00    -0.475 OA
BRANCH  31  32
ATOM     32  C   UNL     1       5.430  -6.411  28.229  0.00  0.00    +0.234 C 
BRANCH  32  33
ATOM     33  C   UNL     1       4.062  -6.794  28.843  0.00  0.00    +0.027 C 
ATOM     34  C   UNL     1       2.888  -6.393  27.940  0.00  0.00    +0.007 C 
ATOM     35  C   UNL     1       2.683  -4.878  27.886  0.00  0.00    +0.000 C 
ATOM     36  C   UNL     1       2.526  -4.281  29.280  0.00  0.00    +0.000 C 
ATOM     37  C   UNL     1       3.658  -4.685  30.220  0.00  0.00    +0.000 C 
ATOM     38  C   UNL     1       3.859  -6.199  30.249  0.00  0.00    +0.007 C 
ENDBRANCH  32  33
ENDBRANCH  31  32
ENDBRANCH   9  31
TORSDOF 12
ENDMDL
MODEL 2
REMARK VINA RESULT:      -6.9      3.383      9.627
REMARK  Name = 
REMARK  12 active torsions:
REMARK  status: ('A' for Active; 'I' for Inactive)
REMARK    1  A    between atoms: O_1  and  C_2
REMARK    2  A    between atoms: C_2  and  C_3
REMARK    3  A    between atoms: C_3  and  C_4
REMARK    4  A    between atoms: C_4  and  N_5
REMARK    5  A    between atoms: N_5  and  C_6
REMARK    6  A    between atoms: C_6  and  C_7
REMARK    7  A    between atoms: C_7  and  S_8
REMARK    8  A    between atoms: S_8  and  C_11
REMARK    9  A    between atoms: C_14  and  N_15
REMARK   10  A    between atoms: C_18  and  O_19
REMARK   11  A    between atoms: O_19  and  C_20
REMARK   12  A    between atoms: C_20  and  C_21
REMARK                            x       y       z     vdW  Elec       q    Type
REMARK                         _______ _______ _______ _____ _____    ______ ____
ROOT
ATOM      1  N   UNL     1       6.055  -1.858  22.925  0.00  0.00    -0.283 N 
ATOM      2  H   UNL     1       5.442  -1.559  22.179  0.00  0.00    +0.155 HD
ATOM      3  C   UNL     1       7.100  -0.944  23.108  0.00  0.00    +0.225 A 
ATOM      4  N   UNL     1       8.088  -1.306  23.950  0.00  0.00    -0.195 NA
ATOM      5  C   UNL     1       9.044  -0.385  24.061  0.00  0.00    +0.167 A 
ATOM      6  C   UNL     1       9.109   0.841  23.439  0.00  0.00    +0.169 A 
ATOM      7  N   UNL     1      10.248   1.514  23.825  0.00  0.00    -0.229 NA
ATOM      8  C   UNL     1      10.861   0.698  24.657  0.00  0.00    +0.199 A 
ATOM      9  C   UNL     1       8.046   1.132  22.583  0.00  0.00    +0.248 A 
ATOM     10  N   UNL     1      10.175  -0.474  24.816  0.00  0.00    -0.329 N 
ATOM     11  H   UNL     1      10.439  -1.269  25.378  0.00  0.00    +0.168 HD
ATOM     12  N   UNL     1       7.047   0.216  22.408  0.00  0.00    -0.177 NA
ENDROOT
BRANCH   1  16
ATOM     13  C   UNL     1       4.370  -4.451  25.798  0.00  0.00    +0.088 A 
ATOM     14  C   UNL     1       4.488  -3.088  26.070  0.00  0.00    +0.029 A 
ATOM     15  C   UNL     1       5.054  -2.238  25.107  0.00  0.00    +0.025 A 
ATOM     16  C   UNL     1       5.492  -2.735  23.870  0.00  0.00    +0.034 A 
ATOM     17  C   UNL     1       5.296  -4.100  23.604  0.00  0.00    +0.025 A 
ATOM     18  C   UNL     1       4.745  -4.960  24.557  0.00  0.00    +0.029 A 
BRANCH  13  19
ATOM     19  S   UNL     1       3.737  -5.562  27.037  0.00  0.00    -0.002 S 
ATOM     20  O   UNL     1       3.417  -4.768  28.208  0.00  0.00    -0.169 OA
ATOM     21  O   UNL     1       2.730  -6.389  26.399  0.00  0.00    -0.169 OA
BRANCH  19  22
ATOM     22  C   UNL     1       5.160  -6.580  27.400  0.00  0.00    +0.187 C 
BRANCH  22  23
ATOM     23  C   UNL     1       6.189  -5.795  28.199  0.00  0.00    +0.104 C 
BRANCH  23  24
ATOM     24  N   UNL     1       7.529  -5.934  27.601  0.00  0.00    -0.314 NA
ATOM     25  H   UNL     1       8.228  -6.025  28.340  0.00  0.00    +0.122 HD
BRANCH  24  26
ATOM     26  C   UNL     1       7.853  -4.740  26.805  0.00  0.00    +0.083 C 
BRANCH  26  27
ATOM     27  C   UNL     1       8.395  -5.141  25.430  0.00  0.00    +0.043 C 
BRANCH  27  28
ATOM     28  C   UNL     1       9.853  -4.728  25.261  0.00  0.00    +0.157 C 
BRANCH  28  29
ATOM     29  O   UNL     1       9.952  -3.692  24.294  0.00  0.00    -0.395 OA
ATOM     30  H   UNL     1      10.424  -4.060  23.527  0.00  0.00    +0.209 HD
ENDBRANCH  28  29
ENDBRANCH  27  28
ENDBRANCH  26  27
ENDBRANCH  24  26
ENDBRANCH  23  24
ENDBRANCH  22  23
ENDBRANCH  19  22
ENDBRANCH  13  19
ENDBRANCH   1  16
BRANCH   9  31
ATOM     31  O   UNL     1       8.082   2.296  21.846  0.00  0.00    -0.475 OA
BRANCH  31  32
ATOM     32  C   UNL     1       7.108   3.267  22.220  0.00  0.00    +0.234 C 
BRANCH  32  33
ATOM     33  C   UNL     1       7.866   4.503  22.761  0.00  0.00    +0.027 C 
ATOM     34  C   UNL     1       7.805   4.596  24.292  0.00  0.00    +0.007 C 
ATOM     35  C   UNL     1       6.409   4.962  24.799  0.00  0.00    +0.000 C 
ATOM     36  C   UNL     1       5.893   6.243  24.154  0.00  0.00    +0.000 C 
ATOM     37  C   UNL     1       5.969   6.203  22.630  0.00  0.00    +0.000 C 
ATOM     38  C   UNL     1       7.365   5.821  22.142  0.00  0.00    +0.007 C 
ENDBRANCH  32  33
ENDBRANCH  31  32
ENDBRANCH   9  31
TORSDOF 12
ENDMDL
MODEL 3
REMARK VINA RESULT:      -6.8      2.104      3.078
REMARK  Name = 
REMARK  12 active torsions:
REMARK  status: ('A' for Active; 'I' for Inactive)
REMARK    1  A    between atoms: O_1  and  C_2
REMARK    2  A    between atoms: C_2  and  C_3
REMARK    3  A    between atoms: C_3  and  C_4
REMARK    4  A    between atoms: C_4  and  N_5
REMARK    5  A    between atoms: N_5  and  C_6
REMARK    6  A    between atoms: C_6  and  C_7
REMARK    7  A    between atoms: C_7  and  S_8
REMARK    8  A    between atoms: S_8  and  C_11
REMARK    9  A    between atoms: C_14  and  N_15
REMARK   10  A    between atoms: C_18  and  O_19
REMARK   11  A    between atoms: O_19  and  C_20
REMARK   12  A    between atoms: C_20  and  C_21
REMARK                            x       y       z     vdW  Elec       q    Type
REMARK                         _______ _______ _______ _____ _____    ______ ____
ROOT
ATOM      1  N   UNL     1       9.087  -0.834  25.176  0.00  0.00    -0.283 N 
ATOM      2  H   UNL     1       9.533  -0.956  26.075  0.00  0.00    +0.155 HD
ATOM      3  C   UNL     1       8.565  -2.047  24.709  0.00  0.00    +0.225 A 
ATOM      4  N   UNL     1       8.098  -2.065  23.445  0.00  0.00    -0.195 NA
ATOM      5  C   UNL     1       7.630  -3.256  23.078  0.00  0.00    +0.167 A 
ATOM      6  C   UNL     1       7.568  -4.406  23.832  0.00  0.00    +0.169 A 
ATOM      7  N   UNL     1       6.998  -5.428  23.101  0.00  0.00    -0.229 NA
ATOM      8  C   UNL     1       6.733  -4.899  21.925  0.00  0.00    +0.199 A 
ATOM      9  C   UNL     1       8.076  -4.298  25.126  0.00  0.00    +0.248 A 
ATOM     10  N   UNL     1       7.115  -3.588  21.860  0.00  0.00    -0.329 N 
ATOM     11  H   UNL     1       7.043  -2.965  21.070  0.00  0.00    +0.168 HD
ATOM     12  N   UNL     1       8.595  -3.108  25.553  0.00  0.00    -0.177 NA
ENDROOT
BRANCH   1  16
ATOM     13  C   UNL     1       7.742   3.072  24.310  0.00  0.00    +0.088 A 
ATOM     14  C   UNL     1       7.164   2.349  25.354  0.00  0.00    +0.029 A 
ATOM     15  C   UNL     1       7.619   1.050  25.628  0.00  0.00    +0.025 A 
ATOM     16  C   UNL     1       8.653   0.471  24.878  0.00  0.00    +0.034 A 
ATOM     17  C   UNL     1       9.257   1.251  23.878  0.00  0.00    +0.025 A 
ATOM     18  C   UNL     1       8.807   2.542  23.586  0.00  0.00    +0.029 A 
BRANCH  13  19
ATOM     19  S   UNL     1       7.124   4.687  23.887  0.00  0.00    -0.002 S 
ATOM     20  O   UNL     1       7.289   4.854  22.456  0.00  0.00    -0.169 OA
ATOM     21  O   UNL     1       5.820   4.825  24.508  0.00  0.00    -0.169 OA
BRANCH  19  22
ATOM     22  C   UNL     1       8.271   5.768  24.730  0.00  0.00    +0.187 C 
BRANCH  22  23
ATOM     23  C   UNL     1       8.948   6.704  23.741  0.00  0.00    +0.104 C 
BRANCH  23  24
ATOM     24  N   UNL     1       9.962   5.983  22.952  0.00  0.00    -0.314 NA
ATOM     25  H   UNL     1       9.509   5.272  22.376  0.00  0.00    +0.122 HD
BRANCH  24  26
ATOM     26  C   UNL     1      10.915   5.310  23.848  0.00  0.00    +0.083 C 
BRANCH  26  27
ATOM     27  C   UNL     1      12.274   6.016  23.816  0.00  0.00    +0.043 C 
BRANCH  27  28
ATOM     28  C   UNL     1      13.136   5.515  22.662  0.00  0.00    +0.157 C 
BRANCH  28  29
ATOM     29  O   UNL     1      14.337   4.947  23.167  0.00  0.00    -0.395 OA
ATOM     30  H   UNL     1      14.278   3.985  23.030  0.00  0.00    +0.209 HD
ENDBRANCH  28  29
ENDBRANCH  27  28
ENDBRANCH  26  27
ENDBRANCH  24  26
ENDBRANCH  23  24
ENDBRANCH  22  23
ENDBRANCH  19  22
ENDBRANCH  13  19
ENDBRANCH   1  16
BRANCH   9  31
ATOM     31  O   UNL     1       8.143  -5.427  25.914  0.00  0.00    -0.475 OA
BRANCH  31  32
ATOM     32  C   UNL     1       7.440  -5.333  27.150  0.00  0.00    +0.234 C 
BRANCH  32  33
ATOM     33  C   UNL     1       5.944  -5.112  26.821  0.00  0.00    +0.027 C 
ATOM     34  C   UNL     1       5.283  -4.107  27.773  0.00  0.00    +0.007 C 
ATOM     35  C   UNL     1       5.111  -4.668  29.186  0.00  0.00    +0.000 C 
ATOM     36  C   UNL     1       4.353  -5.991  29.178  0.00  0.00    +0.000 C 
ATOM     37  C   UNL     1       4.961  -7.007  28.215  0.00  0.00    +0.000 C 
ATOM     38  C   UNL     1       5.141  -6.425  26.814  0.00  0.00    +0.007 C 
ENDBRANCH  32  33
ENDBRANCH  31  32
ENDBRANCH   9  31
TORSDOF 12
ENDMDL
MODEL 4
REMARK VINA RESULT:      -6.7      2.850      4.475
REMARK  Name = 
REMARK  12 active torsions:
REMARK  status: ('A' for Active; 'I' for Inactive)
REMARK    1  A    between atoms: O_1  and  C_2
REMARK    2  A    between atoms: C_2  and  C_3
REMARK    3  A    between atoms: C_3  and  C_4
REMARK    4  A    between atoms: C_4  and  N_5
REMARK    5  A    between atoms: N_5  and  C_6
REMARK    6  A    between atoms: C_6  and  C_7
REMARK    7  A    between atoms: C_7  and  S_8
REMARK    8  A    between atoms: S_8  and  C_11
REMARK    9  A    between atoms: C_14  and  N_15
REMARK   10  A    between atoms: C_18  and  O_19
REMARK   11  A    between atoms: O_19  and  C_20
REMARK   12  A    between atoms: C_20  and  C_21
REMARK                            x       y       z     vdW  Elec       q    Type
REMARK                         _______ _______ _______ _____ _____    ______ ____
ROOT
ATOM      1  N   UNL     1       6.398  -0.763  26.763  0.00  0.00    -0.283 N 
ATOM      2  H   UNL     1       5.527  -0.729  27.275  0.00  0.00    +0.155 HD
ATOM      3  C   UNL     1       6.796  -2.088  26.544  0.00  0.00    +0.225 A 
ATOM      4  N   UNL     1       8.026  -2.279  26.028  0.00  0.00    -0.195 NA
ATOM      5  C   UNL     1       8.328  -3.565  25.859  0.00  0.00    +0.167 A 
ATOM      6  C   UNL     1       7.539  -4.659  26.134  0.00  0.00    +0.169 A 
ATOM      7  N   UNL     1       8.202  -5.823  25.804  0.00  0.00    -0.229 NA
ATOM      8  C   UNL     1       9.373  -5.430  25.349  0.00  0.00    +0.199 A 
ATOM      9  C   UNL     1       6.283  -4.369  26.668  0.00  0.00    +0.248 A 
ATOM     10  N   UNL     1       9.500  -4.069  25.380  0.00  0.00    -0.329 N 
ATOM     11  H   UNL     1      10.302  -3.520  25.108  0.00  0.00    +0.168 HD
ATOM     12  N   UNL     1       5.925  -3.069  26.889  0.00  0.00    -0.177 NA
ENDROOT
BRANCH   1  16
ATOM     13  C   UNL     1       7.312   2.624  24.416  0.00  0.00    +0.088 A 
ATOM     14  C   UNL     1       6.653   1.534  23.845  0.00  0.00    +0.029 A 
ATOM     15  C   UNL     1       6.360   0.413  24.636  0.00  0.00    +0.025 A 
ATOM     16  C   UNL     1       6.706   0.375  25.996  0.00  0.00    +0.034 A 
ATOM     17  C   UNL     1       7.307   1.516  26.553  0.00  0.00    +0.025 A 
ATOM     18  C   UNL     1       7.616   2.634  25.775  0.00  0.00    +0.029 A 
BRANCH  13  19
ATOM     19  S   UNL     1       7.773   4.020  23.412  0.00  0.00    -0.002 S 
ATOM     20  O   UNL     1       7.474   3.681  22.034  0.00  0.00    -0.169 OA
ATOM     21  O   UNL     1       7.201   5.202  24.030  0.00  0.00    -0.169 OA
BRANCH  19  22
ATOM     22  C   UNL     1       9.547   4.072  23.623  0.00  0.00    +0.187 C 
BRANCH  22  23
ATOM     23  C   UNL     1      10.155   2.699  23.379  0.00  0.00    +0.104 C 
BRANCH  23  24
ATOM     24  N   UNL     1      10.076   2.342  21.951  0.00  0.00    -0.314 NA
ATOM     25  H   UNL     1       9.361   2.908  21.493  0.00  0.00    +0.122 HD
BRANCH  24  26
ATOM     26  C   UNL     1       9.704   0.926  21.805  0.00  0.00    +0.083 C 
BRANCH  26  27
ATOM     27  C   UNL     1      10.124   0.129  23.044  0.00  0.00    +0.043 C 
BRANCH  27  28
ATOM     28  C   UNL     1      10.096  -1.372  22.779  0.00  0.00    +0.157 C 
BRANCH  28  29
ATOM     29  O   UNL     1      10.121  -1.617  21.380  0.00  0.00    -0.395 OA
ATOM     30  H   UNL     1      10.419  -0.795  20.950  0.00  0.00    +0.209 HD
ENDBRANCH  28  29
ENDBRANCH  27  28
ENDBRANCH  26  27
ENDBRANCH  24  26
ENDBRANCH  23  24
ENDBRANCH  22  23
ENDBRANCH  19  22
ENDBRANCH  13  19
ENDBRANCH   1  16
BRANCH   9  31
ATOM     31  O   UNL     1       5.470  -5.408  27.063  0.00  0.00    -0.475 OA
BRANCH  31  32
ATOM     32  C   UNL     1       4.264  -5.539  26.314  0.00  0.00    +0.234 C 
BRANCH  32  33
ATOM     33  C   UNL     1       4.424  -6.766  25.384  0.00  0.00    +0.027 C 
ATOM     34  C   UNL     1       4.925  -6.374  23.988  0.00  0.00    +0.007 C 
ATOM     35  C   UNL     1       3.867  -5.626  23.176  0.00  0.00    +0.000 C 
ATOM     36  C   UNL     1       2.565  -6.414  23.086  0.00  0.00    +0.000 C 
ATOM     37  C   UNL     1       2.051  -6.853  24.455  0.00  0.00    +0.000 C 
ATOM     38  C   UNL     1       3.125  -7.583  25.257  0.00  0.00    +0.007 C 
ENDBRANCH  32  33
ENDBRANCH  31  32
ENDBRANCH   9  31
TORSDOF 12
ENDMDL
MODEL 5
REMARK VINA RESULT:      -6.5      1.347      1.956
REMARK  Name = 
REMARK  12 active torsions:
REMARK  status: ('A' for Active; 'I' for Inactive)
REMARK    1  A    between atoms: O_1  and  C_2
REMARK    2  A    between atoms: C_2  and  C_3
REMARK    3  A    between atoms: C_3  and  C_4
REMARK    4  A    between atoms: C_4  and  N_5
REMARK    5  A    between atoms: N_5  and  C_6
REMARK    6  A    between atoms: C_6  and  C_7
REMARK    7  A    between atoms: C_7  and  S_8
REMARK    8  A    between atoms: S_8  and  C_11
REMARK    9  A    between atoms: C_14  and  N_15
REMARK   10  A    between atoms: C_18  and  O_19
REMARK   11  A    between atoms: O_19  and  C_20
REMARK   12  A    between atoms: C_20  and  C_21
REMARK                            x       y       z     vdW  Elec       q    Type
REMARK                         _______ _______ _______ _____ _____    ______ ____
ROOT
ATOM      1  N   UNL     1       8.797  -3.211  25.420  0.00  0.00    -0.283 N 
ATOM      2  H   UNL     1       9.279  -3.473  26.270  0.00  0.00    +0.155 HD
ATOM      3  C   UNL     1       7.682  -4.031  25.206  0.00  0.00    +0.225 A 
ATOM      4  N   UNL     1       7.050  -3.906  24.022  0.00  0.00    -0.195 NA
ATOM      5  C   UNL     1       6.009  -4.726  23.897  0.00  0.00    +0.167 A 
ATOM      6  C   UNL     1       5.533  -5.631  24.818  0.00  0.00    +0.169 A 
ATOM      7  N   UNL     1       4.423  -6.281  24.322  0.00  0.00    -0.229 NA
ATOM      8  C   UNL     1       4.244  -5.779  23.118  0.00  0.00    +0.199 A 
ATOM      9  C   UNL     1       6.249  -5.696  26.014  0.00  0.00    +0.248 A 
ATOM     10  N   UNL     1       5.193  -4.845  22.811  0.00  0.00    -0.329 N 
ATOM     11  H   UNL     1       5.293  -4.330  21.949  0.00  0.00    +0.168 HD
ATOM     12  N   UNL     1       7.343  -4.898  26.192  0.00  0.00    -0.177 NA
ENDROOT
BRANCH   1  16
ATOM     13  C   UNL     1       9.373   0.766  24.128  0.00  0.00    +0.088 A 
ATOM     14  C   UNL     1       8.575   0.501  25.242  0.00  0.00    +0.029 A 
ATOM     15  C   UNL     1       8.389  -0.827  25.657  0.00  0.00    +0.025 A 
ATOM     16  C   UNL     1       9.003  -1.891  24.980  0.00  0.00    +0.034 A 
ATOM     17  C   UNL     1       9.852  -1.582  23.904  0.00  0.00    +0.025 A 
ATOM     18  C   UNL     1      10.037  -0.267  23.472  0.00  0.00    +0.029 A 
BRANCH  13  19
ATOM     19  S   UNL     1       9.552   2.433  23.529  0.00  0.00    -0.002 S 
ATOM     20  O   UNL     1      10.950   2.794  23.663  0.00  0.00    -0.169 OA
ATOM     21  O   UNL     1       8.884   2.502  22.243  0.00  0.00    -0.169 OA
BRANCH  19  22
ATOM     22  C   UNL     1       8.598   3.369  24.716  0.00  0.00    +0.187 C 
BRANCH  22  23
ATOM     23  C   UNL     1       9.132   4.789  24.831  0.00  0.00    +0.104 C 
BRANCH  23  24
ATOM     24  N   UNL     1       9.537   5.301  23.510  0.00  0.00    -0.314 NA
ATOM     25  H   UNL     1      10.554   5.267  23.424  0.00  0.00    +0.122 HD
BRANCH  24  26
ATOM     26  C   UNL     1       9.110   6.701  23.359  0.00  0.00    +0.083 C 
BRANCH  26  27
ATOM     27  C   UNL     1       7.595   6.781  23.149  0.00  0.00    +0.043 C 
BRANCH  27  28
ATOM     28  C   UNL     1       7.194   6.267  21.771  0.00  0.00    +0.157 C 
BRANCH  28  29
ATOM     29  O   UNL     1       7.020   4.858  21.812  0.00  0.00    -0.395 OA
ATOM     30  H   UNL     1       7.870   4.472  22.087  0.00  0.00    +0.209 HD
ENDBRANCH  28  29
ENDBRANCH  27  28
ENDBRANCH  26  27
ENDBRANCH  24  26
ENDBRANCH  23  24
ENDBRANCH  22  23
ENDBRANCH  19  22
ENDBRANCH  13  19
ENDBRANCH   1  16
BRANCH   9  31
ATOM     31  O   UNL     1       5.900  -6.645  26.950  0.00  0.00    -0.475 OA
BRANCH  31  32
ATOM     32  C   UNL     1       5.919  -6.185  28.299  0.00  0.00    +0.234 C 
BRANCH  32  33
ATOM     33  C   UNL     1       4.628  -6.696  28.984  0.00  0.00    +0.027 C 
ATOM     34  C   UNL     1       3.380  -6.449  28.127  0.00  0.00    +0.007 C 
ATOM     35  C   UNL     1       3.009  -4.967  28.050  0.00  0.00    +0.000 C 
ATOM     36  C   UNL     1       2.849  -4.353  29.437  0.00  0.00    +0.000 C 
ATOM     37  C   UNL     1       4.058  -4.608  30.332  0.00  0.00    +0.000 C 
ATOM     38  C   UNL     1       4.423  -6.090  30.384  0.00  0.00    +0.007 C 
ENDBRANCH  32  33
ENDBRANCH  31  32
ENDBRANCH   9  31
TORSDOF 12
ENDMDL
MODEL 6
REMARK VINA RESULT:      -6.5      3.196      9.965
REMARK  Name = 
REMARK  12 active torsions:
REMARK  status: ('A' for Active; 'I' for Inactive)
REMARK    1  A    between atoms: O_1  and  C_2
REMARK    2  A    between atoms: C_2  and  C_3
REMARK    3  A    between atoms: C_3  and  C_4
REMARK    4  A    between atoms: C_4  and  N_5
REMARK    5  A    between atoms: N_5  and  C_6
REMARK    6  A    between atoms: C_6  and  C_7
REMARK    7  A    between atoms: C_7  and  S_8
REMARK    8  A    between atoms: S_8  and  C_11
REMARK    9  A    between atoms: C_14  and  N_15
REMARK   10  A    between atoms: C_18  and  O_19
REMARK   11  A    between atoms: O_19  and  C_20
REMARK   12  A    between atoms: C_20  and  C_21
REMARK                            x       y       z     vdW  Elec       q    Type
REMARK                         _______ _______ _______ _____ _____    ______ ____
ROOT
ATOM      1  N   UNL     1       6.040  -0.727  25.811  0.00  0.00    -0.283 N 
ATOM      2  H   UNL     1       5.909  -0.004  26.506  0.00  0.00    +0.155 HD
ATOM      3  C   UNL     1       7.093  -0.403  24.947  0.00  0.00    +0.225 A 
ATOM      4  N   UNL     1       7.264  -1.192  23.869  0.00  0.00    -0.195 NA
ATOM      5  C   UNL     1       8.279  -0.810  23.097  0.00  0.00    +0.167 A 
ATOM      6  C   UNL     1       9.134   0.250  23.293  0.00  0.00    +0.169 A 
ATOM      7  N   UNL     1      10.069   0.305  22.280  0.00  0.00    -0.229 NA
ATOM      8  C   UNL     1       9.770  -0.701  21.486  0.00  0.00    +0.199 A 
ATOM      9  C   UNL     1       8.883   1.015  24.432  0.00  0.00    +0.248 A 
ATOM     10  N   UNL     1       8.680  -1.395  21.932  0.00  0.00    -0.329 N 
ATOM     11  H   UNL     1       8.237  -2.190  21.497  0.00  0.00    +0.168 HD
ATOM     12  N   UNL     1       7.839   0.689  25.250  0.00  0.00    -0.177 NA
ENDROOT
BRANCH   1  16
ATOM     13  C   UNL     1       4.643  -4.573  26.846  0.00  0.00    +0.088 A 
ATOM     14  C   UNL     1       5.953  -4.200  27.149  0.00  0.00    +0.029 A 
ATOM     15  C   UNL     1       6.405  -2.919  26.795  0.00  0.00    +0.025 A 
ATOM     16  C   UNL     1       5.558  -2.003  26.154  0.00  0.00    +0.034 A 
ATOM     17  C   UNL     1       4.227  -2.389  25.924  0.00  0.00    +0.025 A 
ATOM     18  C   UNL     1       3.766  -3.664  26.260  0.00  0.00    +0.029 A 
BRANCH  13  19
ATOM     19  S   UNL     1       4.075  -6.222  27.206  0.00  0.00    -0.002 S 
ATOM     20  O   UNL     1       5.190  -7.123  26.987  0.00  0.00    -0.169 OA
ATOM     21  O   UNL     1       3.395  -6.172  28.486  0.00  0.00    -0.169 OA
BRANCH  19  22
ATOM     22  C   UNL     1       2.856  -6.492  25.927  0.00  0.00    +0.187 C 
BRANCH  22  23
ATOM     23  C   UNL     1       3.271  -7.645  25.027  0.00  0.00    +0.104 C 
BRANCH  23  24
ATOM     24  N   UNL     1       4.440  -7.273  24.210  0.00  0.00    -0.314 NA
ATOM     25  H   UNL     1       5.232  -7.059  24.818  0.00  0.00    +0.122 HD
BRANCH  24  26
ATOM     26  C   UNL     1       4.137  -6.075  23.411  0.00  0.00    +0.083 C 
BRANCH  26  27
ATOM     27  C   UNL     1       5.415  -5.280  23.128  0.00  0.00    +0.043 C 
BRANCH  27  28
ATOM     28  C   UNL     1       5.102  -3.846  22.716  0.00  0.00    +0.157 C 
BRANCH  28  29
ATOM     29  O   UNL     1       6.158  -3.331  21.917  0.00  0.00    -0.395 OA
ATOM     30  H   UNL     1       6.336  -3.986  21.219  0.00  0.00    +0.209 HD
ENDBRANCH  28  29
ENDBRANCH  27  28
ENDBRANCH  26  27
ENDBRANCH  24  26
ENDBRANCH  23  24
ENDBRANCH  22  23
ENDBRANCH  19  22
ENDBRANCH  13  19
ENDBRANCH   1  16
BRANCH   9  31
ATOM     31  O   UNL     1       9.630   2.152  24.650  0.00  0.00    -0.475 OA
BRANCH  31  32
ATOM     32  C   UNL     1       9.370   3.219  23.742  0.00  0.00    +0.234 C 
BRANCH  32  33
ATOM     33  C   UNL     1       8.392   4.196  24.438  0.00  0.00    +0.027 C 
ATOM     34  C   UNL     1       7.077   4.352  23.662  0.00  0.00    +0.007 C 
ATOM     35  C   UNL     1       7.259   5.126  22.355  0.00  0.00    +0.000 C 
ATOM     36  C   UNL     1       7.918   6.481  22.590  0.00  0.00    +0.000 C 
ATOM     37  C   UNL     1       9.212   6.371  23.390  0.00  0.00    +0.000 C 
ATOM     38  C   UNL     1       9.016   5.582  24.683  0.00  0.00    +0.007 C 
ENDBRANCH  32  33
ENDBRANCH  31  32
ENDBRANCH   9  31
TORSDOF 12
ENDMDL
MODEL 7
REMARK VINA RESULT:      -6.4      2.706      4.260
REMARK  Name = 
REMARK  12 active torsions:
REMARK  status: ('A' for Active; 'I' for Inactive)
REMARK    1  A    between atoms: O_1  and  C_2
REMARK    2  A    between atoms: C_2  and  C_3
REMARK    3  A    between atoms: C_3  and  C_4
REMARK    4  A    between atoms: C_4  and  N_5
REMARK    5  A    between atoms: N_5  and  C_6
REMARK    6  A    between atoms: C_6  and  C_7
REMARK    7  A    between atoms: C_7  and  S_8
REMARK    8  A    between atoms: S_8  and  C_11
REMARK    9  A    between atoms: C_14  and  N_15
REMARK   10  A    between atoms: C_18  and  O_19
REMARK   11  A    between atoms: O_19  and  C_20
REMARK   12  A    between atoms: C_20  and  C_21
REMARK                            x       y       z     vdW  Elec       q    Type
REMARK                         _______ _______ _______ _____ _____    ______ ____
ROOT
ATOM      1  N   UNL     1       9.708  -0.238  24.691  0.00  0.00    -0.283 N 
ATOM      2  H   UNL     1      10.395  -0.561  25.359  0.00  0.00    +0.155 HD
ATOM      3  C   UNL     1       8.765  -1.238  24.422  0.00  0.00    +0.225 A 
ATOM      4  N   UNL     1       7.896  -1.005  23.419  0.00  0.00    -0.195 NA
ATOM      5  C   UNL     1       7.042  -2.008  23.224  0.00  0.00    +0.167 A 
ATOM      6  C   UNL     1       6.958  -3.191  23.922  0.00  0.00    +0.169 A 
ATOM      7  N   UNL     1       5.928  -3.965  23.431  0.00  0.00    -0.229 NA
ATOM      8  C   UNL     1       5.411  -3.259  22.447  0.00  0.00    +0.199 A 
ATOM      9  C   UNL     1       7.898  -3.350  24.941  0.00  0.00    +0.248 A 
ATOM     10  N   UNL     1       6.066  -2.072  22.274  0.00  0.00    -0.329 N 
ATOM     11  H   UNL     1       5.882  -1.364  21.580  0.00  0.00    +0.168 HD
ATOM     12  N   UNL     1       8.818  -2.367  25.172  0.00  0.00    -0.177 NA
ENDROOT
BRANCH   1  16
ATOM     13  C   UNL     1       9.267   3.950  24.402  0.00  0.00    +0.088 A 
ATOM     14  C   UNL     1      10.281   3.303  23.695  0.00  0.00    +0.029 A 
ATOM     15  C   UNL     1      10.418   1.911  23.804  0.00  0.00    +0.025 A 
ATOM     16  C   UNL     1       9.544   1.157  24.602  0.00  0.00    +0.034 A 
ATOM     17  C   UNL     1       8.495   1.832  25.246  0.00  0.00    +0.025 A 
ATOM     18  C   UNL     1       8.352   3.219  25.156  0.00  0.00    +0.029 A 
BRANCH  13  19
ATOM     19  S   UNL     1       9.127   5.724  24.349  0.00  0.00    -0.002 S 
ATOM     20  O   UNL     1       9.310   6.214  25.702  0.00  0.00    -0.169 OA
ATOM     21  O   UNL     1       9.973   6.190  23.267  0.00  0.00    -0.169 OA
BRANCH  19  22
ATOM     22  C   UNL     1       7.420   5.959  23.877  0.00  0.00    +0.187 C 
BRANCH  22  23
ATOM     23  C   UNL     1       7.257   5.820  22.371  0.00  0.00    +0.104 C 
BRANCH  23  24
ATOM     24  N   UNL     1       5.963   5.197  22.043  0.00  0.00    -0.314 NA
ATOM     25  H   UNL     1       5.347   5.888  21.613  0.00  0.00    +0.122 HD
BRANCH  24  26
ATOM     26  C   UNL     1       5.315   4.702  23.267  0.00  0.00    +0.083 C 
BRANCH  26  27
ATOM     27  C   UNL     1       5.136   3.182  23.205  0.00  0.00    +0.043 C 
BRANCH  27  28
ATOM     28  C   UNL     1       6.179   2.535  22.300  0.00  0.00    +0.157 C 
BRANCH  28  29
ATOM     29  O   UNL     1       6.140   1.122  22.452  0.00  0.00    -0.395 OA
ATOM     30  H   UNL     1       6.742   0.746  21.786  0.00  0.00    +0.209 HD
ENDBRANCH  28  29
ENDBRANCH  27  28
ENDBRANCH  26  27
ENDBRANCH  24  26
ENDBRANCH  23  24
ENDBRANCH  22  23
ENDBRANCH  19  22
ENDBRANCH  13  19
ENDBRANCH   1  16
BRANCH   9  31
ATOM     31  O   UNL     1       7.947  -4.546  25.623  0.00  0.00    -0.475 OA
BRANCH  31  32
ATOM     32  C   UNL     1       7.456  -4.489  26.960  0.00  0.00    +0.234 C 
BRANCH  32  33
ATOM     33  C   UNL     1       6.668  -5.795  27.224  0.00  0.00    +0.027 C 
ATOM     34  C   UNL     1       5.469  -5.950  26.278  0.00  0.00    +0.007 C 
ATOM     35  C   UNL     1       4.348  -4.957  26.590  0.00  0.00    +0.000 C 
ATOM     36  C   UNL     1       3.909  -5.044  28.047  0.00  0.00    +0.000 C 
ATOM     37  C   UNL     1       5.079  -4.928  29.020  0.00  0.00    +0.000 C 
ATOM     38  C   UNL     1       6.195  -5.915  28.684  0.00  0.00    +0.007 C 
ENDBRANCH  32  33
ENDBRANCH  31  32
ENDBRANCH   9  31
TORSDOF 12
ENDMDL
MODEL 8
REMARK VINA RESULT:      -6.3      3.265     10.539
REMARK  Name = 
REMARK  12 active torsions:
REMARK  status: ('A' for Active; 'I' for Inactive)
REMARK    1  A    between atoms: O_1  and  C_2
REMARK    2  A    between atoms: C_2  and  C_3
REMARK    3  A    between atoms: C_3  and  C_4
REMARK    4  A    between atoms: C_4  and  N_5
REMARK    5  A    between atoms: N_5  and  C_6
REMARK    6  A    between atoms: C_6  and  C_7
REMARK    7  A    between atoms: C_7  and  S_8
REMARK    8  A    between atoms: S_8  and  C_11
REMARK    9  A    between atoms: C_14  and  N_15
REMARK   10  A    between atoms: C_18  and  O_19
REMARK   11  A    between atoms: O_19  and  C_20
REMARK   12  A    between atoms: C_20  and  C_21
REMARK                            x       y       z     vdW  Elec       q    Type
REMARK                         _______ _______ _______ _____ _____    ______ ____
ROOT
ATOM      1  N   UNL     1       6.180  -1.633  22.615  0.00  0.00    -0.283 N 
ATOM      2  H   UNL     1       5.479  -1.180  22.045  0.00  0.00    +0.155 HD
ATOM      3  C   UNL     1       7.172  -0.725  23.004  0.00  0.00    +0.225 A 
ATOM      4  N   UNL     1       8.258  -1.231  23.620  0.00  0.00    -0.195 NA
ATOM      5  C   UNL     1       9.154  -0.303  23.947  0.00  0.00    +0.167 A 
ATOM      6  C   UNL     1       9.075   1.056  23.738  0.00  0.00    +0.169 A 
ATOM      7  N   UNL     1      10.197   1.683  24.237  0.00  0.00    -0.229 NA
ATOM      8  C   UNL     1      10.941   0.713  24.726  0.00  0.00    +0.199 A 
ATOM      9  C   UNL     1       7.919   1.493  23.092  0.00  0.00    +0.248 A 
ATOM     10  N   UNL     1      10.356  -0.511  24.556  0.00  0.00    -0.329 N 
ATOM     11  H   UNL     1      10.725  -1.411  24.822  0.00  0.00    +0.168 HD
ATOM     12  N   UNL     1       6.973   0.584  22.708  0.00  0.00    -0.177 NA
ENDROOT
BRANCH   1  16
ATOM     13  C   UNL     1       4.943  -5.126  24.638  0.00  0.00    +0.088 A 
ATOM     14  C   UNL     1       4.668  -3.870  25.179  0.00  0.00    +0.029 A 
ATOM     15  C   UNL     1       5.089  -2.717  24.498  0.00  0.00    +0.025 A 
ATOM     16  C   UNL     1       5.770  -2.807  23.275  0.00  0.00    +0.034 A 
ATOM     17  C   UNL     1       5.971  -4.084  22.726  0.00  0.00    +0.025 A 
ATOM     18  C   UNL     1       5.568  -5.241  23.398  0.00  0.00    +0.029 A 
BRANCH  13  19
ATOM     19  S   UNL     1       4.497  -6.603  25.526  0.00  0.00    -0.002 S 
ATOM     20  O   UNL     1       4.265  -7.646  24.545  0.00  0.00    -0.169 OA
ATOM     21  O   UNL     1       5.473  -6.779  26.585  0.00  0.00    -0.169 OA
BRANCH  19  22
ATOM     22  C   UNL     1       2.934  -6.147  26.264  0.00  0.00    +0.187 C 
BRANCH  22  23
ATOM     23  C   UNL     1       3.093  -5.928  27.760  0.00  0.00    +0.104 C 
BRANCH  23  24
ATOM     24  N   UNL     1       3.390  -7.199  28.444  0.00  0.00    -0.314 NA
ATOM     25  H   UNL     1       2.618  -7.853  28.307  0.00  0.00    +0.122 HD
BRANCH  24  26
ATOM     26  C   UNL     1       3.548  -6.970  29.889  0.00  0.00    +0.083 C 
BRANCH  26  27
ATOM     27  C   UNL     1       4.556  -5.847  30.148  0.00  0.00    +0.043 C 
BRANCH  27  28
ATOM     28  C   UNL     1       5.986  -6.376  30.183  0.00  0.00    +0.157 C 
BRANCH  28  29
ATOM     29  O   UNL     1       6.698  -5.922  29.041  0.00  0.00    -0.395 OA
ATOM     30  H   UNL     1       6.109  -6.029  28.274  0.00  0.00    +0.209 HD
ENDBRANCH  28  29
ENDBRANCH  27  28
ENDBRANCH  26  27
ENDBRANCH  24  26
ENDBRANCH  23  24
ENDBRANCH  22  23
ENDBRANCH  19  22
ENDBRANCH  13  19
ENDBRANCH   1  16
BRANCH   9  31
ATOM     31  O   UNL     1       7.804   2.824  22.756  0.00  0.00    -0.475 OA
BRANCH  31  32
ATOM     32  C   UNL     1       6.519   3.391  23.000  0.00  0.00    +0.234 C 
BRANCH  32  33
ATOM     33  C   UNL     1       6.724   4.649  23.879  0.00  0.00    +0.027 C 
ATOM     34  C   UNL     1       5.459   5.515  23.955  0.00  0.00    +0.007 C 
ATOM     35  C   UNL     1       5.155   6.223  22.634  0.00  0.00    +0.000 C 
ATOM     36  C   UNL     1       6.346   7.040  22.146  0.00  0.00    +0.000 C 
ATOM     37  C   UNL     1       7.633   6.222  22.089  0.00  0.00    +0.000 C 
ATOM     38  C   UNL     1       7.912   5.509  23.410  0.00  0.00    +0.007 C 
ENDBRANCH  32  33
ENDBRANCH  31  32
ENDBRANCH   9  31
TORSDOF 12
ENDMDL
MODEL 9
REMARK VINA RESULT:      -6.2      3.375      9.950
REMARK  Name = 
REMARK  12 active torsions:
REMARK  status: ('A' for Active; 'I' for Inactive)
REMARK    1  A    between atoms: O_1  and  C_2
REMARK    2  A    between atoms: C_2  and  C_3
REMARK    3  A    between atoms: C_3  and  C_4
REMARK    4  A    between atoms: C_4  and  N_5
REMARK    5  A    between atoms: N_5  and  C_6
REMARK    6  A    between atoms: C_6  and  C_7
REMARK    7  A    between atoms: C_7  and  S_8
REMARK    8  A    between atoms: S_8  and  C_11
REMARK    9  A    between atoms: C_14  and  N_15
REMARK   10  A    between atoms: C_18  and  O_19
REMARK   11  A    between atoms: O_19  and  C_20
REMARK   12  A    between atoms: C_20  and  C_21
REMARK                            x       y       z     vdW  Elec       q    Type
REMARK                         _______ _______ _______ _____ _____    ______ ____
ROOT
ATOM      1  N   UNL     1       6.784  -3.768  22.621  0.00  0.00    -0.283 N 
ATOM      2  H   UNL     1       6.863  -3.574  21.632  0.00  0.00    +0.155 HD
ATOM      3  C   UNL     1       7.417  -2.773  23.377  0.00  0.00    +0.225 A 
ATOM      4  N   UNL     1       7.541  -2.996  24.700  0.00  0.00    -0.195 NA
ATOM      5  C   UNL     1       8.161  -2.007  25.340  0.00  0.00    +0.167 A 
ATOM      6  C   UNL     1       8.649  -0.834  24.810  0.00  0.00    +0.169 A 
ATOM      7  N   UNL     1       9.208  -0.056  25.801  0.00  0.00    -0.229 NA
ATOM      8  C   UNL     1       9.065  -0.757  26.906  0.00  0.00    +0.199 A 
ATOM      9  C   UNL     1       8.481  -0.688  23.433  0.00  0.00    +0.248 A 
ATOM     10  N   UNL     1       8.451  -1.956  26.671  0.00  0.00    -0.329 N 
ATOM     11  H   UNL     1       8.243  -2.682  27.340  0.00  0.00    +0.168 HD
ATOM     12  N   UNL     1       7.875  -1.681  22.715  0.00  0.00    -0.177 NA
ENDROOT
BRANCH   1  16
ATOM     13  C   UNL     1       3.606  -6.305  23.751  0.00  0.00    +0.088 A 
ATOM     14  C   UNL     1       4.898  -6.817  23.622  0.00  0.00    +0.029 A 
ATOM     15  C   UNL     1       5.944  -5.963  23.241  0.00  0.00    +0.025 A 
ATOM     16  C   UNL     1       5.715  -4.599  23.002  0.00  0.00    +0.034 A 
ATOM     17  C   UNL     1       4.416  -4.105  23.206  0.00  0.00    +0.025 A 
ATOM     18  C   UNL     1       3.363  -4.946  23.573  0.00  0.00    +0.029 A 
BRANCH  13  19
ATOM     19  S   UNL     1       2.248  -7.387  24.147  0.00  0.00    -0.002 S 
ATOM     20  O   UNL     1       1.335  -7.366  23.020  0.00  0.00    -0.169 OA
ATOM     21  O   UNL     1       2.816  -8.633  24.624  0.00  0.00    -0.169 OA
BRANCH  19  22
ATOM     22  C   UNL     1       1.482  -6.548  25.526  0.00  0.00    +0.187 C 
BRANCH  22  23
ATOM     23  C   UNL     1       1.649  -7.356  26.804  0.00  0.00    +0.104 C 
BRANCH  23  24
ATOM     24  N   UNL     1       3.072  -7.464  27.168  0.00  0.00    -0.314 NA
ATOM     25  H   UNL     1       3.171  -8.048  28.001  0.00  0.00    +0.122 HD
BRANCH  24  26
ATOM     26  C   UNL     1       3.619  -6.133  27.472  0.00  0.00    +0.083 C 
BRANCH  26  27
ATOM     27  C   UNL     1       5.132  -6.107  27.238  0.00  0.00    +0.043 C 
BRANCH  27  28
ATOM     28  C   UNL     1       5.633  -4.690  26.980  0.00  0.00    +0.157 C 
BRANCH  28  29
ATOM     29  O   UNL     1       6.952  -4.543  27.489  0.00  0.00    -0.395 OA
ATOM     30  H   UNL     1       7.224  -3.624  27.319  0.00  0.00    +0.209 HD
ENDBRANCH  28  29
ENDBRANCH  27  28
ENDBRANCH  26  27
ENDBRANCH  24  26
ENDBRANCH  23  24
ENDBRANCH  22  23
ENDBRANCH  19  22
ENDBRANCH  13  19
ENDBRANCH   1  16
BRANCH   9  31
ATOM     31  O   UNL     1       9.029   0.410  22.806  0.00  0.00    -0.475 OA
BRANCH  31  32
ATOM     32  C   UNL     1       8.092   1.222  22.103  0.00  0.00    +0.234 C 
BRANCH  32  33
ATOM     33  C   UNL     1       8.426   2.700  22.420  0.00  0.00    +0.027 C 
ATOM     34  C   UNL     1       8.715   2.923  23.911  0.00  0.00    +0.007 C 
ATOM     35  C   UNL     1       7.459   2.796  24.774  0.00  0.00    +0.000 C 
ATOM     36  C   UNL     1       6.348   3.722  24.291  0.00  0.00    +0.000 C 
ATOM     37  C   UNL     1       6.054   3.555  22.802  0.00  0.00    +0.000 C 
ATOM     38  C   UNL     1       7.321   3.668  21.958  0.00  0.00    +0.007 C 
ENDBRANCH  32  33
ENDBRANCH  31  32
ENDBRANCH   9  31
TORSDOF 12
ENDMDL
