MODEL 1
REMARK VINA RESULT:      -4.6      0.000      0.000
REMARK  Name = 
REMARK  5 active torsions:
REMARK  status: ('A' for Active; 'I' for Inactive)
REMARK    1  A    between atoms: C_1  and  C_2
REMARK    2  A    between atoms: C_5  and  C_6
REMARK    3  A    between atoms: C_6  and  O_7
REMARK    4  A    between atoms: C_8  and  C_9
REMARK    5  A    between atoms: C_11  and  O_12
REMARK                            x       y       z     vdW  Elec       q    Type
REMARK                         _______ _______ _______ _____ _____    ______ ____
ROOT
ATOM      1  C   UNL     1       9.805  -4.878  25.541  0.00  0.00    +0.069 C 
ATOM      2  C   UNL     1       8.369  -5.179  25.232  0.00  0.00    +0.080 A 
ATOM      3  C   UNL     1       7.488  -5.576  26.236  0.00  0.00    +0.148 A 
ATOM      4  C   UNL     1       6.152  -5.838  25.895  0.00  0.00    +0.064 A 
ATOM      5  C   UNL     1       5.731  -5.709  24.562  0.00  0.00    +0.010 A 
ATOM      6  C   UNL     1       6.692  -5.307  23.640  0.00  0.00    +0.117 A 
ATOM      7  N   UNL     1       7.981  -5.043  23.941  0.00  0.00    -0.256 NA
ENDROOT
BRANCH   3   8
ATOM      8  O   UNL     1       7.967  -5.690  27.515  0.00  0.00    -0.504 OA
ATOM      9  H   UNL     1       7.666  -6.553  27.882  0.00  0.00    +0.292 HD
ENDBRANCH   3   8
BRANCH   4  10
ATOM     10  C   UNL     1       5.200  -6.237  26.958  0.00  0.00    +0.262 C 
ATOM     11  O   UNL     1       5.465  -7.162  27.722  0.00  0.00    -0.296 OA
ENDBRANCH   4  10
BRANCH   5  12
ATOM     12  C   UNL     1       4.335  -5.967  24.088  0.00  0.00    +0.193 C 
BRANCH  12  13
ATOM     13  O   UNL     1       4.175  -7.350  23.816  0.00  0.00    -0.390 OA
ATOM     14  H   UNL     1       4.509  -7.511  22.915  0.00  0.00    +0.210 HD
ENDBRANCH  12  13
ENDBRANCH   5  12
TORSDOF 4
ENDMDL
MODEL 2
REMARK VINA RESULT:      -4.5      1.449      3.638
REMARK  Name = 
REMARK  5 active torsions:
REMARK  status: ('A' for Active; 'I' for Inactive)
REMARK    1  A    between atoms: C_1  and  C_2
REMARK    2  A    between atoms: C_5  and  C_6
REMARK    3  A    between atoms: C_6  and  O_7
REMARK    4  A    between atoms: C_8  and  C_9
REMARK    5  A    between atoms: C_11  and  O_12
REMARK                            x       y       z     vdW  Elec       q    Type
REMARK                         _______ _______ _______ _____ _____    ______ ____
ROOT
ATOM      1  C   UNL     1       4.252  -5.976  23.311  0.00  0.00    +0.069 C 
ATOM      2  C   UNL     1       5.596  -5.593  23.857  0.00  0.00    +0.080 A 
ATOM      3  C   UNL     1       5.800  -5.461  25.229  0.00  0.00    +0.148 A 
ATOM      4  C   UNL     1       7.078  -5.108  25.689  0.00  0.00    +0.064 A 
ATOM      5  C   UNL     1       8.115  -4.884  24.770  0.00  0.00    +0.010 A 
ATOM      6  C   UNL     1       7.803  -5.042  23.425  0.00  0.00    +0.117 A 
ATOM      7  N   UNL     1       6.586  -5.387  22.955  0.00  0.00    -0.256 NA
ENDROOT
BRANCH   3   8
ATOM      8  O   UNL     1       4.741  -5.685  26.070  0.00  0.00    -0.504 OA
ATOM      9  H   UNL     1       5.095  -5.951  26.949  0.00  0.00    +0.292 HD
ENDBRANCH   3   8
BRANCH   4  10
ATOM     10  C   UNL     1       7.313  -4.989  27.148  0.00  0.00    +0.262 C 
ATOM     11  O   UNL     1       7.304  -5.985  27.867  0.00  0.00    -0.296 OA
ENDBRANCH   4  10
BRANCH   5  12
ATOM     12  C   UNL     1       9.511  -4.500  25.150  0.00  0.00    +0.193 C 
BRANCH  12  13
ATOM     13  O   UNL     1      10.287  -5.671  25.347  0.00  0.00    -0.390 OA
ATOM     14  H   UNL     1      11.050  -5.621  24.744  0.00  0.00    +0.210 HD
ENDBRANCH  12  13
ENDBRANCH   5  12
TORSDOF 4
ENDMDL
MODEL 3
REMARK VINA RESULT:      -4.4      1.300      3.472
REMARK  Name = 
REMARK  5 active torsions:
REMARK  status: ('A' for Active; 'I' for Inactive)
REMARK    1  A    between atoms: C_1  and  C_2
REMARK    2  A    between atoms: C_5  and  C_6
REMARK    3  A    between atoms: C_6  and  O_7
REMARK    4  A    between atoms: C_8  and  C_9
REMARK    5  A    between atoms: C_11  and  O_12
REMARK                            x       y       z     vdW  Elec       q    Type
REMARK                         _______ _______ _______ _____ _____    ______ ____
ROOT
ATOM      1  C   UNL     1       6.457  -5.770  21.123  0.00  0.00    +0.069 C 
ATOM      2  C   UNL     1       6.665  -5.552  22.593  0.00  0.00    +0.080 A 
ATOM      3  C   UNL     1       5.661  -5.853  23.510  0.00  0.00    +0.148 A 
ATOM      4  C   UNL     1       5.909  -5.638  24.875  0.00  0.00    +0.064 A 
ATOM      5  C   UNL     1       7.146  -5.119  25.288  0.00  0.00    +0.010 A 
ATOM      6  C   UNL     1       8.077  -4.854  24.290  0.00  0.00    +0.117 A 
ATOM      7  N   UNL     1       7.868  -5.057  22.972  0.00  0.00    -0.256 NA
ENDROOT
BRANCH   3   8
ATOM      8  O   UNL     1       4.474  -6.348  23.038  0.00  0.00    -0.504 OA
ATOM      9  H   UNL     1       4.035  -6.847  23.765  0.00  0.00    +0.292 HD
ENDBRANCH   3   8
BRANCH   4  10
ATOM     10  C   UNL     1       4.857  -5.978  25.863  0.00  0.00    +0.262 C 
ATOM     11  O   UNL     1       4.470  -7.137  25.992  0.00  0.00    -0.296 OA
ENDBRANCH   4  10
BRANCH   5  12
ATOM     12  C   UNL     1       7.515  -4.848  26.713  0.00  0.00    +0.193 C 
BRANCH  12  13
ATOM     13  O   UNL     1       7.984  -6.043  27.317  0.00  0.00    -0.390 OA
ATOM     14  H   UNL     1       7.700  -6.785  26.753  0.00  0.00    +0.210 HD
ENDBRANCH  12  13
ENDBRANCH   5  12
TORSDOF 4
ENDMDL
MODEL 4
REMARK VINA RESULT:      -4.4      3.835      5.050
REMARK  Name = 
REMARK  5 active torsions:
REMARK  status: ('A' for Active; 'I' for Inactive)
REMARK    1  A    between atoms: C_1  and  C_2
REMARK    2  A    between atoms: C_5  and  C_6
REMARK    3  A    between atoms: C_6  and  O_7
REMARK    4  A    between atoms: C_8  and  C_9
REMARK    5  A    between atoms: C_11  and  O_12
REMARK                            x       y       z     vdW  Elec       q    Type
REMARK                         _______ _______ _______ _____ _____    ______ ____
ROOT
ATOM      1  C   UNL     1       8.852  -5.522  25.388  0.00  0.00    +0.069 C 
ATOM      2  C   UNL     1       8.724  -4.326  24.490  0.00  0.00    +0.080 A 
ATOM      3  C   UNL     1       7.528  -4.051  23.831  0.00  0.00    +0.148 A 
ATOM      4  C   UNL     1       7.458  -2.916  23.010  0.00  0.00    +0.064 A 
ATOM      5  C   UNL     1       8.584  -2.091  22.857  0.00  0.00    +0.010 A 
ATOM      6  C   UNL     1       9.726  -2.459  23.560  0.00  0.00    +0.117 A 
ATOM      7  N   UNL     1       9.820  -3.540  24.361  0.00  0.00    -0.256 NA
ENDROOT
BRANCH   3   8
ATOM      8  O   UNL     1       6.470  -4.902  24.018  0.00  0.00    -0.504 OA
ATOM      9  H   UNL     1       6.590  -5.361  24.881  0.00  0.00    +0.292 HD
ENDBRANCH   3   8
BRANCH   4  10
ATOM     10  C   UNL     1       6.183  -2.598  22.323  0.00  0.00    +0.262 C 
ATOM     11  O   UNL     1       5.611  -3.445  21.642  0.00  0.00    -0.296 OA
ENDBRANCH   4  10
BRANCH   5  12
ATOM     12  C   UNL     1       8.622  -0.861  22.005  0.00  0.00    +0.193 C 
BRANCH  12  13
ATOM     13  O   UNL     1       9.706  -0.950  21.094  0.00  0.00    -0.390 OA
ATOM     14  H   UNL     1       9.927  -1.893  20.994  0.00  0.00    +0.210 HD
ENDBRANCH  12  13
ENDBRANCH   5  12
TORSDOF 4
ENDMDL
MODEL 5
REMARK VINA RESULT:      -4.4      2.183      4.581
REMARK  Name = 
REMARK  5 active torsions:
REMARK  status: ('A' for Active; 'I' for Inactive)
REMARK    1  A    between atoms: C_1  and  C_2
REMARK    2  A    between atoms: C_5  and  C_6
REMARK    3  A    between atoms: C_6  and  O_7
REMARK    4  A    between atoms: C_8  and  C_9
REMARK    5  A    between atoms: C_11  and  O_12
REMARK                            x       y       z     vdW  Elec       q    Type
REMARK                         _______ _______ _______ _____ _____    ______ ____
ROOT
ATOM      1  C   UNL     1       3.993  -7.051  25.536  0.00  0.00    +0.069 C 
ATOM      2  C   UNL     1       5.283  -6.329  25.282  0.00  0.00    +0.080 A 
ATOM      3  C   UNL     1       5.641  -5.932  23.996  0.00  0.00    +0.148 A 
ATOM      4  C   UNL     1       6.855  -5.253  23.814  0.00  0.00    +0.064 A 
ATOM      5  C   UNL     1       7.686  -4.996  24.916  0.00  0.00    +0.010 A 
ATOM      6  C   UNL     1       7.233  -5.436  26.155  0.00  0.00    +0.117 A 
ATOM      7  N   UNL     1       6.068  -6.086  26.359  0.00  0.00    -0.256 NA
ENDROOT
BRANCH   3   8
ATOM      8  O   UNL     1       4.787  -6.222  22.963  0.00  0.00    -0.504 OA
ATOM      9  H   UNL     1       4.096  -5.521  22.927  0.00  0.00    +0.292 HD
ENDBRANCH   3   8
BRANCH   4  10
ATOM     10  C   UNL     1       7.235  -4.803  22.453  0.00  0.00    +0.262 C 
ATOM     11  O   UNL     1       7.130  -5.560  21.491  0.00  0.00    -0.296 OA
ENDBRANCH   4  10
BRANCH   5  12
ATOM     12  C   UNL     1       9.000  -4.285  24.836  0.00  0.00    +0.193 C 
BRANCH  12  13
ATOM     13  O   UNL     1      10.054  -5.234  24.850  0.00  0.00    -0.390 OA
ATOM     14  H   UNL     1      10.858  -4.774  25.151  0.00  0.00    +0.210 HD
ENDBRANCH  12  13
ENDBRANCH   5  12
TORSDOF 4
ENDMDL
MODEL 6
REMARK VINA RESULT:      -4.4      2.025      3.059
REMARK  Name = 
REMARK  5 active torsions:
REMARK  status: ('A' for Active; 'I' for Inactive)
REMARK    1  A    between atoms: C_1  and  C_2
REMARK    2  A    between atoms: C_5  and  C_6
REMARK    3  A    between atoms: C_6  and  O_7
REMARK    4  A    between atoms: C_8  and  C_9
REMARK    5  A    between atoms: C_11  and  O_12
REMARK                            x       y       z     vdW  Elec       q    Type
REMARK                         _______ _______ _______ _____ _____    ______ ____
ROOT
ATOM      1  C   UNL     1       9.041  -4.710  26.426  0.00  0.00    +0.069 C 
ATOM      2  C   UNL     1       7.789  -5.125  25.713  0.00  0.00    +0.080 A 
ATOM      3  C   UNL     1       7.653  -4.941  24.338  0.00  0.00    +0.148 A 
ATOM      4  C   UNL     1       6.464  -5.354  23.718  0.00  0.00    +0.064 A 
ATOM      5  C   UNL     1       5.438  -5.929  24.483  0.00  0.00    +0.010 A 
ATOM      6  C   UNL     1       5.678  -6.066  25.846  0.00  0.00    +0.117 A 
ATOM      7  N   UNL     1       6.813  -5.684  26.468  0.00  0.00    -0.256 NA
ENDROOT
BRANCH   3   8
ATOM      8  O   UNL     1       8.691  -4.365  23.652  0.00  0.00    -0.504 OA
ATOM      9  H   UNL     1       8.315  -3.811  22.930  0.00  0.00    +0.292 HD
ENDBRANCH   3   8
BRANCH   4  10
ATOM     10  C   UNL     1       6.318  -5.186  22.252  0.00  0.00    +0.262 C 
ATOM     11  O   UNL     1       7.170  -5.625  21.483  0.00  0.00    -0.296 OA
ENDBRANCH   4  10
BRANCH   5  12
ATOM     12  C   UNL     1       4.131  -6.400  23.926  0.00  0.00    +0.193 C 
BRANCH  12  13
ATOM     13  O   UNL     1       4.015  -7.802  24.111  0.00  0.00    -0.390 OA
ATOM     14  H   UNL     1       4.793  -8.216  23.697  0.00  0.00    +0.210 HD
ENDBRANCH  12  13
ENDBRANCH   5  12
TORSDOF 4
ENDMDL
MODEL 7
REMARK VINA RESULT:      -4.3      3.737      4.989
REMARK  Name = 
REMARK  5 active torsions:
REMARK  status: ('A' for Active; 'I' for Inactive)
REMARK    1  A    between atoms: C_1  and  C_2
REMARK    2  A    between atoms: C_5  and  C_6
REMARK    3  A    between atoms: C_6  and  O_7
REMARK    4  A    between atoms: C_8  and  C_9
REMARK    5  A    between atoms: C_11  and  O_12
REMARK                            x       y       z     vdW  Elec       q    Type
REMARK                         _______ _______ _______ _____ _____    ______ ____
ROOT
ATOM      1  C   UNL     1       6.196  -6.032  21.515  0.00  0.00    +0.069 C 
ATOM      2  C   UNL     1       6.494  -4.699  22.135  0.00  0.00    +0.080 A 
ATOM      3  C   UNL     1       7.561  -4.541  23.017  0.00  0.00    +0.148 A 
ATOM      4  C   UNL     1       7.802  -3.271  23.563  0.00  0.00    +0.064 A 
ATOM      5  C   UNL     1       6.966  -2.195  23.226  0.00  0.00    +0.010 A 
ATOM      6  C   UNL     1       5.930  -2.463  22.338  0.00  0.00    +0.117 A 
ATOM      7  N   UNL     1       5.680  -3.671  21.793  0.00  0.00    -0.256 NA
ENDROOT
BRANCH   3   8
ATOM      8  O   UNL     1       8.332  -5.636  23.309  0.00  0.00    -0.504 OA
ATOM      9  H   UNL     1       8.306  -6.248  22.538  0.00  0.00    +0.292 HD
ENDBRANCH   3   8
BRANCH   4  10
ATOM     10  C   UNL     1       8.950  -3.085  24.482  0.00  0.00    +0.262 C 
ATOM     11  O   UNL     1      10.089  -3.384  24.130  0.00  0.00    -0.296 OA
ENDBRANCH   4  10
BRANCH   5  12
ATOM     12  C   UNL     1       7.128  -0.803  23.752  0.00  0.00    +0.193 C 
BRANCH  12  13
ATOM     13  O   UNL     1       6.221   0.063  23.088  0.00  0.00    -0.390 OA
ATOM     14  H   UNL     1       6.676   0.415  22.302  0.00  0.00    +0.210 HD
ENDBRANCH  12  13
ENDBRANCH   5  12
TORSDOF 4
ENDMDL
MODEL 8
REMARK VINA RESULT:      -4.3      1.922      3.400
REMARK  Name = 
REMARK  5 active torsions:
REMARK  status: ('A' for Active; 'I' for Inactive)
REMARK    1  A    between atoms: C_1  and  C_2
REMARK    2  A    between atoms: C_5  and  C_6
REMARK    3  A    between atoms: C_6  and  O_7
REMARK    4  A    between atoms: C_8  and  C_9
REMARK    5  A    between atoms: C_11  and  O_12
REMARK                            x       y       z     vdW  Elec       q    Type
REMARK                         _______ _______ _______ _____ _____    ______ ____
ROOT
ATOM      1  C   UNL     1       5.277  -6.575  27.449  0.00  0.00    +0.069 C 
ATOM      2  C   UNL     1       5.870  -5.969  26.211  0.00  0.00    +0.080 A 
ATOM      3  C   UNL     1       7.183  -5.504  26.199  0.00  0.00    +0.148 A 
ATOM      4  C   UNL     1       7.692  -4.953  25.013  0.00  0.00    +0.064 A 
ATOM      5  C   UNL     1       6.876  -4.868  23.874  0.00  0.00    +0.010 A 
ATOM      6  C   UNL     1       5.581  -5.360  23.996  0.00  0.00    +0.117 A 
ATOM      7  N   UNL     1       5.068  -5.901  25.121  0.00  0.00    -0.256 NA
ENDROOT
BRANCH   3   8
ATOM      8  O   UNL     1       7.922  -5.610  27.349  0.00  0.00    -0.504 OA
ATOM      9  H   UNL     1       8.409  -6.465  27.326  0.00  0.00    +0.292 HD
ENDBRANCH   3   8
BRANCH   4  10
ATOM     10  C   UNL     1       9.096  -4.478  24.981  0.00  0.00    +0.262 C 
ATOM     11  O   UNL     1      10.027  -5.265  25.139  0.00  0.00    -0.296 OA
ENDBRANCH   4  10
BRANCH   5  12
ATOM     12  C   UNL     1       7.313  -4.296  22.562  0.00  0.00    +0.193 C 
BRANCH  12  13
ATOM     13  O   UNL     1       7.076  -5.241  21.531  0.00  0.00    -0.390 OA
ATOM     14  H   UNL     1       7.090  -6.126  21.938  0.00  0.00    +0.210 HD
ENDBRANCH  12  13
ENDBRANCH   5  12
TORSDOF 4
ENDMDL
MODEL 9
REMARK VINA RESULT:      -4.3      6.337      7.528
REMARK  Name = 
REMARK  5 active torsions:
REMARK  status: ('A' for Active; 'I' for Inactive)
REMARK    1  A    between atoms: C_1  and  C_2
REMARK    2  A    between atoms: C_5  and  C_6
REMARK    3  A    between atoms: C_6  and  O_7
REMARK    4  A    between atoms: C_8  and  C_9
REMARK    5  A    between atoms: C_11  and  O_12
REMARK                            x       y       z     vdW  Elec       q    Type
REMARK                         _______ _______ _______ _____ _____    ______ ____
ROOT
ATOM      1  C   UNL     1       7.706  -3.434  22.710  0.00  0.00    +0.069 C 
ATOM      2  C   UNL     1       8.284  -2.051  22.756  0.00  0.00    +0.080 A 
ATOM      3  C   UNL     1       7.466  -0.938  22.934  0.00  0.00    +0.148 A 
ATOM      4  C   UNL     1       8.058   0.333  22.977  0.00  0.00    +0.064 A 
ATOM      5  C   UNL     1       9.448   0.464  22.831  0.00  0.00    +0.010 A 
ATOM      6  C   UNL     1      10.170  -0.712  22.658  0.00  0.00    +0.117 A 
ATOM      7  N   UNL     1       9.628  -1.947  22.619  0.00  0.00    -0.256 NA
ENDROOT
BRANCH   3   8
ATOM      8  O   UNL     1       6.115  -1.136  23.062  0.00  0.00    -0.504 OA
ATOM      9  H   UNL     1       5.899  -1.184  24.021  0.00  0.00    +0.292 HD
ENDBRANCH   3   8
BRANCH   4  10
ATOM     10  C   UNL     1       7.200   1.523  23.192  0.00  0.00    +0.262 C 
ATOM     11  O   UNL     1       6.360   1.848  22.356  0.00  0.00    -0.296 OA
ENDBRANCH   4  10
BRANCH   5  12
ATOM     12  C   UNL     1      10.181   1.768  22.857  0.00  0.00    +0.193 C 
BRANCH  12  13
ATOM     13  O   UNL     1      10.216   2.319  21.550  0.00  0.00    -0.390 OA
ATOM     14  H   UNL     1      10.995   2.901  21.499  0.00  0.00    +0.210 HD
ENDBRANCH  12  13
ENDBRANCH   5  12
TORSDOF 4
ENDMDL
