MODEL 1
REMARK VINA RESULT:      -7.4      0.000      0.000
REMARK  Name = 
REMARK  16 active torsions:
REMARK  status: ('A' for Active; 'I' for Inactive)
REMARK    1  A    between atoms: C_1  and  C_2
REMARK    2  A    between atoms: C_2  and  C_3
REMARK    3  A    between atoms: C_2  and  C_4
REMARK    4  A    between atoms: C_4  and  C_5
REMARK    5  A    between atoms: C_5  and  N_7
REMARK    6  A    between atoms: C_5  and  C_11
REMARK    7  A    between atoms: N_13  and  C_14
REMARK    8  A    between atoms: C_14  and  C_15
REMARK    9  A    between atoms: C_20  and  C_23
REMARK   10  A    between atoms: C_25  and  C_29
REMARK   11  A    between atoms: N_27  and  C_28
REMARK   12  A    between atoms: C_32  and  O_33
REMARK   13  A    between atoms: O_33  and  C_34
REMARK   14  A    between atoms: C_34  and  C_35
REMARK   15  A    between atoms: C_38  and  C_40
REMARK   16  A    between atoms: C_40  and  O_41
REMARK                            x       y       z     vdW  Elec       q    Type
REMARK                         _______ _______ _______ _____ _____    ______ ____
ROOT
ATOM      1  C   UNL     1       8.611  -2.097  24.897  0.00  0.00    +0.233 C 
ATOM      2  N   UNL     1       9.199  -0.985  24.290  0.00  0.00    -0.300 N 
ATOM      3  C   UNL     1       8.731  -0.500  22.993  0.00  0.00    +0.108 C 
ATOM      4  C   UNL     1       9.815   0.236  22.217  0.00  0.00    +0.028 C 
ATOM      5  C   UNL     1      10.563   1.287  23.044  0.00  0.00    +0.040 C 
ATOM      6  C   UNL     1      10.969   0.717  24.415  0.00  0.00    +0.028 C 
ATOM      7  C   UNL     1       9.826   0.013  25.149  0.00  0.00    +0.108 C 
ATOM      8  O   UNL     1       8.418  -2.169  26.111  0.00  0.00    -0.274 OA
ENDROOT
BRANCH   5   9
ATOM      9  C   UNL     1       9.790   2.569  23.185  0.00  0.00    +0.043 A 
ATOM     10  N   UNL     1      10.342   3.804  23.409  0.00  0.00    -0.271 N 
ATOM     11  C   UNL     1      11.743   4.150  23.465  0.00  0.00    +0.172 C 
ATOM     12  N   UNL     1       9.429   4.767  23.621  0.00  0.00    -0.171 NA
ATOM     13  C   UNL     1       8.238   4.173  23.509  0.00  0.00    +0.094 A 
ATOM     14  C   UNL     1       8.436   2.807  23.166  0.00  0.00    +0.053 A 
BRANCH  13  15
ATOM     15  C   UNL     1       6.940   4.833  23.749  0.00  0.00    +0.022 A 
ATOM     16  C   UNL     1       6.207   4.817  24.958  0.00  0.00    +0.072 A 
ATOM     17 CL   UNL     1       6.779   3.982  26.376  0.00  0.00    -0.081 Cl
ATOM     18  C   UNL     1       4.952   5.474  25.028  0.00  0.00    +0.101 A 
ATOM     19 CL   UNL     1       4.027   5.506  26.506  0.00  0.00    -0.078 Cl
ATOM     20  C   UNL     1       4.409   6.109  23.897  0.00  0.00    +0.141 A 
ATOM     21  C   UNL     1       5.147   6.154  22.722  0.00  0.00    +0.048 A 
ATOM     22  C   UNL     1       6.378   5.519  22.652  0.00  0.00    +0.015 A 
BRANCH  20  23
ATOM     23  O   UNL     1       3.160   6.673  23.988  0.00  0.00    -0.483 OA
BRANCH  23  24
ATOM     24  C   UNL     1       2.082   5.793  23.655  0.00  0.00    +0.303 C 
BRANCH  24  25
ATOM     25  C   UNL     1       1.920   5.822  22.187  0.00  0.00    +0.143 A 
ATOM     26  O   UNL     1       1.998   4.619  21.553  0.00  0.00    -0.450 OA
ATOM     27  C   UNL     1       1.877   4.859  20.215  0.00  0.00    +0.212 A 
ATOM     28  C   UNL     1       1.736   6.215  19.995  0.00  0.00    +0.057 A 
ATOM     29  C   UNL     1       1.762   6.835  21.270  0.00  0.00    +0.049 A 
BRANCH  27  30
ATOM     30  C   UNL     1       1.926   3.732  19.316  0.00  0.00    +0.372 C 
ATOM     31  O   UNL     1       1.596   2.585  19.578  0.00  0.00    -0.242 OA
BRANCH  30  32
ATOM     32  O   UNL     1       2.383   4.109  18.094  0.00  0.00    -0.475 OA
ATOM     33  H   UNL     1       2.940   3.396  17.713  0.00  0.00    +0.296 HD
ENDBRANCH  30  32
ENDBRANCH  27  30
ENDBRANCH  24  25
ENDBRANCH  23  24
ENDBRANCH  20  23
ENDBRANCH  13  15
ENDBRANCH   5   9
BRANCH   1  34
ATOM     34  C   UNL     1       8.231  -3.260  23.970  0.00  0.00    +0.200 C 
BRANCH  34  36
ATOM     35  C   UNL     1       6.913  -5.029  25.071  0.00  0.00    +0.250 C 
ATOM     36  N   UNL     1       6.968  -3.899  24.285  0.00  0.00    -0.304 N 
ATOM     37  H   UNL     1       6.140  -3.654  23.748  0.00  0.00    +0.149 HD
ATOM     38  O   UNL     1       7.908  -5.533  25.594  0.00  0.00    -0.272 OA
BRANCH  35  39
ATOM     39  C   UNL     1       5.503  -5.599  25.331  0.00  0.00    +0.231 C 
BRANCH  39  40
ATOM     40  N   UNL     1       5.552  -6.646  26.362  0.00  0.00    -0.265 N 
ATOM     41  H   UNL     1       5.542  -7.594  26.008  0.00  0.00    +0.259 HD
ATOM     42  C   UNL     1       5.223  -6.503  27.664  0.00  0.00    +0.377 C 
ATOM     43  N   UNL     1       5.217  -7.477  28.500  0.00  0.00    -0.130 NA
ATOM     44  H   UNL     1       5.492  -8.340  28.028  0.00  0.00    +0.306 HD
ATOM     45  N   UNL     1       4.922  -5.274  28.116  0.00  0.00    -0.289 N 
ATOM     46  H   UNL     1       4.538  -5.333  29.055  0.00  0.00    +0.255 HD
ATOM     47  H   UNL     1       4.334  -4.704  27.523  0.00  0.00    +0.255 HD
ENDBRANCH  39  40
BRANCH  39  48
ATOM     48  C   UNL     1       4.893  -6.166  24.032  0.00  0.00    +0.053 C 
BRANCH  48  50
ATOM     49  C   UNL     1       2.532  -6.254  23.124  0.00  0.00    +0.007 C 
ATOM     50  C   UNL     1       3.722  -5.343  23.443  0.00  0.00    -0.013 C 
ATOM     51  C   UNL     1       3.247  -4.208  24.355  0.00  0.00    +0.007 C 
ENDBRANCH  48  50
ENDBRANCH  39  48
ENDBRANCH  35  39
ENDBRANCH  34  36
ENDBRANCH   1  34
TORSDOF 13
ENDMDL
MODEL 2
REMARK VINA RESULT:      -7.4      1.761      2.060
REMARK  Name = 
REMARK  16 active torsions:
REMARK  status: ('A' for Active; 'I' for Inactive)
REMARK    1  A    between atoms: C_1  and  C_2
REMARK    2  A    between atoms: C_2  and  C_3
REMARK    3  A    between atoms: C_2  and  C_4
REMARK    4  A    between atoms: C_4  and  C_5
REMARK    5  A    between atoms: C_5  and  N_7
REMARK    6  A    between atoms: C_5  and  C_11
REMARK    7  A    between atoms: N_13  and  C_14
REMARK    8  A    between atoms: C_14  and  C_15
REMARK    9  A    between atoms: C_20  and  C_23
REMARK   10  A    between atoms: C_25  and  C_29
REMARK   11  A    between atoms: N_27  and  C_28
REMARK   12  A    between atoms: C_32  and  O_33
REMARK   13  A    between atoms: O_33  and  C_34
REMARK   14  A    between atoms: C_34  and  C_35
REMARK   15  A    between atoms: C_38  and  C_40
REMARK   16  A    between atoms: C_40  and  O_41
REMARK                            x       y       z     vdW  Elec       q    Type
REMARK                         _______ _______ _______ _____ _____    ______ ____
ROOT
ATOM      1  C   UNL     1       8.580  -3.353  24.470  0.00  0.00    +0.233 C 
ATOM      2  N   UNL     1       8.932  -2.237  23.708  0.00  0.00    -0.300 N 
ATOM      3  C   UNL     1       8.105  -1.802  22.584  0.00  0.00    +0.108 C 
ATOM      4  C   UNL     1       8.900  -1.049  21.526  0.00  0.00    +0.028 C 
ATOM      5  C   UNL     1       9.805   0.048  22.098  0.00  0.00    +0.040 C 
ATOM      6  C   UNL     1      10.597  -0.471  23.312  0.00  0.00    +0.028 C 
ATOM      7  C   UNL     1       9.731  -1.195  24.344  0.00  0.00    +0.108 C 
ATOM      8  O   UNL     1       8.733  -3.400  25.691  0.00  0.00    -0.274 OA
ENDROOT
BRANCH   5   9
ATOM      9  C   UNL     1       9.049   1.306  22.428  0.00  0.00    +0.043 A 
ATOM     10  N   UNL     1       9.547   2.362  23.147  0.00  0.00    -0.271 N 
ATOM     11  C   UNL     1      10.890   2.535  23.650  0.00  0.00    +0.172 C 
ATOM     12  N   UNL     1       8.632   3.309  23.411  0.00  0.00    -0.171 NA
ATOM     13  C   UNL     1       7.501   2.895  22.833  0.00  0.00    +0.094 A 
ATOM     14  C   UNL     1       7.754   1.674  22.149  0.00  0.00    +0.053 A 
BRANCH  13  15
ATOM     15  C   UNL     1       6.199   3.585  22.934  0.00  0.00    +0.022 A 
ATOM     16  C   UNL     1       5.938   4.929  22.580  0.00  0.00    +0.072 A 
ATOM     17 CL   UNL     1       7.178   5.978  21.949  0.00  0.00    -0.081 Cl
ATOM     18  C   UNL     1       4.638   5.464  22.765  0.00  0.00    +0.101 A 
ATOM     19 CL   UNL     1       4.263   7.107  22.315  0.00  0.00    -0.078 Cl
ATOM     20  C   UNL     1       3.614   4.685  23.331  0.00  0.00    +0.141 A 
ATOM     21  C   UNL     1       3.864   3.355  23.643  0.00  0.00    +0.048 A 
ATOM     22  C   UNL     1       5.132   2.826  23.458  0.00  0.00    +0.015 A 
BRANCH  20  23
ATOM     23  O   UNL     1       2.388   5.262  23.556  0.00  0.00    -0.483 OA
BRANCH  23  24
ATOM     24  C   UNL     1       1.294   4.614  22.901  0.00  0.00    +0.303 C 
BRANCH  24  25
ATOM     25  C   UNL     1       1.160   5.213  21.557  0.00  0.00    +0.143 A 
ATOM     26  O   UNL     1       1.487   4.409  20.508  0.00  0.00    -0.450 OA
ATOM     27  C   UNL     1       1.350   5.151  19.372  0.00  0.00    +0.212 A 
ATOM     28  C   UNL     1       0.949   6.431  19.696  0.00  0.00    +0.057 A 
ATOM     29  C   UNL     1       0.826   6.470  21.108  0.00  0.00    +0.049 A 
BRANCH  27  30
ATOM     30  C   UNL     1       1.639   4.517  18.108  0.00  0.00    +0.372 C 
ATOM     31  O   UNL     1       1.585   5.046  17.008  0.00  0.00    -0.242 OA
BRANCH  30  32
ATOM     32  O   UNL     1       2.009   3.224  18.290  0.00  0.00    -0.475 OA
ATOM     33  H   UNL     1       1.732   2.921  19.182  0.00  0.00    +0.296 HD
ENDBRANCH  30  32
ENDBRANCH  27  30
ENDBRANCH  24  25
ENDBRANCH  23  24
ENDBRANCH  20  23
ENDBRANCH  13  15
ENDBRANCH   5   9
BRANCH   1  34
ATOM     34  C   UNL     1       8.007  -4.552  23.702  0.00  0.00    +0.200 C 
BRANCH  34  36
ATOM     35  C   UNL     1       5.720  -4.968  24.525  0.00  0.00    +0.250 C 
ATOM     36  N   UNL     1       7.044  -5.342  24.444  0.00  0.00    -0.304 N 
ATOM     37  H   UNL     1       7.377  -6.049  25.095  0.00  0.00    +0.149 HD
ATOM     38  O   UNL     1       5.263  -3.985  23.939  0.00  0.00    -0.272 OA
BRANCH  35  39
ATOM     39  C   UNL     1       4.806  -5.904  25.342  0.00  0.00    +0.231 C 
BRANCH  39  40
ATOM     40  N   UNL     1       5.545  -6.492  26.469  0.00  0.00    -0.265 N 
ATOM     41  H   UNL     1       6.478  -6.814  26.245  0.00  0.00    +0.259 HD
ATOM     42  C   UNL     1       5.009  -6.989  27.604  0.00  0.00    +0.377 C 
ATOM     43  N   UNL     1       5.705  -7.557  28.522  0.00  0.00    -0.130 NA
ATOM     44  H   UNL     1       6.690  -7.567  28.252  0.00  0.00    +0.306 HD
ATOM     45  N   UNL     1       3.688  -6.850  27.802  0.00  0.00    -0.289 N 
ATOM     46  H   UNL     1       3.395  -7.405  28.601  0.00  0.00    +0.255 HD
ATOM     47  H   UNL     1       3.089  -7.024  27.005  0.00  0.00    +0.255 HD
ENDBRANCH  39  40
BRANCH  39  48
ATOM     48  C   UNL     1       4.229  -7.023  24.449  0.00  0.00    +0.053 C 
BRANCH  48  50
ATOM     49  C   UNL     1       2.293  -6.326  22.975  0.00  0.00    +0.007 C 
ATOM     50  C   UNL     1       2.690  -7.007  24.289  0.00  0.00    -0.013 C 
ATOM     51  C   UNL     1       2.052  -8.398  24.338  0.00  0.00    +0.007 C 
ENDBRANCH  48  50
ENDBRANCH  39  48
ENDBRANCH  35  39
ENDBRANCH  34  36
ENDBRANCH   1  34
TORSDOF 13
ENDMDL
MODEL 3
REMARK VINA RESULT:      -7.3      4.019      6.991
REMARK  Name = 
REMARK  16 active torsions:
REMARK  status: ('A' for Active; 'I' for Inactive)
REMARK    1  A    between atoms: C_1  and  C_2
REMARK    2  A    between atoms: C_2  and  C_3
REMARK    3  A    between atoms: C_2  and  C_4
REMARK    4  A    between atoms: C_4  and  C_5
REMARK    5  A    between atoms: C_5  and  N_7
REMARK    6  A    between atoms: C_5  and  C_11
REMARK    7  A    between atoms: N_13  and  C_14
REMARK    8  A    between atoms: C_14  and  C_15
REMARK    9  A    between atoms: C_20  and  C_23
REMARK   10  A    between atoms: C_25  and  C_29
REMARK   11  A    between atoms: N_27  and  C_28
REMARK   12  A    between atoms: C_32  and  O_33
REMARK   13  A    between atoms: O_33  and  C_34
REMARK   14  A    between atoms: C_34  and  C_35
REMARK   15  A    between atoms: C_38  and  C_40
REMARK   16  A    between atoms: C_40  and  O_41
REMARK                            x       y       z     vdW  Elec       q    Type
REMARK                         _______ _______ _______ _____ _____    ______ ____
ROOT
ATOM      1  C   UNL     1       1.775  -3.103  26.042  0.00  0.00    +0.233 C 
ATOM      2  N   UNL     1       2.164  -2.077  26.906  0.00  0.00    -0.300 N 
ATOM      3  C   UNL     1       3.529  -2.006  27.424  0.00  0.00    +0.108 C 
ATOM      4  C   UNL     1       3.612  -1.289  28.765  0.00  0.00    +0.028 C 
ATOM      5  C   UNL     1       2.860   0.047  28.799  0.00  0.00    +0.040 C 
ATOM      6  C   UNL     1       1.457  -0.099  28.184  0.00  0.00    +0.028 C 
ATOM      7  C   UNL     1       1.452  -0.806  26.828  0.00  0.00    +0.108 C 
ATOM      8  O   UNL     1       1.013  -2.920  25.092  0.00  0.00    -0.274 OA
ENDROOT
BRANCH   5   9
ATOM      9  C   UNL     1       3.635   1.162  28.151  0.00  0.00    +0.043 A 
ATOM     10  N   UNL     1       3.308   2.491  28.215  0.00  0.00    -0.271 N 
ATOM     11  C   UNL     1       2.238   3.105  28.967  0.00  0.00    +0.172 C 
ATOM     12  N   UNL     1       4.089   3.272  27.449  0.00  0.00    -0.171 NA
ATOM     13  C   UNL     1       4.978   2.453  26.881  0.00  0.00    +0.094 A 
ATOM     14  C   UNL     1       4.759   1.132  27.360  0.00  0.00    +0.053 A 
BRANCH  13  15
ATOM     15  C   UNL     1       5.989   2.864  25.886  0.00  0.00    +0.022 A 
ATOM     16  C   UNL     1       5.769   3.048  24.501  0.00  0.00    +0.072 A 
ATOM     17 CL   UNL     1       4.205   2.807  23.772  0.00  0.00    -0.081 Cl
ATOM     18  C   UNL     1       6.850   3.415  23.661  0.00  0.00    +0.101 A 
ATOM     19 CL   UNL     1       6.620   3.682  21.953  0.00  0.00    -0.078 Cl
ATOM     20  C   UNL     1       8.148   3.560  24.182  0.00  0.00    +0.141 A 
ATOM     21  C   UNL     1       8.354   3.414  25.547  0.00  0.00    +0.048 A 
ATOM     22  C   UNL     1       7.297   3.063  26.374  0.00  0.00    +0.015 A 
BRANCH  20  23
ATOM     23  O   UNL     1       9.180   3.848  23.323  0.00  0.00    -0.483 OA
BRANCH  23  24
ATOM     24  C   UNL     1      10.344   3.034  23.494  0.00  0.00    +0.303 C 
BRANCH  24  25
ATOM     25  C   UNL     1      10.020   1.682  22.995  0.00  0.00    +0.143 A 
ATOM     26  O   UNL     1      10.051   0.681  23.918  0.00  0.00    -0.450 OA
ATOM     27  C   UNL     1       9.778  -0.483  23.261  0.00  0.00    +0.212 A 
ATOM     28  C   UNL     1       9.589  -0.228  21.918  0.00  0.00    +0.057 A 
ATOM     29  C   UNL     1       9.744   1.172  21.747  0.00  0.00    +0.049 A 
BRANCH  27  30
ATOM     30  C   UNL     1       9.749  -1.705  24.028  0.00  0.00    +0.372 C 
ATOM     31  O   UNL     1      10.248  -2.772  23.703  0.00  0.00    -0.242 OA
BRANCH  30  32
ATOM     32  O   UNL     1       9.095  -1.522  25.203  0.00  0.00    -0.475 OA
ATOM     33  H   UNL     1       8.677  -2.364  25.486  0.00  0.00    +0.296 HD
ENDBRANCH  30  32
ENDBRANCH  27  30
ENDBRANCH  24  25
ENDBRANCH  23  24
ENDBRANCH  20  23
ENDBRANCH  13  15
ENDBRANCH   5   9
BRANCH   1  34
ATOM     34  C   UNL     1       2.329  -4.501  26.348  0.00  0.00    +0.200 C 
BRANCH  34  36
ATOM     35  C   UNL     1       4.678  -5.238  26.199  0.00  0.00    +0.250 C 
ATOM     36  N   UNL     1       3.503  -4.869  25.580  0.00  0.00    -0.304 N 
ATOM     37  H   UNL     1       3.541  -4.640  24.590  0.00  0.00    +0.149 HD
ATOM     38  O   UNL     1       4.792  -5.332  27.422  0.00  0.00    -0.272 OA
BRANCH  35  39
ATOM     39  C   UNL     1       5.844  -5.609  25.260  0.00  0.00    +0.231 C 
BRANCH  39  40
ATOM     40  N   UNL     1       7.004  -4.739  25.509  0.00  0.00    -0.265 N 
ATOM     41  H   UNL     1       7.232  -4.107  24.752  0.00  0.00    +0.259 HD
ATOM     42  C   UNL     1       7.984  -4.954  26.412  0.00  0.00    +0.377 C 
ATOM     43  N   UNL     1       9.011  -4.192  26.530  0.00  0.00    -0.130 NA
ATOM     44  H   UNL     1       8.957  -3.431  25.851  0.00  0.00    +0.306 HD
ATOM     45  N   UNL     1       7.862  -5.994  27.253  0.00  0.00    -0.289 N 
ATOM     46  H   UNL     1       8.733  -6.136  27.759  0.00  0.00    +0.255 HD
ATOM     47  H   UNL     1       7.532  -6.863  26.856  0.00  0.00    +0.255 HD
ENDBRANCH  39  40
BRANCH  39  48
ATOM     48  C   UNL     1       5.413  -5.502  23.782  0.00  0.00    +0.053 C 
BRANCH  48  50
ATOM     49  C   UNL     1       7.043  -5.952  21.898  0.00  0.00    +0.007 C 
ATOM     50  C   UNL     1       6.468  -4.883  22.834  0.00  0.00    -0.013 C 
ATOM     51  C   UNL     1       5.932  -3.723  21.990  0.00  0.00    +0.007 C 
ENDBRANCH  48  50
ENDBRANCH  39  48
ENDBRANCH  35  39
ENDBRANCH  34  36
ENDBRANCH   1  34
TORSDOF 13
ENDMDL
MODEL 4
REMARK VINA RESULT:      -7.1      1.314      2.101
REMARK  Name = 
REMARK  16 active torsions:
REMARK  status: ('A' for Active; 'I' for Inactive)
REMARK    1  A    between atoms: C_1  and  C_2
REMARK    2  A    between atoms: C_2  and  C_3
REMARK    3  A    between atoms: C_2  and  C_4
REMARK    4  A    between atoms: C_4  and  C_5
REMARK    5  A    between atoms: C_5  and  N_7
REMARK    6  A    between atoms: C_5  and  C_11
REMARK    7  A    between atoms: N_13  and  C_14
REMARK    8  A    between atoms: C_14  and  C_15
REMARK    9  A    between atoms: C_20  and  C_23
REMARK   10  A    between atoms: C_25  and  C_29
REMARK   11  A    between atoms: N_27  and  C_28
REMARK   12  A    between atoms: C_32  and  O_33
REMARK   13  A    between atoms: O_33  and  C_34
REMARK   14  A    between atoms: C_34  and  C_35
REMARK   15  A    between atoms: C_38  and  C_40
REMARK   16  A    between atoms: C_40  and  O_41
REMARK                            x       y       z     vdW  Elec       q    Type
REMARK                         _______ _______ _______ _____ _____    ______ ____
ROOT
ATOM      1  C   UNL     1       8.551  -2.051  24.938  0.00  0.00    +0.233 C 
ATOM      2  N   UNL     1       9.155  -0.951  24.325  0.00  0.00    -0.300 N 
ATOM      3  C   UNL     1       8.700  -0.470  23.022  0.00  0.00    +0.108 C 
ATOM      4  C   UNL     1       9.796   0.246  22.245  0.00  0.00    +0.028 C 
ATOM      5  C   UNL     1      10.553   1.294  23.069  0.00  0.00    +0.040 C 
ATOM      6  C   UNL     1      10.945   0.730  24.446  0.00  0.00    +0.028 C 
ATOM      7  C   UNL     1       9.790   0.047  25.180  0.00  0.00    +0.108 C 
ATOM      8  O   UNL     1       8.350  -2.111  26.151  0.00  0.00    -0.274 OA
ENDROOT
BRANCH   5   9
ATOM      9  C   UNL     1       9.795   2.587  23.196  0.00  0.00    +0.043 A 
ATOM     10  N   UNL     1      10.361   3.818  23.405  0.00  0.00    -0.271 N 
ATOM     11  C   UNL     1      11.766   4.149  23.456  0.00  0.00    +0.172 C 
ATOM     12  N   UNL     1       9.460   4.794  23.606  0.00  0.00    -0.171 NA
ATOM     13  C   UNL     1       8.262   4.212  23.502  0.00  0.00    +0.094 A 
ATOM     14  C   UNL     1       8.443   2.840  23.175  0.00  0.00    +0.053 A 
BRANCH  13  15
ATOM     15  C   UNL     1       6.971   4.890  23.735  0.00  0.00    +0.022 A 
ATOM     16  C   UNL     1       6.258   4.929  24.956  0.00  0.00    +0.072 A 
ATOM     17 CL   UNL     1       6.849   4.151  26.398  0.00  0.00    -0.081 Cl
ATOM     18  C   UNL     1       5.008   5.596  25.018  0.00  0.00    +0.101 A 
ATOM     19 CL   UNL     1       4.108   5.695  26.509  0.00  0.00    -0.078 Cl
ATOM     20  C   UNL     1       4.450   6.186  23.870  0.00  0.00    +0.141 A 
ATOM     21  C   UNL     1       5.169   6.177  22.683  0.00  0.00    +0.048 A 
ATOM     22  C   UNL     1       6.395   5.533  22.619  0.00  0.00    +0.015 A 
BRANCH  20  23
ATOM     23  O   UNL     1       3.206   6.761  23.958  0.00  0.00    -0.483 OA
BRANCH  23  24
ATOM     24  C   UNL     1       2.117   5.871  23.693  0.00  0.00    +0.303 C 
BRANCH  24  25
ATOM     25  C   UNL     1       1.899   5.856  22.232  0.00  0.00    +0.143 A 
ATOM     26  O   UNL     1       2.018   4.645  21.622  0.00  0.00    -0.450 OA
ATOM     27  C   UNL     1       1.834   4.846  20.285  0.00  0.00    +0.212 A 
ATOM     28  C   UNL     1       1.613   6.186  20.040  0.00  0.00    +0.057 A 
ATOM     29  C   UNL     1       1.653   6.838  21.299  0.00  0.00    +0.049 A 
BRANCH  27  30
ATOM     30  C   UNL     1       1.911   3.701  19.409  0.00  0.00    +0.372 C 
ATOM     31  O   UNL     1       1.510   2.574  19.659  0.00  0.00    -0.242 OA
BRANCH  30  32
ATOM     32  O   UNL     1       2.485   4.037  18.226  0.00  0.00    -0.475 OA
ATOM     33  H   UNL     1       3.392   4.379  18.381  0.00  0.00    +0.296 HD
ENDBRANCH  30  32
ENDBRANCH  27  30
ENDBRANCH  24  25
ENDBRANCH  23  24
ENDBRANCH  20  23
ENDBRANCH  13  15
ENDBRANCH   5   9
BRANCH   1  34
ATOM     34  C   UNL     1       8.162  -3.217  24.017  0.00  0.00    +0.200 C 
BRANCH  34  36
ATOM     35  C   UNL     1       6.515  -5.027  23.713  0.00  0.00    +0.250 C 
ATOM     36  N   UNL     1       6.996  -3.965  24.447  0.00  0.00    -0.304 N 
ATOM     37  H   UNL     1       6.394  -3.575  25.167  0.00  0.00    +0.149 HD
ATOM     38  O   UNL     1       7.064  -5.439  22.690  0.00  0.00    -0.272 OA
BRANCH  35  39
ATOM     39  C   UNL     1       5.273  -5.736  24.291  0.00  0.00    +0.231 C 
BRANCH  39  40
ATOM     40  N   UNL     1       4.095  -5.482  23.447  0.00  0.00    -0.265 N 
ATOM     41  H   UNL     1       3.947  -4.511  23.204  0.00  0.00    +0.259 HD
ATOM     42  C   UNL     1       3.027  -6.294  23.302  0.00  0.00    +0.377 C 
ATOM     43  N   UNL     1       1.994  -5.981  22.606  0.00  0.00    -0.130 NA
ATOM     44  H   UNL     1       2.119  -5.051  22.201  0.00  0.00    +0.306 HD
ATOM     45  N   UNL     1       3.059  -7.504  23.884  0.00  0.00    -0.289 N 
ATOM     46  H   UNL     1       2.141  -7.938  23.836  0.00  0.00    +0.255 HD
ATOM     47  H   UNL     1       3.427  -7.546  24.825  0.00  0.00    +0.255 HD
ENDBRANCH  39  40
BRANCH  39  48
ATOM     48  C   UNL     1       4.998  -5.268  25.735  0.00  0.00    +0.053 C 
BRANCH  48  50
ATOM     49  C   UNL     1       6.618  -5.554  27.659  0.00  0.00    +0.007 C 
ATOM     50  C   UNL     1       5.506  -6.222  26.843  0.00  0.00    -0.013 C 
ATOM     51  C   UNL     1       4.407  -6.696  27.798  0.00  0.00    +0.007 C 
ENDBRANCH  48  50
ENDBRANCH  39  48
ENDBRANCH  35  39
ENDBRANCH  34  36
ENDBRANCH   1  34
TORSDOF 13
ENDMDL
MODEL 5
REMARK VINA RESULT:      -7.0      2.390      3.278
REMARK  Name = 
REMARK  16 active torsions:
REMARK  status: ('A' for Active; 'I' for Inactive)
REMARK    1  A    between atoms: C_1  and  C_2
REMARK    2  A    between atoms: C_2  and  C_3
REMARK    3  A    between atoms: C_2  and  C_4
REMARK    4  A    between atoms: C_4  and  C_5
REMARK    5  A    between atoms: C_5  and  N_7
REMARK    6  A    between atoms: C_5  and  C_11
REMARK    7  A    between atoms: N_13  and  C_14
REMARK    8  A    between atoms: C_14  and  C_15
REMARK    9  A    between atoms: C_20  and  C_23
REMARK   10  A    between atoms: C_25  and  C_29
REMARK   11  A    between atoms: N_27  and  C_28
REMARK   12  A    between atoms: C_32  and  O_33
REMARK   13  A    between atoms: O_33  and  C_34
REMARK   14  A    between atoms: C_34  and  C_35
REMARK   15  A    between atoms: C_38  and  C_40
REMARK   16  A    between atoms: C_40  and  O_41
REMARK                            x       y       z     vdW  Elec       q    Type
REMARK                         _______ _______ _______ _____ _____    ______ ____
ROOT
ATOM      1  C   UNL     1       8.677  -2.655  25.404  0.00  0.00    +0.233 C 
ATOM      2  N   UNL     1       9.192  -1.542  24.736  0.00  0.00    -0.300 N 
ATOM      3  C   UNL     1       8.823  -1.257  23.351  0.00  0.00    +0.108 C 
ATOM      4  C   UNL     1       9.893  -0.465  22.610  0.00  0.00    +0.028 C 
ATOM      5  C   UNL     1      10.405   0.755  23.383  0.00  0.00    +0.040 C 
ATOM      6  C   UNL     1      10.714   0.387  24.846  0.00  0.00    +0.028 C 
ATOM      7  C   UNL     1       9.588  -0.386  25.534  0.00  0.00    +0.108 C 
ATOM      8  O   UNL     1       8.354  -2.629  26.591  0.00  0.00    -0.274 OA
ENDROOT
BRANCH   5   9
ATOM      9  C   UNL     1       9.470   1.930  23.295  0.00  0.00    +0.043 A 
ATOM     10  N   UNL     1       9.849   3.246  23.342  0.00  0.00    -0.271 N 
ATOM     11  C   UNL     1      11.190   3.780  23.393  0.00  0.00    +0.172 C 
ATOM     12  N   UNL     1       8.812   4.101  23.369  0.00  0.00    -0.171 NA
ATOM     13  C   UNL     1       7.713   3.344  23.309  0.00  0.00    +0.094 A 
ATOM     14  C   UNL     1       8.100   1.980  23.191  0.00  0.00    +0.053 A 
BRANCH  13  15
ATOM     15  C   UNL     1       6.331   3.854  23.397  0.00  0.00    +0.022 A 
ATOM     16  C   UNL     1       5.836   4.761  24.362  0.00  0.00    +0.072 A 
ATOM     17 CL   UNL     1       6.848   5.419  25.618  0.00  0.00    -0.081 Cl
ATOM     18  C   UNL     1       4.469   5.136  24.338  0.00  0.00    +0.101 A 
ATOM     19 CL   UNL     1       3.822   6.275  25.490  0.00  0.00    -0.078 Cl
ATOM     20  C   UNL     1       3.589   4.588  23.388  0.00  0.00    +0.141 A 
ATOM     21  C   UNL     1       4.086   3.726  22.419  0.00  0.00    +0.048 A 
ATOM     22  C   UNL     1       5.424   3.362  22.435  0.00  0.00    +0.015 A 
BRANCH  20  23
ATOM     23  O   UNL     1       2.260   4.925  23.442  0.00  0.00    -0.483 OA
BRANCH  23  24
ATOM     24  C   UNL     1       1.367   3.814  23.576  0.00  0.00    +0.303 C 
BRANCH  24  25
ATOM     25  C   UNL     1       1.383   3.397  24.993  0.00  0.00    +0.143 A 
ATOM     26  O   UNL     1       2.088   2.267  25.276  0.00  0.00    -0.450 OA
ATOM     27  C   UNL     1       1.939   2.022  26.610  0.00  0.00    +0.212 A 
ATOM     28  C   UNL     1       1.129   2.987  27.175  0.00  0.00    +0.057 A 
ATOM     29  C   UNL     1       0.772   3.875  26.129  0.00  0.00    +0.049 A 
BRANCH  27  30
ATOM     30  C   UNL     1       2.600   0.866  27.166  0.00  0.00    +0.372 C 
ATOM     31  O   UNL     1       2.277  -0.300  26.995  0.00  0.00    -0.242 OA
BRANCH  30  32
ATOM     32  O   UNL     1       3.671   1.235  27.914  0.00  0.00    -0.475 OA
ATOM     33  H   UNL     1       4.009   2.104  27.605  0.00  0.00    +0.296 HD
ENDBRANCH  30  32
ENDBRANCH  27  30
ENDBRANCH  24  25
ENDBRANCH  23  24
ENDBRANCH  20  23
ENDBRANCH  13  15
ENDBRANCH   5   9
BRANCH   1  34
ATOM     34  C   UNL     1       8.554  -3.946  24.583  0.00  0.00    +0.200 C 
BRANCH  34  36
ATOM     35  C   UNL     1       6.177  -4.605  24.615  0.00  0.00    +0.250 C 
ATOM     36  N   UNL     1       7.481  -4.829  25.000  0.00  0.00    -0.304 N 
ATOM     37  H   UNL     1       7.644  -5.484  25.760  0.00  0.00    +0.149 HD
ATOM     38  O   UNL     1       5.848  -3.689  23.860  0.00  0.00    -0.272 OA
BRANCH  35  39
ATOM     39  C   UNL     1       5.141  -5.626  25.126  0.00  0.00    +0.231 C 
BRANCH  39  40
ATOM     40  N   UNL     1       5.669  -6.360  26.286  0.00  0.00    -0.265 N 
ATOM     41  H   UNL     1       6.534  -6.857  26.118  0.00  0.00    +0.259 HD
ATOM     42  C   UNL     1       4.967  -6.752  27.371  0.00  0.00    +0.377 C 
ATOM     43  N   UNL     1       5.472  -7.456  28.319  0.00  0.00    -0.130 NA
ATOM     44  H   UNL     1       6.453  -7.657  28.116  0.00  0.00    +0.306 HD
ATOM     45  N   UNL     1       3.688  -6.356  27.483  0.00  0.00    -0.289 N 
ATOM     46  H   UNL     1       3.237  -6.851  28.248  0.00  0.00    +0.255 HD
ATOM     47  H   UNL     1       3.125  -6.400  26.645  0.00  0.00    +0.255 HD
ENDBRANCH  39  40
BRANCH  39  48
ATOM     48  C   UNL     1       4.750  -6.616  24.009  0.00  0.00    +0.053 C 
BRANCH  48  50
ATOM     49  C   UNL     1       2.485  -7.719  24.253  0.00  0.00    +0.007 C 
ATOM     50  C   UNL     1       3.261  -6.577  23.589  0.00  0.00    -0.013 C 
ATOM     51  C   UNL     1       2.565  -5.251  23.912  0.00  0.00    +0.007 C 
ENDBRANCH  48  50
ENDBRANCH  39  48
ENDBRANCH  35  39
ENDBRANCH  34  36
ENDBRANCH   1  34
TORSDOF 13
ENDMDL
MODEL 6
REMARK VINA RESULT:      -7.0      4.131      7.399
REMARK  Name = 
REMARK  16 active torsions:
REMARK  status: ('A' for Active; 'I' for Inactive)
REMARK    1  A    between atoms: C_1  and  C_2
REMARK    2  A    between atoms: C_2  and  C_3
REMARK    3  A    between atoms: C_2  and  C_4
REMARK    4  A    between atoms: C_4  and  C_5
REMARK    5  A    between atoms: C_5  and  N_7
REMARK    6  A    between atoms: C_5  and  C_11
REMARK    7  A    between atoms: N_13  and  C_14
REMARK    8  A    between atoms: C_14  and  C_15
REMARK    9  A    between atoms: C_20  and  C_23
REMARK   10  A    between atoms: C_25  and  C_29
REMARK   11  A    between atoms: N_27  and  C_28
REMARK   12  A    between atoms: C_32  and  O_33
REMARK   13  A    between atoms: O_33  and  C_34
REMARK   14  A    between atoms: C_34  and  C_35
REMARK   15  A    between atoms: C_38  and  C_40
REMARK   16  A    between atoms: C_40  and  O_41
REMARK                            x       y       z     vdW  Elec       q    Type
REMARK                         _______ _______ _______ _____ _____    ______ ____
ROOT
ATOM      1  C   UNL     1       3.169  -5.179  24.015  0.00  0.00    +0.233 C 
ATOM      2  N   UNL     1       3.105  -4.375  25.155  0.00  0.00    -0.300 N 
ATOM      3  C   UNL     1       4.316  -4.007  25.886  0.00  0.00    +0.108 C 
ATOM      4  C   UNL     1       4.049  -3.718  27.357  0.00  0.00    +0.028 C 
ATOM      5  C   UNL     1       2.864  -2.775  27.596  0.00  0.00    +0.040 C 
ATOM      6  C   UNL     1       1.650  -3.194  26.748  0.00  0.00    +0.028 C 
ATOM      7  C   UNL     1       1.988  -3.445  25.277  0.00  0.00    +0.108 C 
ATOM      8  O   UNL     1       2.454  -4.995  23.030  0.00  0.00    -0.274 OA
ENDROOT
BRANCH   5   9
ATOM      9  C   UNL     1       3.222  -1.331  27.374  0.00  0.00    +0.043 A 
ATOM     10  N   UNL     1       2.409  -0.263  27.655  0.00  0.00    -0.271 N 
ATOM     11  C   UNL     1       1.111  -0.282  28.289  0.00  0.00    +0.172 C 
ATOM     12  N   UNL     1       2.912   0.914  27.249  0.00  0.00    -0.171 NA
ATOM     13  C   UNL     1       4.102   0.637  26.710  0.00  0.00    +0.094 A 
ATOM     14  C   UNL     1       4.351  -0.757  26.839  0.00  0.00    +0.053 A 
BRANCH  13  15
ATOM     15  C   UNL     1       4.982   1.623  26.052  0.00  0.00    +0.022 A 
ATOM     16  C   UNL     1       4.566   2.684  25.216  0.00  0.00    +0.072 A 
ATOM     17 CL   UNL     1       2.887   2.971  24.849  0.00  0.00    -0.081 Cl
ATOM     18  C   UNL     1       5.535   3.536  24.627  0.00  0.00    +0.101 A 
ATOM     19 CL   UNL     1       5.067   4.875  23.613  0.00  0.00    -0.078 Cl
ATOM     20  C   UNL     1       6.908   3.313  24.834  0.00  0.00    +0.141 A 
ATOM     21  C   UNL     1       7.311   2.293  25.684  0.00  0.00    +0.048 A 
ATOM     22  C   UNL     1       6.367   1.463  26.268  0.00  0.00    +0.015 A 
BRANCH  20  23
ATOM     23  O   UNL     1       7.815   4.118  24.190  0.00  0.00    -0.483 OA
BRANCH  23  24
ATOM     24  C   UNL     1       9.073   3.496  23.911  0.00  0.00    +0.303 C 
BRANCH  24  25
ATOM     25  C   UNL     1      10.102   4.556  23.900  0.00  0.00    +0.143 A 
ATOM     26  O   UNL     1      11.212   4.304  23.152  0.00  0.00    -0.450 OA
ATOM     27  C   UNL     1      12.055   5.365  23.310  0.00  0.00    +0.212 A 
ATOM     28  C   UNL     1      11.490   6.286  24.169  0.00  0.00    +0.057 A 
ATOM     29  C   UNL     1      10.228   5.763  24.548  0.00  0.00    +0.049 A 
BRANCH  27  30
ATOM     30  C   UNL     1      13.317   5.340  22.610  0.00  0.00    +0.372 C 
ATOM     31  O   UNL     1      13.502   5.667  21.448  0.00  0.00    -0.242 OA
BRANCH  30  32
ATOM     32  O   UNL     1      14.313   4.911  23.426  0.00  0.00    -0.475 OA
ATOM     33  H   UNL     1      14.177   5.266  24.332  0.00  0.00    +0.296 HD
ENDBRANCH  30  32
ENDBRANCH  27  30
ENDBRANCH  24  25
ENDBRANCH  23  24
ENDBRANCH  20  23
ENDBRANCH  13  15
ENDBRANCH   5   9
BRANCH   1  34
ATOM     34  C   UNL     1       4.171  -6.341  24.054  0.00  0.00    +0.200 C 
BRANCH  34  36
ATOM     35  C   UNL     1       6.268  -5.308  23.266  0.00  0.00    +0.250 C 
ATOM     36  N   UNL     1       5.551  -5.943  24.257  0.00  0.00    -0.304 N 
ATOM     37  H   UNL     1       6.069  -6.328  25.043  0.00  0.00    +0.149 HD
ATOM     38  O   UNL     1       5.778  -4.993  22.180  0.00  0.00    -0.272 OA
BRANCH  35  39
ATOM     39  C   UNL     1       7.722  -4.937  23.621  0.00  0.00    +0.231 C 
BRANCH  39  40
ATOM     40  N   UNL     1       7.868  -4.756  25.073  0.00  0.00    -0.265 N 
ATOM     41  H   UNL     1       7.321  -4.001  25.465  0.00  0.00    +0.259 HD
ATOM     42  C   UNL     1       8.893  -5.195  25.834  0.00  0.00    +0.377 C 
ATOM     43  N   UNL     1       8.998  -4.940  27.088  0.00  0.00    -0.130 NA
ATOM     44  H   UNL     1       8.206  -4.371  27.393  0.00  0.00    +0.306 HD
ATOM     45  N   UNL     1       9.830  -5.968  25.261  0.00  0.00    -0.289 N 
ATOM     46  H   UNL     1      10.617  -6.088  25.893  0.00  0.00    +0.255 HD
ATOM     47  H   UNL     1      10.148  -5.690  24.342  0.00  0.00    +0.255 HD
ENDBRANCH  39  40
BRANCH  39  48
ATOM     48  C   UNL     1       8.156  -3.653  22.883  0.00  0.00    +0.053 C 
BRANCH  48  50
ATOM     49  C   UNL     1       9.818  -1.858  23.535  0.00  0.00    +0.007 C 
ATOM     50  C   UNL     1       8.420  -2.430  23.795  0.00  0.00    -0.013 C 
ATOM     51  C   UNL     1       7.389  -1.309  23.635  0.00  0.00    +0.007 C 
ENDBRANCH  48  50
ENDBRANCH  39  48
ENDBRANCH  35  39
ENDBRANCH  34  36
ENDBRANCH   1  34
TORSDOF 13
ENDMDL
MODEL 7
REMARK VINA RESULT:      -6.8      4.744     10.025
REMARK  Name = 
REMARK  16 active torsions:
REMARK  status: ('A' for Active; 'I' for Inactive)
REMARK    1  A    between atoms: C_1  and  C_2
REMARK    2  A    between atoms: C_2  and  C_3
REMARK    3  A    between atoms: C_2  and  C_4
REMARK    4  A    between atoms: C_4  and  C_5
REMARK    5  A    between atoms: C_5  and  N_7
REMARK    6  A    between atoms: C_5  and  C_11
REMARK    7  A    between atoms: N_13  and  C_14
REMARK    8  A    between atoms: C_14  and  C_15
REMARK    9  A    between atoms: C_20  and  C_23
REMARK   10  A    between atoms: C_25  and  C_29
REMARK   11  A    between atoms: N_27  and  C_28
REMARK   12  A    between atoms: C_32  and  O_33
REMARK   13  A    between atoms: O_33  and  C_34
REMARK   14  A    between atoms: C_34  and  C_35
REMARK   15  A    between atoms: C_38  and  C_40
REMARK   16  A    between atoms: C_40  and  O_41
REMARK                            x       y       z     vdW  Elec       q    Type
REMARK                         _______ _______ _______ _____ _____    ______ ____
ROOT
ATOM      1  C   UNL     1       9.664  -0.866  24.035  0.00  0.00    +0.233 C 
ATOM      2  N   UNL     1       8.823  -0.394  25.045  0.00  0.00    -0.300 N 
ATOM      3  C   UNL     1       7.637   0.400  24.727  0.00  0.00    +0.108 C 
ATOM      4  C   UNL     1       7.233   1.331  25.862  0.00  0.00    +0.028 C 
ATOM      5  C   UNL     1       7.178   0.648  27.233  0.00  0.00    +0.040 C 
ATOM      6  C   UNL     1       8.432  -0.214  27.466  0.00  0.00    +0.028 C 
ATOM      7  C   UNL     1       8.765  -1.142  26.296  0.00  0.00    +0.108 C 
ATOM      8  O   UNL     1      10.189  -1.979  24.073  0.00  0.00    -0.274 OA
ENDROOT
BRANCH   5   9
ATOM      9  C   UNL     1       5.917  -0.147  27.432  0.00  0.00    +0.043 A 
ATOM     10  N   UNL     1       5.088  -0.055  28.520  0.00  0.00    -0.271 N 
ATOM     11  C   UNL     1       5.189   0.859  29.634  0.00  0.00    +0.172 C 
ATOM     12  N   UNL     1       4.096  -0.960  28.516  0.00  0.00    -0.171 NA
ATOM     13  C   UNL     1       4.243  -1.658  27.386  0.00  0.00    +0.094 A 
ATOM     14  C   UNL     1       5.337  -1.121  26.653  0.00  0.00    +0.053 A 
BRANCH  13  15
ATOM     15  C   UNL     1       3.421  -2.821  26.999  0.00  0.00    +0.022 A 
ATOM     16  C   UNL     1       3.470  -4.108  27.582  0.00  0.00    +0.072 A 
ATOM     17 CL   UNL     1       4.555  -4.491  28.891  0.00  0.00    -0.081 Cl
ATOM     18  C   UNL     1       2.638  -5.140  27.079  0.00  0.00    +0.101 A 
ATOM     19 CL   UNL     1       2.644  -6.735  27.786  0.00  0.00    -0.078 Cl
ATOM     20  C   UNL     1       1.790  -4.909  25.981  0.00  0.00    +0.141 A 
ATOM     21  C   UNL     1       1.717  -3.635  25.435  0.00  0.00    +0.048 A 
ATOM     22  C   UNL     1       2.524  -2.621  25.928  0.00  0.00    +0.015 A 
BRANCH  20  23
ATOM     23  O   UNL     1       1.051  -5.953  25.482  0.00  0.00    -0.483 OA
BRANCH  23  24
ATOM     24  C   UNL     1       1.275  -6.233  24.097  0.00  0.00    +0.303 C 
BRANCH  24  25
ATOM     25  C   UNL     1       2.734  -6.342  23.893  0.00  0.00    +0.143 A 
ATOM     26  O   UNL     1       3.280  -5.471  23.000  0.00  0.00    -0.450 OA
ATOM     27  C   UNL     1       4.611  -5.761  22.915  0.00  0.00    +0.212 A 
ATOM     28  C   UNL     1       4.911  -6.824  23.741  0.00  0.00    +0.057 A 
ATOM     29  C   UNL     1       3.698  -7.198  24.374  0.00  0.00    +0.049 A 
BRANCH  27  30
ATOM     30  C   UNL     1       5.423  -4.967  22.024  0.00  0.00    +0.372 C 
ATOM     31  O   UNL     1       5.290  -3.773  21.799  0.00  0.00    -0.242 OA
BRANCH  30  32
ATOM     32  O   UNL     1       6.397  -5.723  21.457  0.00  0.00    -0.475 OA
ATOM     33  H   UNL     1       6.958  -5.163  20.877  0.00  0.00    +0.296 HD
ENDBRANCH  30  32
ENDBRANCH  27  30
ENDBRANCH  24  25
ENDBRANCH  23  24
ENDBRANCH  20  23
ENDBRANCH  13  15
ENDBRANCH   5   9
BRANCH   1  34
ATOM     34  C   UNL     1       9.930   0.090  22.864  0.00  0.00    +0.200 C 
BRANCH  34  36
ATOM     35  C   UNL     1       9.698   2.540  22.704  0.00  0.00    +0.250 C 
ATOM     36  N   UNL     1      10.309   1.434  23.255  0.00  0.00    -0.304 N 
ATOM     37  H   UNL     1      11.177   1.577  23.764  0.00  0.00    +0.149 HD
ATOM     38  O   UNL     1       8.768   2.463  21.899  0.00  0.00    -0.272 OA
BRANCH  35  39
ATOM     39  C   UNL     1      10.196   3.907  23.216  0.00  0.00    +0.231 C 
BRANCH  39  40
ATOM     40  N   UNL     1      11.647   3.872  23.452  0.00  0.00    -0.265 N 
ATOM     41  H   UNL     1      11.940   3.277  24.216  0.00  0.00    +0.259 HD
ATOM     42  C   UNL     1      12.545   4.797  23.049  0.00  0.00    +0.377 C 
ATOM     43  N   UNL     1      13.792   4.745  23.351  0.00  0.00    -0.130 NA
ATOM     44  H   UNL     1      13.975   3.919  23.924  0.00  0.00    +0.306 HD
ATOM     45  N   UNL     1      12.121   5.801  22.264  0.00  0.00    -0.289 N 
ATOM     46  H   UNL     1      12.849   6.504  22.174  0.00  0.00    +0.255 HD
ATOM     47  H   UNL     1      11.238   6.228  22.511  0.00  0.00    +0.255 HD
ENDBRANCH  39  40
BRANCH  39  48
ATOM     48  C   UNL     1       9.461   4.308  24.513  0.00  0.00    +0.053 C 
BRANCH  48  50
ATOM     49  C   UNL     1      10.089   6.646  25.250  0.00  0.00    +0.007 C 
ATOM     50  C   UNL     1       9.011   5.787  24.581  0.00  0.00    -0.013 C 
ATOM     51  C   UNL     1       8.673   6.392  23.215  0.00  0.00    +0.007 C 
ENDBRANCH  48  50
ENDBRANCH  39  48
ENDBRANCH  35  39
ENDBRANCH  34  36
ENDBRANCH   1  34
TORSDOF 13
ENDMDL
MODEL 8
REMARK VINA RESULT:      -6.5      3.543      9.794
REMARK  Name = 
REMARK  16 active torsions:
REMARK  status: ('A' for Active; 'I' for Inactive)
REMARK    1  A    between atoms: C_1  and  C_2
REMARK    2  A    between atoms: C_2  and  C_3
REMARK    3  A    between atoms: C_2  and  C_4
REMARK    4  A    between atoms: C_4  and  C_5
REMARK    5  A    between atoms: C_5  and  N_7
REMARK    6  A    between atoms: C_5  and  C_11
REMARK    7  A    between atoms: N_13  and  C_14
REMARK    8  A    between atoms: C_14  and  C_15
REMARK    9  A    between atoms: C_20  and  C_23
REMARK   10  A    between atoms: C_25  and  C_29
REMARK   11  A    between atoms: N_27  and  C_28
REMARK   12  A    between atoms: C_32  and  O_33
REMARK   13  A    between atoms: O_33  and  C_34
REMARK   14  A    between atoms: C_34  and  C_35
REMARK   15  A    between atoms: C_38  and  C_40
REMARK   16  A    between atoms: C_40  and  O_41
REMARK                            x       y       z     vdW  Elec       q    Type
REMARK                         _______ _______ _______ _____ _____    ______ ____
ROOT
ATOM      1  C   UNL     1       7.654   4.128  22.948  0.00  0.00    +0.233 C 
ATOM      2  N   UNL     1       8.498   3.025  23.096  0.00  0.00    -0.300 N 
ATOM      3  C   UNL     1       8.900   2.557  24.421  0.00  0.00    +0.108 C 
ATOM      4  C   UNL     1      10.240   1.833  24.406  0.00  0.00    +0.028 C 
ATOM      5  C   UNL     1      10.357   0.772  23.306  0.00  0.00    +0.040 C 
ATOM      6  C   UNL     1       9.860   1.324  21.957  0.00  0.00    +0.028 C 
ATOM      7  C   UNL     1       8.499   2.016  22.043  0.00  0.00    +0.108 C 
ATOM      8  O   UNL     1       6.775   4.183  22.089  0.00  0.00    -0.274 OA
ENDROOT
BRANCH   5   9
ATOM      9  C   UNL     1       9.665  -0.513  23.667  0.00  0.00    +0.043 A 
ATOM     10  N   UNL     1       9.252  -1.467  22.773  0.00  0.00    -0.271 N 
ATOM     11  C   UNL     1       9.465  -1.491  21.344  0.00  0.00    +0.172 C 
ATOM     12  N   UNL     1       8.548  -2.461  23.338  0.00  0.00    -0.171 NA
ATOM     13  C   UNL     1       8.510  -2.186  24.644  0.00  0.00    +0.094 A 
ATOM     14  C   UNL     1       9.264  -1.005  24.887  0.00  0.00    +0.053 A 
BRANCH  13  15
ATOM     15  C   UNL     1       7.766  -2.968  25.651  0.00  0.00    +0.022 A 
ATOM     16  C   UNL     1       6.563  -2.581  26.285  0.00  0.00    +0.072 A 
ATOM     17 CL   UNL     1       5.777  -1.066  25.934  0.00  0.00    -0.081 Cl
ATOM     18  C   UNL     1       5.980  -3.428  27.261  0.00  0.00    +0.101 A 
ATOM     19 CL   UNL     1       4.481  -3.005  28.048  0.00  0.00    -0.078 Cl
ATOM     20  C   UNL     1       6.603  -4.632  27.634  0.00  0.00    +0.141 A 
ATOM     21  C   UNL     1       7.764  -5.026  26.984  0.00  0.00    +0.048 A 
ATOM     22  C   UNL     1       8.335  -4.204  26.024  0.00  0.00    +0.015 A 
BRANCH  20  23
ATOM     23  O   UNL     1       6.041  -5.389  28.632  0.00  0.00    -0.483 OA
BRANCH  23  24
ATOM     24  C   UNL     1       5.730  -6.734  28.258  0.00  0.00    +0.303 C 
BRANCH  24  25
ATOM     25  C   UNL     1       4.489  -6.698  27.458  0.00  0.00    +0.143 A 
ATOM     26  O   UNL     1       4.625  -6.961  26.129  0.00  0.00    -0.450 OA
ATOM     27  C   UNL     1       3.391  -6.830  25.562  0.00  0.00    +0.212 A 
ATOM     28  C   UNL     1       2.470  -6.470  26.525  0.00  0.00    +0.057 A 
ATOM     29  C   UNL     1       3.180  -6.387  27.750  0.00  0.00    +0.049 A 
BRANCH  27  30
ATOM     30  C   UNL     1       3.268  -7.062  24.143  0.00  0.00    +0.372 C 
ATOM     31  O   UNL     1       3.533  -6.265  23.256  0.00  0.00    -0.242 OA
BRANCH  30  32
ATOM     32  O   UNL     1       2.822  -8.321  23.897  0.00  0.00    -0.475 OA
ATOM     33  H   UNL     1       2.694  -8.800  24.744  0.00  0.00    +0.296 HD
ENDBRANCH  30  32
ENDBRANCH  27  30
ENDBRANCH  24  25
ENDBRANCH  23  24
ENDBRANCH  20  23
ENDBRANCH  13  15
ENDBRANCH   5   9
BRANCH   1  34
ATOM     34  C   UNL     1       7.892   5.303  23.907  0.00  0.00    +0.200 C 
BRANCH  34  36
ATOM     35  C   UNL     1       7.112   5.439  26.243  0.00  0.00    +0.250 C 
ATOM     36  N   UNL     1       6.846   5.501  24.893  0.00  0.00    -0.304 N 
ATOM     37  H   UNL     1       5.873   5.461  24.599  0.00  0.00    +0.149 HD
ATOM     38  O   UNL     1       8.244   5.269  26.697  0.00  0.00    -0.272 OA
BRANCH  35  39
ATOM     39  C   UNL     1       5.907   5.675  27.177  0.00  0.00    +0.231 C 
BRANCH  39  40
ATOM     40  N   UNL     1       5.314   4.394  27.587  0.00  0.00    -0.265 N 
ATOM     41  H   UNL     1       4.367   4.241  27.266  0.00  0.00    +0.259 HD
ATOM     42  C   UNL     1       5.718   3.620  28.617  0.00  0.00    +0.377 C 
ATOM     43  N   UNL     1       5.110   2.545  28.971  0.00  0.00    -0.130 NA
ATOM     44  H   UNL     1       4.304   2.388  28.363  0.00  0.00    +0.306 HD
ATOM     45  N   UNL     1       6.830   3.970  29.283  0.00  0.00    -0.289 N 
ATOM     46  H   UNL     1       6.925   3.406  30.123  0.00  0.00    +0.255 HD
ATOM     47  H   UNL     1       6.942   4.952  29.495  0.00  0.00    +0.255 HD
ENDBRANCH  39  40
BRANCH  39  48
ATOM     48  C   UNL     1       4.842   6.552  26.485  0.00  0.00    +0.053 C 
BRANCH  48  50
ATOM     49  C   UNL     1       2.354   6.677  26.936  0.00  0.00    +0.007 C 
ATOM     50  C   UNL     1       3.470   5.867  26.267  0.00  0.00    -0.013 C 
ATOM     51  C   UNL     1       3.115   5.658  24.792  0.00  0.00    +0.007 C 
ENDBRANCH  48  50
ENDBRANCH  39  48
ENDBRANCH  35  39
ENDBRANCH  34  36
ENDBRANCH   1  34
TORSDOF 13
ENDMDL
MODEL 9
REMARK VINA RESULT:      -6.4      4.186     10.702
REMARK  Name = 
REMARK  16 active torsions:
REMARK  status: ('A' for Active; 'I' for Inactive)
REMARK    1  A    between atoms: C_1  and  C_2
REMARK    2  A    between atoms: C_2  and  C_3
REMARK    3  A    between atoms: C_2  and  C_4
REMARK    4  A    between atoms: C_4  and  C_5
REMARK    5  A    between atoms: C_5  and  N_7
REMARK    6  A    between atoms: C_5  and  C_11
REMARK    7  A    between atoms: N_13  and  C_14
REMARK    8  A    between atoms: C_14  and  C_15
REMARK    9  A    between atoms: C_20  and  C_23
REMARK   10  A    between atoms: C_25  and  C_29
REMARK   11  A    between atoms: N_27  and  C_28
REMARK   12  A    between atoms: C_32  and  O_33
REMARK   13  A    between atoms: O_33  and  C_34
REMARK   14  A    between atoms: C_34  and  C_35
REMARK   15  A    between atoms: C_38  and  C_40
REMARK   16  A    between atoms: C_40  and  O_41
REMARK                            x       y       z     vdW  Elec       q    Type
REMARK                         _______ _______ _______ _____ _____    ______ ____
ROOT
ATOM      1  C   UNL     1       5.808   3.186  27.517  0.00  0.00    +0.233 C 
ATOM      2  N   UNL     1       4.650   2.531  27.942  0.00  0.00    -0.300 N 
ATOM      3  C   UNL     1       3.514   2.347  27.041  0.00  0.00    +0.108 C 
ATOM      4  C   UNL     1       2.189   2.229  27.783  0.00  0.00    +0.028 C 
ATOM      5  C   UNL     1       2.222   1.243  28.956  0.00  0.00    +0.040 C 
ATOM      6  C   UNL     1       3.476   1.464  29.821  0.00  0.00    +0.028 C 
ATOM      7  C   UNL     1       4.772   1.548  29.013  0.00  0.00    +0.108 C 
ATOM      8  O   UNL     1       6.937   2.828  27.852  0.00  0.00    -0.274 OA
ENDROOT
BRANCH   5   9
ATOM      9  C   UNL     1       2.103  -0.188  28.511  0.00  0.00    +0.043 A 
ATOM     10  N   UNL     1       1.341  -1.146  29.127  0.00  0.00    -0.271 N 
ATOM     11  C   UNL     1       0.444  -0.978  30.246  0.00  0.00    +0.172 C 
ATOM     12  N   UNL     1       1.503  -2.375  28.609  0.00  0.00    -0.171 NA
ATOM     13  C   UNL     1       2.372  -2.235  27.603  0.00  0.00    +0.094 A 
ATOM     14  C   UNL     1       2.710  -0.860  27.476  0.00  0.00    +0.053 A 
BRANCH  13  15
ATOM     15  C   UNL     1       2.914  -3.345  26.795  0.00  0.00    +0.022 A 
ATOM     16  C   UNL     1       3.755  -4.383  27.261  0.00  0.00    +0.072 A 
ATOM     17 CL   UNL     1       4.271  -4.481  28.922  0.00  0.00    -0.081 Cl
ATOM     18  C   UNL     1       4.224  -5.367  26.354  0.00  0.00    +0.101 A 
ATOM     19 CL   UNL     1       5.239  -6.681  26.889  0.00  0.00    -0.078 Cl
ATOM     20  C   UNL     1       3.895  -5.302  24.989  0.00  0.00    +0.141 A 
ATOM     21  C   UNL     1       3.040  -4.304  24.542  0.00  0.00    +0.048 A 
ATOM     22  C   UNL     1       2.572  -3.344  25.426  0.00  0.00    +0.015 A 
BRANCH  20  23
ATOM     23  O   UNL     1       4.426  -6.235  24.133  0.00  0.00    -0.483 OA
BRANCH  23  24
ATOM     24  C   UNL     1       5.028  -5.690  22.955  0.00  0.00    +0.303 C 
BRANCH  24  25
ATOM     25  C   UNL     1       6.183  -4.873  23.382  0.00  0.00    +0.143 A 
ATOM     26  O   UNL     1       7.076  -5.485  24.208  0.00  0.00    -0.450 OA
ATOM     27  C   UNL     1       8.029  -4.563  24.527  0.00  0.00    +0.212 A 
ATOM     28  C   UNL     1       7.738  -3.359  23.916  0.00  0.00    +0.057 A 
ATOM     29  C   UNL     1       6.546  -3.562  23.176  0.00  0.00    +0.049 A 
BRANCH  27  30
ATOM     30  C   UNL     1       9.103  -4.970  25.400  0.00  0.00    +0.372 C 
ATOM     31  O   UNL     1       9.268  -4.611  26.556  0.00  0.00    -0.242 OA
BRANCH  30  32
ATOM     32  O   UNL     1       9.931  -5.844  24.772  0.00  0.00    -0.475 OA
ATOM     33  H   UNL     1       9.424  -6.636  24.488  0.00  0.00    +0.296 HD
ENDBRANCH  30  32
ENDBRANCH  27  30
ENDBRANCH  24  25
ENDBRANCH  23  24
ENDBRANCH  20  23
ENDBRANCH  13  15
ENDBRANCH   5   9
BRANCH   1  34
ATOM     34  C   UNL     1       5.606   4.411  26.614  0.00  0.00    +0.200 C 
BRANCH  34  36
ATOM     35  C   UNL     1       5.971   3.878  24.234  0.00  0.00    +0.250 C 
ATOM     36  N   UNL     1       6.424   4.421  25.416  0.00  0.00    -0.304 N 
ATOM     37  H   UNL     1       7.418   4.623  25.495  0.00  0.00    +0.149 HD
ATOM     38  O   UNL     1       4.841   3.404  24.102  0.00  0.00    -0.272 OA
BRANCH  35  39
ATOM     39  C   UNL     1       6.942   3.964  23.039  0.00  0.00    +0.231 C 
BRANCH  39  40
ATOM     40  N   UNL     1       6.567   5.072  22.148  0.00  0.00    -0.265 N 
ATOM     41  H   UNL     1       5.857   4.847  21.463  0.00  0.00    +0.259 HD
ATOM     42  C   UNL     1       7.303   6.175  21.891  0.00  0.00    +0.377 C 
ATOM     43  N   UNL     1       6.951   7.074  21.044  0.00  0.00    -0.130 NA
ATOM     44  H   UNL     1       6.057   6.819  20.619  0.00  0.00    +0.306 HD
ATOM     45  N   UNL     1       8.441   6.359  22.580  0.00  0.00    -0.289 N 
ATOM     46  H   UNL     1       8.971   7.128  22.177  0.00  0.00    +0.255 HD
ATOM     47  H   UNL     1       9.029   5.547  22.711  0.00  0.00    +0.255 HD
ENDBRANCH  39  40
BRANCH  39  48
ATOM     48  C   UNL     1       6.960   2.637  22.250  0.00  0.00    +0.053 C 
BRANCH  48  50
ATOM     49  C   UNL     1       7.522   0.504  23.490  0.00  0.00    +0.007 C 
ATOM     50  C   UNL     1       8.086   1.653  22.648  0.00  0.00    -0.013 C 
ATOM     51  C   UNL     1       8.841   1.065  21.452  0.00  0.00    +0.007 C 
ENDBRANCH  48  50
ENDBRANCH  39  48
ENDBRANCH  35  39
ENDBRANCH  34  36
ENDBRANCH   1  34
TORSDOF 13
ENDMDL
