MODEL 1
REMARK VINA RESULT:      -5.8      0.000      0.000
REMARK  Name = 
REMARK  12 active torsions:
REMARK  status: ('A' for Active; 'I' for Inactive)
REMARK    1  A    between atoms: O_1  and  C_2
REMARK    2  A    between atoms: C_2  and  C_3
REMARK    3  A    between atoms: C_3  and  N_4
REMARK    4  A    between atoms: N_4  and  C_5
REMARK    5  A    between atoms: C_5  and  C_6
REMARK    6  A    between atoms: C_6  and  O_7
REMARK    7  A    between atoms: N_22  and  C_23
REMARK    8  A    between atoms: N_22  and  C_26
REMARK    9  A    between atoms: C_23  and  C_24
REMARK   10  A    between atoms: C_24  and  O_25
REMARK   11  A    between atoms: C_26  and  C_27
REMARK   12  A    between atoms: C_27  and  O_28
REMARK                            x       y       z     vdW  Elec       q    Type
REMARK                         _______ _______ _______ _____ _____    ______ ____
ROOT
ATOM      1  N   UNL     1       7.290  -4.205  25.215  0.00  0.00    -0.295 N 
ATOM      2  C   UNL     1       6.883  -2.891  25.157  0.00  0.00    +0.220 A 
ATOM      3  N   UNL     1       7.604  -2.016  24.452  0.00  0.00    -0.197 NA
ATOM      4  C   UNL     1       7.264  -0.710  24.450  0.00  0.00    +0.153 A 
ATOM      5  N   UNL     1       8.009   0.136  23.591  0.00  0.00    -0.313 N 
ATOM      6  C   UNL     1       8.795   1.178  24.269  0.00  0.00    +0.106 C 
ATOM      7  C   UNL     1       9.251   2.205  23.226  0.00  0.00    +0.019 C 
ATOM      8  C   UNL     1       9.995   1.548  22.061  0.00  0.00    +0.003 C 
ATOM      9  C   UNL     1       9.193   0.388  21.479  0.00  0.00    +0.019 C 
ATOM     10  C   UNL     1       8.779  -0.592  22.573  0.00  0.00    +0.106 C 
ATOM     11  C   UNL     1       6.169  -0.214  25.182  0.00  0.00    +0.136 A 
ATOM     12  N   UNL     1       5.801   1.096  25.200  0.00  0.00    -0.209 NA
ATOM     13  C   UNL     1       4.737   1.460  25.915  0.00  0.00    +0.220 A 
ATOM     14  N   UNL     1       4.442   2.802  25.977  0.00  0.00    -0.295 N 
ATOM     15  N   UNL     1       3.972   0.581  26.565  0.00  0.00    -0.197 NA
ATOM     16  C   UNL     1       4.310  -0.729  26.510  0.00  0.00    +0.153 A 
ATOM     17  N   UNL     1       3.418  -1.677  27.073  0.00  0.00    -0.313 N 
ATOM     18  C   UNL     1       3.932  -2.353  28.268  0.00  0.00    +0.106 C 
ATOM     19  C   UNL     1       3.108  -3.623  28.504  0.00  0.00    +0.019 C 
ATOM     20  C   UNL     1       1.608  -3.326  28.563  0.00  0.00    +0.003 C 
ATOM     21  C   UNL     1       1.158  -2.501  27.356  0.00  0.00    +0.019 C 
ATOM     22  C   UNL     1       2.024  -1.248  27.180  0.00  0.00    +0.106 C 
ATOM     23  C   UNL     1       5.464  -1.194  25.849  0.00  0.00    +0.136 A 
ATOM     24  N   UNL     1       5.811  -2.506  25.840  0.00  0.00    -0.209 NA
ENDROOT
BRANCH   1  25
ATOM     25  C   UNL     1       6.374  -5.204  25.776  0.00  0.00    +0.136 C 
BRANCH  25  26
ATOM     26  C   UNL     1       6.505  -5.412  27.293  0.00  0.00    +0.174 C 
BRANCH  26  27
ATOM     27  O   UNL     1       7.821  -5.834  27.656  0.00  0.00    -0.393 OA
ATOM     28  H   UNL     1       7.935  -5.605  28.595  0.00  0.00    +0.209 HD
ENDBRANCH  26  27
ENDBRANCH  25  26
ENDBRANCH   1  25
BRANCH  14  29
ATOM     29  C   UNL     1       4.697   3.617  24.781  0.00  0.00    +0.136 C 
BRANCH  29  30
ATOM     30  C   UNL     1       3.765   3.277  23.604  0.00  0.00    +0.174 C 
BRANCH  30  31
ATOM     31  O   UNL     1       4.449   2.544  22.587  0.00  0.00    -0.393 OA
ATOM     32  H   UNL     1       3.856   1.807  22.352  0.00  0.00    +0.209 HD
ENDBRANCH  30  31
ENDBRANCH  29  30
ENDBRANCH  14  29
BRANCH  14  33
ATOM     33  C   UNL     1       3.570   3.321  27.031  0.00  0.00    +0.136 C 
BRANCH  33  34
ATOM     34  C   UNL     1       4.351   3.585  28.332  0.00  0.00    +0.174 C 
BRANCH  34  35
ATOM     35  O   UNL     1       4.338   2.442  29.187  0.00  0.00    -0.393 OA
ATOM     36  H   UNL     1       5.267   2.310  29.454  0.00  0.00    +0.209 HD
ENDBRANCH  34  35
ENDBRANCH  33  34
ENDBRANCH  14  33
BRANCH   1  37
ATOM     37  C   UNL     1       8.345  -4.649  24.296  0.00  0.00    +0.136 C 
BRANCH  37  38
ATOM     38  C   UNL     1       9.719  -4.730  24.991  0.00  0.00    +0.174 C 
BRANCH  38  39
ATOM     39  O   UNL     1       9.909  -5.982  25.654  0.00  0.00    -0.393 OA
ATOM     40  H   UNL     1      10.713  -5.866  26.192  0.00  0.00    +0.209 HD
ENDBRANCH  38  39
ENDBRANCH  37  38
ENDBRANCH   1  37
TORSDOF 12
ENDMDL
MODEL 2
REMARK VINA RESULT:      -5.8      2.888      6.011
REMARK  Name = 
REMARK  12 active torsions:
REMARK  status: ('A' for Active; 'I' for Inactive)
REMARK    1  A    between atoms: O_1  and  C_2
REMARK    2  A    between atoms: C_2  and  C_3
REMARK    3  A    between atoms: C_3  and  N_4
REMARK    4  A    between atoms: N_4  and  C_5
REMARK    5  A    between atoms: C_5  and  C_6
REMARK    6  A    between atoms: C_6  and  O_7
REMARK    7  A    between atoms: N_22  and  C_23
REMARK    8  A    between atoms: N_22  and  C_26
REMARK    9  A    between atoms: C_23  and  C_24
REMARK   10  A    between atoms: C_24  and  O_25
REMARK   11  A    between atoms: C_26  and  C_27
REMARK   12  A    between atoms: C_27  and  O_28
REMARK                            x       y       z     vdW  Elec       q    Type
REMARK                         _______ _______ _______ _____ _____    ______ ____
ROOT
ATOM      1  N   UNL     1       9.134   0.299  23.717  0.00  0.00    -0.295 N 
ATOM      2  C   UNL     1       8.098  -0.425  24.264  0.00  0.00    +0.220 A 
ATOM      3  N   UNL     1       7.743  -1.582  23.702  0.00  0.00    -0.197 NA
ATOM      4  C   UNL     1       6.679  -2.263  24.177  0.00  0.00    +0.153 A 
ATOM      5  N   UNL     1       6.434  -3.535  23.600  0.00  0.00    -0.313 N 
ATOM      6  C   UNL     1       5.160  -3.656  22.875  0.00  0.00    +0.106 C 
ATOM      7  C   UNL     1       4.881  -5.142  22.619  0.00  0.00    +0.019 C 
ATOM      8  C   UNL     1       6.049  -5.832  21.910  0.00  0.00    +0.003 C 
ATOM      9  C   UNL     1       7.367  -5.564  22.632  0.00  0.00    +0.019 C 
ATOM     10  C   UNL     1       7.578  -4.068  22.846  0.00  0.00    +0.106 C 
ATOM     11  C   UNL     1       5.902  -1.795  25.252  0.00  0.00    +0.136 A 
ATOM     12  N   UNL     1       4.825  -2.459  25.754  0.00  0.00    -0.209 NA
ATOM     13  C   UNL     1       4.165  -1.934  26.787  0.00  0.00    +0.220 A 
ATOM     14  N   UNL     1       3.034  -2.590  27.216  0.00  0.00    -0.295 N 
ATOM     15  N   UNL     1       4.556  -0.814  27.397  0.00  0.00    -0.197 NA
ATOM     16  C   UNL     1       5.655  -0.178  26.928  0.00  0.00    +0.153 A 
ATOM     17  N   UNL     1       6.156   0.926  27.664  0.00  0.00    -0.313 N 
ATOM     18  C   UNL     1       6.022   2.217  26.983  0.00  0.00    +0.106 C 
ATOM     19  C   UNL     1       6.971   3.221  27.645  0.00  0.00    +0.019 C 
ATOM     20  C   UNL     1       6.753   3.299  29.157  0.00  0.00    +0.003 C 
ATOM     21  C   UNL     1       6.769   1.907  29.793  0.00  0.00    +0.019 C 
ATOM     22  C   UNL     1       5.799   0.957  29.082  0.00  0.00    +0.106 C 
ATOM     23  C   UNL     1       6.364  -0.613  25.792  0.00  0.00    +0.136 A 
ATOM     24  N   UNL     1       7.439   0.063  25.309  0.00  0.00    -0.209 NA
ENDROOT
BRANCH   1  25
ATOM     25  C   UNL     1       9.679   1.432  24.471  0.00  0.00    +0.136 C 
BRANCH  25  26
ATOM     26  C   UNL     1      10.727   2.262  23.712  0.00  0.00    +0.174 C 
BRANCH  26  27
ATOM     27  O   UNL     1      10.116   3.193  22.818  0.00  0.00    -0.393 OA
ATOM     28  H   UNL     1       9.400   3.625  23.317  0.00  0.00    +0.209 HD
ENDBRANCH  26  27
ENDBRANCH  25  26
ENDBRANCH   1  25
BRANCH  14  29
ATOM     29  C   UNL     1       3.024  -4.057  27.150  0.00  0.00    +0.136 C 
BRANCH  29  30
ATOM     30  C   UNL     1       2.036  -4.611  26.106  0.00  0.00    +0.174 C 
BRANCH  30  31
ATOM     31  O   UNL     1       2.134  -3.910  24.866  0.00  0.00    -0.393 OA
ATOM     32  H   UNL     1       3.047  -3.571  24.828  0.00  0.00    +0.209 HD
ENDBRANCH  30  31
ENDBRANCH  29  30
ENDBRANCH  14  29
BRANCH  14  33
ATOM     33  C   UNL     1       2.047  -1.898  28.045  0.00  0.00    +0.136 C 
BRANCH  33  34
ATOM     34  C   UNL     1       1.198  -0.917  27.216  0.00  0.00    +0.174 C 
BRANCH  34  35
ATOM     35  O   UNL     1       0.781  -1.504  25.982  0.00  0.00    -0.393 OA
ATOM     36  H   UNL     1      -0.185  -1.376  25.950  0.00  0.00    +0.209 HD
ENDBRANCH  34  35
ENDBRANCH  33  34
ENDBRANCH  14  33
BRANCH   1  37
ATOM     37  C   UNL     1       9.974  -0.347  22.702  0.00  0.00    +0.136 C 
BRANCH  37  38
ATOM     38  C   UNL     1       9.404  -0.169  21.281  0.00  0.00    +0.174 C 
BRANCH  38  39
ATOM     39  O   UNL     1       8.925   1.159  21.060  0.00  0.00    -0.393 OA
ATOM     40  H   UNL     1       7.959   1.105  21.180  0.00  0.00    +0.209 HD
ENDBRANCH  38  39
ENDBRANCH  37  38
ENDBRANCH   1  37
TORSDOF 12
ENDMDL
MODEL 3
REMARK VINA RESULT:      -5.7      1.709      8.106
REMARK  Name = 
REMARK  12 active torsions:
REMARK  status: ('A' for Active; 'I' for Inactive)
REMARK    1  A    between atoms: O_1  and  C_2
REMARK    2  A    between atoms: C_2  and  C_3
REMARK    3  A    between atoms: C_3  and  N_4
REMARK    4  A    between atoms: N_4  and  C_5
REMARK    5  A    between atoms: C_5  and  C_6
REMARK    6  A    between atoms: C_6  and  O_7
REMARK    7  A    between atoms: N_22  and  C_23
REMARK    8  A    between atoms: N_22  and  C_26
REMARK    9  A    between atoms: C_23  and  C_24
REMARK   10  A    between atoms: C_24  and  O_25
REMARK   11  A    between atoms: C_26  and  C_27
REMARK   12  A    between atoms: C_27  and  O_28
REMARK                            x       y       z     vdW  Elec       q    Type
REMARK                         _______ _______ _______ _____ _____    ______ ____
ROOT
ATOM      1  N   UNL     1       5.013   2.386  26.381  0.00  0.00    -0.295 N 
ATOM      2  C   UNL     1       5.143   1.050  26.070  0.00  0.00    +0.220 A 
ATOM      3  N   UNL     1       4.270   0.176  26.574  0.00  0.00    -0.197 NA
ATOM      4  C   UNL     1       4.430  -1.145  26.345  0.00  0.00    +0.153 A 
ATOM      5  N   UNL     1       3.403  -1.998  26.819  0.00  0.00    -0.313 N 
ATOM      6  C   UNL     1       3.817  -2.956  27.856  0.00  0.00    +0.106 C 
ATOM      7  C   UNL     1       2.719  -4.016  28.010  0.00  0.00    +0.019 C 
ATOM      8  C   UNL     1       1.350  -3.389  28.279  0.00  0.00    +0.003 C 
ATOM      9  C   UNL     1       1.027  -2.308  27.250  0.00  0.00    +0.019 C 
ATOM     10  C   UNL     1       2.160  -1.289  27.156  0.00  0.00    +0.106 C 
ATOM     11  C   UNL     1       5.504  -1.654  25.591  0.00  0.00    +0.136 A 
ATOM     12  N   UNL     1       5.692  -2.979  25.342  0.00  0.00    -0.209 NA
ATOM     13  C   UNL     1       6.735  -3.357  24.602  0.00  0.00    +0.220 A 
ATOM     14  N   UNL     1       6.941  -4.707  24.438  0.00  0.00    -0.295 N 
ATOM     15  N   UNL     1       7.570  -2.484  24.038  0.00  0.00    -0.197 NA
ATOM     16  C   UNL     1       7.357  -1.163  24.247  0.00  0.00    +0.153 A 
ATOM     17  N   UNL     1       8.151  -0.233  23.529  0.00  0.00    -0.313 N 
ATOM     18  C   UNL     1       9.080   0.537  24.361  0.00  0.00    +0.106 C 
ATOM     19  C   UNL     1       9.530   1.773  23.576  0.00  0.00    +0.019 C 
ATOM     20  C   UNL     1      10.099   1.401  22.205  0.00  0.00    +0.003 C 
ATOM     21  C   UNL     1       9.143   0.485  21.438  0.00  0.00    +0.019 C 
ATOM     22  C   UNL     1       8.734  -0.728  22.281  0.00  0.00    +0.106 C 
ATOM     23  C   UNL     1       6.332  -0.677  25.081  0.00  0.00    +0.136 A 
ATOM     24  N   UNL     1       6.159   0.649  25.314  0.00  0.00    -0.209 NA
ENDROOT
BRANCH   1  25
ATOM     25  C   UNL     1       5.811   3.365  25.636  0.00  0.00    +0.136 C 
BRANCH  25  26
ATOM     26  C   UNL     1       7.038   3.900  26.393  0.00  0.00    +0.174 C 
BRANCH  26  27
ATOM     27  O   UNL     1       7.567   2.928  27.294  0.00  0.00    -0.393 OA
ATOM     28  H   UNL     1       6.948   2.881  28.044  0.00  0.00    +0.209 HD
ENDBRANCH  26  27
ENDBRANCH  25  26
ENDBRANCH   1  25
BRANCH  14  29
ATOM     29  C   UNL     1       5.759  -5.575  24.338  0.00  0.00    +0.136 C 
BRANCH  29  30
ATOM     30  C   UNL     1       5.161  -5.626  22.921  0.00  0.00    +0.174 C 
BRANCH  30  31
ATOM     31  O   UNL     1       4.331  -4.493  22.660  0.00  0.00    -0.393 OA
ATOM     32  H   UNL     1       4.928  -3.724  22.669  0.00  0.00    +0.209 HD
ENDBRANCH  30  31
ENDBRANCH  29  30
ENDBRANCH  14  29
BRANCH  14  33
ATOM     33  C   UNL     1       8.244  -5.210  24.003  0.00  0.00    +0.136 C 
BRANCH  33  34
ATOM     34  C   UNL     1       9.214  -5.368  25.189  0.00  0.00    +0.174 C 
BRANCH  34  35
ATOM     35  O   UNL     1       8.542  -5.861  26.349  0.00  0.00    -0.393 OA
ATOM     36  H   UNL     1       8.018  -6.623  26.038  0.00  0.00    +0.209 HD
ENDBRANCH  34  35
ENDBRANCH  33  34
ENDBRANCH  14  33
BRANCH   1  37
ATOM     37  C   UNL     1       3.779   2.831  27.038  0.00  0.00    +0.136 C 
BRANCH  37  38
ATOM     38  C   UNL     1       2.693   3.229  26.019  0.00  0.00    +0.174 C 
BRANCH  38  39
ATOM     39  O   UNL     1       1.873   2.118  25.651  0.00  0.00    -0.393 OA
ATOM     40  H   UNL     1       1.787   1.585  26.462  0.00  0.00    +0.209 HD
ENDBRANCH  38  39
ENDBRANCH  37  38
ENDBRANCH   1  37
TORSDOF 12
ENDMDL
MODEL 4
REMARK VINA RESULT:      -5.6      2.542      2.814
REMARK  Name = 
REMARK  12 active torsions:
REMARK  status: ('A' for Active; 'I' for Inactive)
REMARK    1  A    between atoms: O_1  and  C_2
REMARK    2  A    between atoms: C_2  and  C_3
REMARK    3  A    between atoms: C_3  and  N_4
REMARK    4  A    between atoms: N_4  and  C_5
REMARK    5  A    between atoms: C_5  and  C_6
REMARK    6  A    between atoms: C_6  and  O_7
REMARK    7  A    between atoms: N_22  and  C_23
REMARK    8  A    between atoms: N_22  and  C_26
REMARK    9  A    between atoms: C_23  and  C_24
REMARK   10  A    between atoms: C_24  and  O_25
REMARK   11  A    between atoms: C_26  and  C_27
REMARK   12  A    between atoms: C_27  and  O_28
REMARK                            x       y       z     vdW  Elec       q    Type
REMARK                         _______ _______ _______ _____ _____    ______ ____
ROOT
ATOM      1  N   UNL     1       6.535  -4.302  23.399  0.00  0.00    -0.295 N 
ATOM      2  C   UNL     1       6.633  -3.108  24.079  0.00  0.00    +0.220 A 
ATOM      3  N   UNL     1       7.411  -2.141  23.590  0.00  0.00    -0.197 NA
ATOM      4  C   UNL     1       7.581  -0.997  24.285  0.00  0.00    +0.153 A 
ATOM      5  N   UNL     1       8.330   0.024  23.648  0.00  0.00    -0.313 N 
ATOM      6  C   UNL     1       9.588   0.385  24.321  0.00  0.00    +0.106 C 
ATOM      7  C   UNL     1      10.097   1.706  23.731  0.00  0.00    +0.019 C 
ATOM      8  C   UNL     1      10.222   1.644  22.207  0.00  0.00    +0.003 C 
ATOM      9  C   UNL     1       8.932   1.137  21.569  0.00  0.00    +0.019 C 
ATOM     10  C   UNL     1       8.490  -0.180  22.202  0.00  0.00    +0.106 C 
ATOM     11  C   UNL     1       6.970  -0.775  25.533  0.00  0.00    +0.136 A 
ATOM     12  N   UNL     1       7.121   0.368  26.257  0.00  0.00    -0.209 NA
ATOM     13  C   UNL     1       6.486   0.484  27.423  0.00  0.00    +0.220 A 
ATOM     14  N   UNL     1       6.725   1.617  28.166  0.00  0.00    -0.295 N 
ATOM     15  N   UNL     1       5.652  -0.450  27.884  0.00  0.00    -0.197 NA
ATOM     16  C   UNL     1       5.466  -1.567  27.143  0.00  0.00    +0.153 A 
ATOM     17  N   UNL     1       4.471  -2.489  27.557  0.00  0.00    -0.313 N 
ATOM     18  C   UNL     1       4.995  -3.776  28.023  0.00  0.00    +0.106 C 
ATOM     19  C   UNL     1       3.859  -4.803  28.007  0.00  0.00    +0.019 C 
ATOM     20  C   UNL     1       2.640  -4.316  28.793  0.00  0.00    +0.003 C 
ATOM     21  C   UNL     1       2.222  -2.911  28.354  0.00  0.00    +0.019 C 
ATOM     22  C   UNL     1       3.405  -1.937  28.394  0.00  0.00    +0.106 C 
ATOM     23  C   UNL     1       6.158  -1.811  25.941  0.00  0.00    +0.136 A 
ATOM     24  N   UNL     1       5.991  -2.957  25.232  0.00  0.00    -0.209 NA
ENDROOT
BRANCH   1  25
ATOM     25  C   UNL     1       5.500  -5.260  23.799  0.00  0.00    +0.136 C 
BRANCH  25  26
ATOM     26  C   UNL     1       4.074  -4.878  23.370  0.00  0.00    +0.174 C 
BRANCH  26  27
ATOM     27  O   UNL     1       3.357  -4.243  24.429  0.00  0.00    -0.393 OA
ATOM     28  H   UNL     1       3.922  -3.517  24.748  0.00  0.00    +0.209 HD
ENDBRANCH  26  27
ENDBRANCH  25  26
ENDBRANCH   1  25
BRANCH  14  29
ATOM     29  C   UNL     1       6.938   2.879  27.445  0.00  0.00    +0.136 C 
BRANCH  29  30
ATOM     30  C   UNL     1       5.655   3.433  26.798  0.00  0.00    +0.174 C 
BRANCH  30  31
ATOM     31  O   UNL     1       5.582   3.102  25.410  0.00  0.00    -0.393 OA
ATOM     32  H   UNL     1       5.396   3.941  24.951  0.00  0.00    +0.209 HD
ENDBRANCH  30  31
ENDBRANCH  29  30
ENDBRANCH  14  29
BRANCH  14  33
ATOM     33  C   UNL     1       6.407   1.647  29.594  0.00  0.00    +0.136 C 
BRANCH  33  34
ATOM     34  C   UNL     1       7.659   1.931  30.446  0.00  0.00    +0.174 C 
BRANCH  34  35
ATOM     35  O   UNL     1       8.751   1.095  30.062  0.00  0.00    -0.393 OA
ATOM     36  H   UNL     1       8.650   0.281  30.591  0.00  0.00    +0.209 HD
ENDBRANCH  34  35
ENDBRANCH  33  34
ENDBRANCH  14  33
BRANCH   1  37
ATOM     37  C   UNL     1       7.080  -4.375  22.038  0.00  0.00    +0.136 C 
BRANCH  37  38
ATOM     38  C   UNL     1       6.776  -5.728  21.366  0.00  0.00    +0.174 C 
BRANCH  38  39
ATOM     39  O   UNL     1       5.977  -5.574  20.191  0.00  0.00    -0.393 OA
ATOM     40  H   UNL     1       5.461  -4.760  20.339  0.00  0.00    +0.209 HD
ENDBRANCH  38  39
ENDBRANCH  37  38
ENDBRANCH   1  37
TORSDOF 12
ENDMDL
MODEL 5
REMARK VINA RESULT:      -5.6      2.374      6.138
REMARK  Name = 
REMARK  12 active torsions:
REMARK  status: ('A' for Active; 'I' for Inactive)
REMARK    1  A    between atoms: O_1  and  C_2
REMARK    2  A    between atoms: C_2  and  C_3
REMARK    3  A    between atoms: C_3  and  N_4
REMARK    4  A    between atoms: N_4  and  C_5
REMARK    5  A    between atoms: C_5  and  C_6
REMARK    6  A    between atoms: C_6  and  O_7
REMARK    7  A    between atoms: N_22  and  C_23
REMARK    8  A    between atoms: N_22  and  C_26
REMARK    9  A    between atoms: C_23  and  C_24
REMARK   10  A    between atoms: C_24  and  O_25
REMARK   11  A    between atoms: C_26  and  C_27
REMARK   12  A    between atoms: C_27  and  O_28
REMARK                            x       y       z     vdW  Elec       q    Type
REMARK                         _______ _______ _______ _____ _____    ______ ____
ROOT
ATOM      1  N   UNL     1       8.753   0.104  23.620  0.00  0.00    -0.295 N 
ATOM      2  C   UNL     1       7.853  -0.265  24.595  0.00  0.00    +0.220 A 
ATOM      3  N   UNL     1       7.548   0.602  25.563  0.00  0.00    -0.197 NA
ATOM      4  C   UNL     1       6.730   0.227  26.569  0.00  0.00    +0.153 A 
ATOM      5  N   UNL     1       6.366   1.236  27.496  0.00  0.00    -0.313 N 
ATOM      6  C   UNL     1       6.828   1.012  28.875  0.00  0.00    +0.106 C 
ATOM      7  C   UNL     1       6.080   1.974  29.805  0.00  0.00    +0.019 C 
ATOM      8  C   UNL     1       6.212   3.430  29.352  0.00  0.00    +0.003 C 
ATOM      9  C   UNL     1       5.847   3.583  27.878  0.00  0.00    +0.019 C 
ATOM     10  C   UNL     1       6.633   2.599  27.016  0.00  0.00    +0.106 C 
ATOM     11  C   UNL     1       6.180  -1.065  26.653  0.00  0.00    +0.136 A 
ATOM     12  N   UNL     1       5.353  -1.472  27.655  0.00  0.00    -0.209 NA
ATOM     13  C   UNL     1       4.873  -2.716  27.633  0.00  0.00    +0.220 A 
ATOM     14  N   UNL     1       4.106  -3.119  28.701  0.00  0.00    -0.295 N 
ATOM     15  N   UNL     1       5.118  -3.563  26.632  0.00  0.00    -0.197 NA
ATOM     16  C   UNL     1       5.904  -3.144  25.613  0.00  0.00    +0.153 A 
ATOM     17  N   UNL     1       6.042  -3.988  24.482  0.00  0.00    -0.313 N 
ATOM     18  C   UNL     1       7.384  -4.552  24.309  0.00  0.00    +0.106 C 
ATOM     19  C   UNL     1       7.525  -5.050  22.868  0.00  0.00    +0.019 C 
ATOM     20  C   UNL     1       6.400  -6.015  22.486  0.00  0.00    +0.003 C 
ATOM     21  C   UNL     1       5.027  -5.424  22.815  0.00  0.00    +0.019 C 
ATOM     22  C   UNL     1       4.958  -4.947  24.270  0.00  0.00    +0.106 C 
ATOM     23  C   UNL     1       6.520  -1.878  25.593  0.00  0.00    +0.136 A 
ATOM     24  N   UNL     1       7.341  -1.490  24.583  0.00  0.00    -0.209 NA
ENDROOT
BRANCH   1  25
ATOM     25  C   UNL     1       8.897  -0.745  22.434  0.00  0.00    +0.136 C 
BRANCH  25  26
ATOM     26  C   UNL     1      10.190  -1.576  22.393  0.00  0.00    +0.174 C 
BRANCH  26  27
ATOM     27  O   UNL     1      10.206  -2.576  23.412  0.00  0.00    -0.393 OA
ATOM     28  H   UNL     1       9.338  -3.015  23.382  0.00  0.00    +0.209 HD
ENDBRANCH  26  27
ENDBRANCH  25  26
ENDBRANCH   1  25
BRANCH  14  29
ATOM     29  C   UNL     1       3.228  -2.124  29.330  0.00  0.00    +0.136 C 
BRANCH  29  30
ATOM     30  C   UNL     1       1.743  -2.305  28.963  0.00  0.00    +0.174 C 
BRANCH  30  31
ATOM     31  O   UNL     1       1.464  -1.819  27.650  0.00  0.00    -0.393 OA
ATOM     32  H   UNL     1       0.986  -0.980  27.778  0.00  0.00    +0.209 HD
ENDBRANCH  30  31
ENDBRANCH  29  30
ENDBRANCH  14  29
BRANCH  14  33
ATOM     33  C   UNL     1       3.884  -4.542  28.958  0.00  0.00    +0.136 C 
BRANCH  33  34
ATOM     34  C   UNL     1       4.985  -5.132  29.860  0.00  0.00    +0.174 C 
BRANCH  34  35
ATOM     35  O   UNL     1       6.186  -5.371  29.125  0.00  0.00    -0.393 OA
ATOM     36  H   UNL     1       6.713  -4.556  29.222  0.00  0.00    +0.209 HD
ENDBRANCH  34  35
ENDBRANCH  33  34
ENDBRANCH  14  33
BRANCH   1  37
ATOM     37  C   UNL     1       9.144   1.516  23.533  0.00  0.00    +0.136 C 
BRANCH  37  38
ATOM     38  C   UNL     1       8.998   2.068  22.101  0.00  0.00    +0.174 C 
BRANCH  38  39
ATOM     39  O   UNL     1      10.264   2.237  21.461  0.00  0.00    -0.393 OA
ATOM     40  H   UNL     1      10.679   1.355  21.481  0.00  0.00    +0.209 HD
ENDBRANCH  38  39
ENDBRANCH  37  38
ENDBRANCH   1  37
TORSDOF 12
ENDMDL
MODEL 6
REMARK VINA RESULT:      -5.6      2.660      6.386
REMARK  Name = 
REMARK  12 active torsions:
REMARK  status: ('A' for Active; 'I' for Inactive)
REMARK    1  A    between atoms: O_1  and  C_2
REMARK    2  A    between atoms: C_2  and  C_3
REMARK    3  A    between atoms: C_3  and  N_4
REMARK    4  A    between atoms: N_4  and  C_5
REMARK    5  A    between atoms: C_5  and  C_6
REMARK    6  A    between atoms: C_6  and  O_7
REMARK    7  A    between atoms: N_22  and  C_23
REMARK    8  A    between atoms: N_22  and  C_26
REMARK    9  A    between atoms: C_23  and  C_24
REMARK   10  A    between atoms: C_24  and  O_25
REMARK   11  A    between atoms: C_26  and  C_27
REMARK   12  A    between atoms: C_27  and  O_28
REMARK                            x       y       z     vdW  Elec       q    Type
REMARK                         _______ _______ _______ _____ _____    ______ ____
ROOT
ATOM      1  N   UNL     1       6.216  -4.360  23.821  0.00  0.00    -0.295 N 
ATOM      2  C   UNL     1       6.243  -3.389  24.797  0.00  0.00    +0.220 A 
ATOM      3  N   UNL     1       5.594  -3.600  25.944  0.00  0.00    -0.197 NA
ATOM      4  C   UNL     1       5.543  -2.627  26.878  0.00  0.00    +0.153 A 
ATOM      5  N   UNL     1       4.932  -2.966  28.111  0.00  0.00    -0.313 N 
ATOM      6  C   UNL     1       3.710  -2.211  28.430  0.00  0.00    +0.106 C 
ATOM      7  C   UNL     1       3.372  -2.429  29.910  0.00  0.00    +0.019 C 
ATOM      8  C   UNL     1       3.275  -3.914  30.264  0.00  0.00    +0.003 C 
ATOM      9  C   UNL     1       4.512  -4.674  29.793  0.00  0.00    +0.019 C 
ATOM     10  C   UNL     1       4.782  -4.414  28.314  0.00  0.00    +0.106 C 
ATOM     11  C   UNL     1       6.146  -1.370  26.691  0.00  0.00    +0.136 A 
ATOM     12  N   UNL     1       6.113  -0.369  27.614  0.00  0.00    -0.209 NA
ATOM     13  C   UNL     1       6.731   0.781  27.343  0.00  0.00    +0.220 A 
ATOM     14  N   UNL     1       6.608   1.798  28.262  0.00  0.00    -0.295 N 
ATOM     15  N   UNL     1       7.439   0.973  26.230  0.00  0.00    -0.197 NA
ATOM     16  C   UNL     1       7.511  -0.038  25.332  0.00  0.00    +0.153 A 
ATOM     17  N   UNL     1       8.383   0.110  24.223  0.00  0.00    -0.313 N 
ATOM     18  C   UNL     1       7.701   0.227  22.931  0.00  0.00    +0.106 C 
ATOM     19  C   UNL     1       8.710  -0.069  21.817  0.00  0.00    +0.019 C 
ATOM     20  C   UNL     1       9.960   0.806  21.933  0.00  0.00    +0.003 C 
ATOM     21  C   UNL     1      10.549   0.749  23.344  0.00  0.00    +0.019 C 
ATOM     22  C   UNL     1       9.486   1.054  24.406  0.00  0.00    +0.106 C 
ATOM     23  C   UNL     1       6.823  -1.256  25.495  0.00  0.00    +0.136 A 
ATOM     24  N   UNL     1       6.872  -2.243  24.564  0.00  0.00    -0.209 NA
ENDROOT
BRANCH   1  25
ATOM     25  C   UNL     1       7.124  -4.235  22.676  0.00  0.00    +0.136 C 
BRANCH  25  26
ATOM     26  C   UNL     1       7.007  -5.364  21.639  0.00  0.00    +0.174 C 
BRANCH  26  27
ATOM     27  O   UNL     1       5.919  -5.144  20.740  0.00  0.00    -0.393 OA
ATOM     28  H   UNL     1       5.653  -4.214  20.851  0.00  0.00    +0.209 HD
ENDBRANCH  26  27
ENDBRANCH  25  26
ENDBRANCH   1  25
BRANCH  14  29
ATOM     29  C   UNL     1       6.560   1.436  29.685  0.00  0.00    +0.136 C 
BRANCH  29  30
ATOM     30  C   UNL     1       7.772   1.950  30.484  0.00  0.00    +0.174 C 
BRANCH  30  31
ATOM     31  O   UNL     1       8.946   1.186  30.207  0.00  0.00    -0.393 OA
ATOM     32  H   UNL     1       8.887   0.946  29.265  0.00  0.00    +0.209 HD
ENDBRANCH  30  31
ENDBRANCH  29  30
ENDBRANCH  14  29
BRANCH  14  33
ATOM     33  C   UNL     1       6.895   3.180  27.879  0.00  0.00    +0.136 C 
BRANCH  33  34
ATOM     34  C   UNL     1       5.626   3.908  27.395  0.00  0.00    +0.174 C 
BRANCH  34  35
ATOM     35  O   UNL     1       4.777   4.255  28.490  0.00  0.00    -0.393 OA
ATOM     36  H   UNL     1       4.868   5.221  28.589  0.00  0.00    +0.209 HD
ENDBRANCH  34  35
ENDBRANCH  33  34
ENDBRANCH  14  33
BRANCH   1  37
ATOM     37  C   UNL     1       5.698  -5.687  24.172  0.00  0.00    +0.136 C 
BRANCH  37  38
ATOM     38  C   UNL     1       4.200  -5.829  23.838  0.00  0.00    +0.174 C 
BRANCH  38  39
ATOM     39  O   UNL     1       3.792  -4.918  22.816  0.00  0.00    -0.393 OA
ATOM     40  H   UNL     1       2.873  -5.167  22.605  0.00  0.00    +0.209 HD
ENDBRANCH  38  39
ENDBRANCH  37  38
ENDBRANCH   1  37
TORSDOF 12
ENDMDL
MODEL 7
REMARK VINA RESULT:      -5.5      0.959      8.413
REMARK  Name = 
REMARK  12 active torsions:
REMARK  status: ('A' for Active; 'I' for Inactive)
REMARK    1  A    between atoms: O_1  and  C_2
REMARK    2  A    between atoms: C_2  and  C_3
REMARK    3  A    between atoms: C_3  and  N_4
REMARK    4  A    between atoms: N_4  and  C_5
REMARK    5  A    between atoms: C_5  and  C_6
REMARK    6  A    between atoms: C_6  and  O_7
REMARK    7  A    between atoms: N_22  and  C_23
REMARK    8  A    between atoms: N_22  and  C_26
REMARK    9  A    between atoms: C_23  and  C_24
REMARK   10  A    between atoms: C_24  and  O_25
REMARK   11  A    between atoms: C_26  and  C_27
REMARK   12  A    between atoms: C_27  and  O_28
REMARK                            x       y       z     vdW  Elec       q    Type
REMARK                         _______ _______ _______ _____ _____    ______ ____
ROOT
ATOM      1  N   UNL     1       4.501   3.313  25.336  0.00  0.00    -0.295 N 
ATOM      2  C   UNL     1       4.842   1.993  25.533  0.00  0.00    +0.220 A 
ATOM      3  N   UNL     1       4.054   1.222  26.286  0.00  0.00    -0.197 NA
ATOM      4  C   UNL     1       4.416  -0.050  26.554  0.00  0.00    +0.153 A 
ATOM      5  N   UNL     1       3.475  -0.837  27.265  0.00  0.00    -0.313 N 
ATOM      6  C   UNL     1       3.918  -1.290  28.593  0.00  0.00    +0.106 C 
ATOM      7  C   UNL     1       2.967  -2.392  29.077  0.00  0.00    +0.019 C 
ATOM      8  C   UNL     1       1.505  -1.941  29.048  0.00  0.00    +0.003 C 
ATOM      9  C   UNL     1       1.135  -1.358  27.687  0.00  0.00    +0.019 C 
ATOM     10  C   UNL     1       2.120  -0.268  27.275  0.00  0.00    +0.106 C 
ATOM     11  C   UNL     1       5.615  -0.610  26.078  0.00  0.00    +0.136 A 
ATOM     12  N   UNL     1       6.007  -1.889  26.331  0.00  0.00    -0.209 NA
ATOM     13  C   UNL     1       7.157  -2.327  25.819  0.00  0.00    +0.220 A 
ATOM     14  N   UNL     1       7.561  -3.597  26.162  0.00  0.00    -0.295 N 
ATOM     15  N   UNL     1       7.913  -1.584  25.010  0.00  0.00    -0.197 NA
ATOM     16  C   UNL     1       7.501  -0.328  24.720  0.00  0.00    +0.153 A 
ATOM     17  N   UNL     1       8.224   0.407  23.746  0.00  0.00    -0.313 N 
ATOM     18  C   UNL     1       8.955   1.560  24.278  0.00  0.00    +0.106 C 
ATOM     19  C   UNL     1       9.303   2.498  23.118  0.00  0.00    +0.019 C 
ATOM     20  C   UNL     1      10.044   1.766  21.997  0.00  0.00    +0.003 C 
ATOM     21  C   UNL     1       9.300   0.497  21.577  0.00  0.00    +0.019 C 
ATOM     22  C   UNL     1       8.985  -0.392  22.785  0.00  0.00    +0.106 C 
ATOM     23  C   UNL     1       6.345   0.247  25.282  0.00  0.00    +0.136 A 
ATOM     24  N   UNL     1       5.970   1.524  25.013  0.00  0.00    -0.209 NA
ENDROOT
BRANCH   1  25
ATOM     25  C   UNL     1       5.223   4.084  24.319  0.00  0.00    +0.136 C 
BRANCH  25  26
ATOM     26  C   UNL     1       4.857   3.732  22.868  0.00  0.00    +0.174 C 
BRANCH  26  27
ATOM     27  O   UNL     1       5.869   2.940  22.246  0.00  0.00    -0.393 OA
ATOM     28  H   UNL     1       5.617   2.010  22.388  0.00  0.00    +0.209 HD
ENDBRANCH  26  27
ENDBRANCH  25  26
ENDBRANCH   1  25
BRANCH  14  29
ATOM     29  C   UNL     1       6.525  -4.624  26.336  0.00  0.00    +0.136 C 
BRANCH  29  30
ATOM     30  C   UNL     1       6.460  -5.183  27.770  0.00  0.00    +0.174 C 
BRANCH  30  31
ATOM     31  O   UNL     1       7.450  -6.188  27.988  0.00  0.00    -0.393 OA
ATOM     32  H   UNL     1       7.351  -6.818  27.251  0.00  0.00    +0.209 HD
ENDBRANCH  30  31
ENDBRANCH  29  30
ENDBRANCH  14  29
BRANCH  14  33
ATOM     33  C   UNL     1       8.956  -4.002  25.989  0.00  0.00    +0.136 C 
BRANCH  33  34
ATOM     34  C   UNL     1       9.090  -5.145  24.965  0.00  0.00    +0.174 C 
BRANCH  34  35
ATOM     35  O   UNL     1       9.480  -6.366  25.597  0.00  0.00    -0.393 OA
ATOM     36  H   UNL     1       8.893  -6.453  26.371  0.00  0.00    +0.209 HD
ENDBRANCH  34  35
ENDBRANCH  33  34
ENDBRANCH  14  33
BRANCH   1  37
ATOM     37  C   UNL     1       3.161   3.754  25.740  0.00  0.00    +0.136 C 
BRANCH  37  38
ATOM     38  C   UNL     1       3.174   4.457  27.112  0.00  0.00    +0.174 C 
BRANCH  38  39
ATOM     39  O   UNL     1       3.051   3.527  28.190  0.00  0.00    -0.393 OA
ATOM     40  H   UNL     1       3.392   3.998  28.972  0.00  0.00    +0.209 HD
ENDBRANCH  38  39
ENDBRANCH  37  38
ENDBRANCH   1  37
TORSDOF 12
ENDMDL
MODEL 8
REMARK VINA RESULT:      -5.4      1.596      5.821
REMARK  Name = 
REMARK  12 active torsions:
REMARK  status: ('A' for Active; 'I' for Inactive)
REMARK    1  A    between atoms: O_1  and  C_2
REMARK    2  A    between atoms: C_2  and  C_3
REMARK    3  A    between atoms: C_3  and  N_4
REMARK    4  A    between atoms: N_4  and  C_5
REMARK    5  A    between atoms: C_5  and  C_6
REMARK    6  A    between atoms: C_6  and  O_7
REMARK    7  A    between atoms: N_22  and  C_23
REMARK    8  A    between atoms: N_22  and  C_26
REMARK    9  A    between atoms: C_23  and  C_24
REMARK   10  A    between atoms: C_24  and  O_25
REMARK   11  A    between atoms: C_26  and  C_27
REMARK   12  A    between atoms: C_27  and  O_28
REMARK                            x       y       z     vdW  Elec       q    Type
REMARK                         _______ _______ _______ _____ _____    ______ ____
ROOT
ATOM      1  N   UNL     1       6.736  -4.402  26.312  0.00  0.00    -0.295 N 
ATOM      2  C   UNL     1       6.230  -3.122  26.268  0.00  0.00    +0.220 A 
ATOM      3  N   UNL     1       5.259  -2.775  27.115  0.00  0.00    -0.197 NA
ATOM      4  C   UNL     1       4.698  -1.551  27.032  0.00  0.00    +0.153 A 
ATOM      5  N   UNL     1       3.753  -1.219  28.036  0.00  0.00    -0.313 N 
ATOM      6  C   UNL     1       2.384  -0.986  27.551  0.00  0.00    +0.106 C 
ATOM      7  C   UNL     1       1.577  -0.310  28.667  0.00  0.00    +0.019 C 
ATOM      8  C   UNL     1       1.630  -1.103  29.975  0.00  0.00    +0.003 C 
ATOM      9  C   UNL     1       3.069  -1.431  30.362  0.00  0.00    +0.019 C 
ATOM     10  C   UNL     1       3.806  -2.104  29.207  0.00  0.00    +0.106 C 
ATOM     11  C   UNL     1       5.089  -0.606  26.066  0.00  0.00    +0.136 A 
ATOM     12  N   UNL     1       4.542   0.636  25.956  0.00  0.00    -0.209 NA
ATOM     13  C   UNL     1       4.996   1.462  25.014  0.00  0.00    +0.220 A 
ATOM     14  N   UNL     1       4.367   2.678  24.879  0.00  0.00    -0.295 N 
ATOM     15  N   UNL     1       6.013   1.147  24.210  0.00  0.00    -0.197 NA
ATOM     16  C   UNL     1       6.587  -0.071  24.348  0.00  0.00    +0.153 A 
ATOM     17  N   UNL     1       7.759  -0.349  23.599  0.00  0.00    -0.313 N 
ATOM     18  C   UNL     1       7.584  -1.365  22.558  0.00  0.00    +0.106 C 
ATOM     19  C   UNL     1       8.964  -1.888  22.146  0.00  0.00    +0.019 C 
ATOM     20  C   UNL     1       9.905  -0.751  21.741  0.00  0.00    +0.003 C 
ATOM     21  C   UNL     1       9.942   0.345  22.808  0.00  0.00    +0.019 C 
ATOM     22  C   UNL     1       8.530   0.819  23.172  0.00  0.00    +0.106 C 
ATOM     23  C   UNL     1       6.120  -1.037  25.259  0.00  0.00    +0.136 A 
ATOM     24  N   UNL     1       6.681  -2.270  25.354  0.00  0.00    -0.209 NA
ENDROOT
BRANCH   1  25
ATOM     25  C   UNL     1       7.958  -4.705  25.560  0.00  0.00    +0.136 C 
BRANCH  25  26
ATOM     26  C   UNL     1       9.241  -4.732  26.407  0.00  0.00    +0.174 C 
BRANCH  26  27
ATOM     27  O   UNL     1      10.269  -5.500  25.781  0.00  0.00    -0.393 OA
ATOM     28  H   UNL     1      11.111  -5.199  26.166  0.00  0.00    +0.209 HD
ENDBRANCH  26  27
ENDBRANCH  25  26
ENDBRANCH   1  25
BRANCH  14  29
ATOM     29  C   UNL     1       3.872   3.334  26.097  0.00  0.00    +0.136 C 
BRANCH  29  30
ATOM     30  C   UNL     1       2.336   3.357  26.194  0.00  0.00    +0.174 C 
BRANCH  30  31
ATOM     31  O   UNL     1       1.764   2.118  25.774  0.00  0.00    -0.393 OA
ATOM     32  H   UNL     1       0.848   2.127  26.104  0.00  0.00    +0.209 HD
ENDBRANCH  30  31
ENDBRANCH  29  30
ENDBRANCH  14  29
BRANCH  14  33
ATOM     33  C   UNL     1       4.516   3.458  23.650  0.00  0.00    +0.136 C 
BRANCH  33  34
ATOM     34  C   UNL     1       5.496   4.631  23.840  0.00  0.00    +0.174 C 
BRANCH  34  35
ATOM     35  O   UNL     1       6.853   4.184  23.813  0.00  0.00    -0.393 OA
ATOM     36  H   UNL     1       6.935   3.567  24.564  0.00  0.00    +0.209 HD
ENDBRANCH  34  35
ENDBRANCH  33  34
ENDBRANCH  14  33
BRANCH   1  37
ATOM     37  C   UNL     1       6.375  -5.254  27.451  0.00  0.00    +0.136 C 
BRANCH  37  38
ATOM     38  C   UNL     1       5.385  -6.366  27.050  0.00  0.00    +0.174 C 
BRANCH  38  39
ATOM     39  O   UNL     1       5.350  -7.422  28.012  0.00  0.00    -0.393 OA
ATOM     40  H   UNL     1       5.812  -7.070  28.794  0.00  0.00    +0.209 HD
ENDBRANCH  38  39
ENDBRANCH  37  38
ENDBRANCH   1  37
TORSDOF 12
ENDMDL
MODEL 9
REMARK VINA RESULT:      -5.4      2.583      6.067
REMARK  Name = 
REMARK  12 active torsions:
REMARK  status: ('A' for Active; 'I' for Inactive)
REMARK    1  A    between atoms: O_1  and  C_2
REMARK    2  A    between atoms: C_2  and  C_3
REMARK    3  A    between atoms: C_3  and  N_4
REMARK    4  A    between atoms: N_4  and  C_5
REMARK    5  A    between atoms: C_5  and  C_6
REMARK    6  A    between atoms: C_6  and  O_7
REMARK    7  A    between atoms: N_22  and  C_23
REMARK    8  A    between atoms: N_22  and  C_26
REMARK    9  A    between atoms: C_23  and  C_24
REMARK   10  A    between atoms: C_24  and  O_25
REMARK   11  A    between atoms: C_26  and  C_27
REMARK   12  A    between atoms: C_27  and  O_28
REMARK                            x       y       z     vdW  Elec       q    Type
REMARK                         _______ _______ _______ _____ _____    ______ ____
ROOT
ATOM      1  N   UNL     1       3.137  -3.804  27.219  0.00  0.00    -0.295 N 
ATOM      2  C   UNL     1       4.093  -2.923  26.765  0.00  0.00    +0.220 A 
ATOM      3  N   UNL     1       4.315  -1.795  27.443  0.00  0.00    -0.197 NA
ATOM      4  C   UNL     1       5.190  -0.884  26.968  0.00  0.00    +0.153 A 
ATOM      5  N   UNL     1       5.454   0.233  27.799  0.00  0.00    -0.313 N 
ATOM      6  C   UNL     1       5.049   1.533  27.243  0.00  0.00    +0.106 C 
ATOM      7  C   UNL     1       5.699   2.646  28.075  0.00  0.00    +0.019 C 
ATOM      8  C   UNL     1       5.390   2.503  29.567  0.00  0.00    +0.003 C 
ATOM      9  C   UNL     1       5.705   1.095  30.062  0.00  0.00    +0.019 C 
ATOM     10  C   UNL     1       5.022   0.044  29.192  0.00  0.00    +0.106 C 
ATOM     11  C   UNL     1       5.888  -1.067  25.760  0.00  0.00    +0.136 A 
ATOM     12  N   UNL     1       6.777  -0.168  25.255  0.00  0.00    -0.209 NA
ATOM     13  C   UNL     1       7.396  -0.445  24.107  0.00  0.00    +0.220 A 
ATOM     14  N   UNL     1       8.226   0.520  23.585  0.00  0.00    -0.295 N 
ATOM     15  N   UNL     1       7.231  -1.600  23.461  0.00  0.00    -0.197 NA
ATOM     16  C   UNL     1       6.382  -2.514  23.987  0.00  0.00    +0.153 A 
ATOM     17  N   UNL     1       6.320  -3.796  23.384  0.00  0.00    -0.313 N 
ATOM     18  C   UNL     1       5.049  -4.088  22.713  0.00  0.00    +0.106 C 
ATOM     19  C   UNL     1       4.938  -5.602  22.510  0.00  0.00    +0.019 C 
ATOM     20  C   UNL     1       6.159  -6.170  21.784  0.00  0.00    +0.003 C 
ATOM     21  C   UNL     1       7.460  -5.720  22.451  0.00  0.00    +0.019 C 
ATOM     22  C   UNL     1       7.503  -4.197  22.623  0.00  0.00    +0.106 C 
ATOM     23  C   UNL     1       5.623  -2.274  25.148  0.00  0.00    +0.136 A 
ATOM     24  N   UNL     1       4.743  -3.186  25.637  0.00  0.00    -0.209 NA
ENDROOT
BRANCH   1  25
ATOM     25  C   UNL     1       3.069  -5.141  26.622  0.00  0.00    +0.136 C 
BRANCH  25  26
ATOM     26  C   UNL     1       1.892  -5.353  25.656  0.00  0.00    +0.174 C 
BRANCH  26  27
ATOM     27  O   UNL     1       2.032  -4.564  24.473  0.00  0.00    -0.393 OA
ATOM     28  H   UNL     1       1.962  -5.179  23.722  0.00  0.00    +0.209 HD
ENDBRANCH  26  27
ENDBRANCH  25  26
ENDBRANCH   1  25
BRANCH  14  29
ATOM     29  C   UNL     1       8.996   1.346  24.526  0.00  0.00    +0.136 C 
BRANCH  29  30
ATOM     30  C   UNL     1       8.561   2.823  24.534  0.00  0.00    +0.174 C 
BRANCH  30  31
ATOM     31  O   UNL     1       7.145   2.953  24.670  0.00  0.00    -0.393 OA
ATOM     32  H   UNL     1       6.998   3.290  25.572  0.00  0.00    +0.209 HD
ENDBRANCH  30  31
ENDBRANCH  29  30
ENDBRANCH  14  29
BRANCH  14  33
ATOM     33  C   UNL     1       8.616   0.478  22.176  0.00  0.00    +0.136 C 
BRANCH  33  34
ATOM     34  C   UNL     1       9.987  -0.199  21.988  0.00  0.00    +0.174 C 
BRANCH  34  35
ATOM     35  O   UNL     1       9.844  -1.544  21.531  0.00  0.00    -0.393 OA
ATOM     36  H   UNL     1      10.704  -1.969  21.711  0.00  0.00    +0.209 HD
ENDBRANCH  34  35
ENDBRANCH  33  34
ENDBRANCH  14  33
BRANCH   1  37
ATOM     37  C   UNL     1       2.584  -3.599  28.562  0.00  0.00    +0.136 C 
BRANCH  37  38
ATOM     38  C   UNL     1       3.353  -4.400  29.632  0.00  0.00    +0.174 C 
BRANCH  38  39
ATOM     39  O   UNL     1       4.496  -3.689  30.111  0.00  0.00    -0.393 OA
ATOM     40  H   UNL     1       4.729  -3.068  29.397  0.00  0.00    +0.209 HD
ENDBRANCH  38  39
ENDBRANCH  37  38
ENDBRANCH   1  37
TORSDOF 12
ENDMDL
