MODEL 1
REMARK VINA RESULT:      -4.2      0.000      0.000
REMARK  Name = 
REMARK  7 active torsions:
REMARK  status: ('A' for Active; 'I' for Inactive)
REMARK    1  A    between atoms: C_1  and  C_2
REMARK    2  A    between atoms: C_2  and  C_3
REMARK    3  A    between atoms: C_3  and  C_4
REMARK    4  A    between atoms: C_4  and  CA_5
REMARK    5  A    between atoms: CA_5  and  N_7
REMARK    6  A    between atoms: CA_5  and  C_8
REMARK    7  A    between atoms: C_8  and  O_9
REMARK                            x       y       z     vdW  Elec       q    Type
REMARK                         _______ _______ _______ _____ _____    ______ ____
ROOT
ATOM      1  CA  UNL     1       8.823  -5.495  25.251  0.00  0.00    +0.161 C 
ENDROOT
BRANCH   1   2
ATOM      2  N   UNL     1      10.311  -5.479  25.358  0.00  0.00    -0.318 NA
ATOM      3  H1  UNL     1      10.555  -4.939  26.196  0.00  0.00    +0.119 HD
ATOM      4  H2  UNL     1      10.626  -6.427  25.579  0.00  0.00    +0.119 HD
ENDBRANCH   1   2
BRANCH   1   5
ATOM      5  C   UNL     1       8.250  -4.895  26.546  0.00  0.00    +0.322 C 
ATOM      6  OXT UNL     1       8.074  -3.707  26.754  0.00  0.00    -0.249 OA
BRANCH   5   7
ATOM      7  O   UNL     1       7.986  -5.868  27.460  0.00  0.00    -0.480 OA
ATOM      8  H   UNL     1       7.985  -6.720  26.957  0.00  0.00    +0.295 HD
ENDBRANCH   5   7
ENDBRANCH   1   5
BRANCH   1   9
ATOM      9  C   UNL     1       8.330  -4.659  24.063  0.00  0.00    +0.030 C 
BRANCH   9  10
ATOM     10  C   UNL     1       7.034  -5.187  23.441  0.00  0.00    +0.002 C 
BRANCH  10  12
ATOM     11  C   UNL     1       6.255  -5.637  21.089  0.00  0.00    +0.004 C 
ATOM     12  C   UNL     1       7.306  -5.950  22.144  0.00  0.00    -0.003 C 
ENDBRANCH  10  12
ENDBRANCH   9  10
ENDBRANCH   1   9
TORSDOF 6
ENDMDL
MODEL 2
REMARK VINA RESULT:      -4.0      1.873      2.117
REMARK  Name = 
REMARK  7 active torsions:
REMARK  status: ('A' for Active; 'I' for Inactive)
REMARK    1  A    between atoms: C_1  and  C_2
REMARK    2  A    between atoms: C_2  and  C_3
REMARK    3  A    between atoms: C_3  and  C_4
REMARK    4  A    between atoms: C_4  and  CA_5
REMARK    5  A    between atoms: CA_5  and  N_7
REMARK    6  A    between atoms: CA_5  and  C_8
REMARK    7  A    between atoms: C_8  and  O_9
REMARK                            x       y       z     vdW  Elec       q    Type
REMARK                         _______ _______ _______ _____ _____    ______ ____
ROOT
ATOM      1  CA  UNL     1       8.370  -4.499  26.343  0.00  0.00    +0.161 C 
ENDROOT
BRANCH   1   2
ATOM      2  N   UNL     1       8.071  -5.684  27.199  0.00  0.00    -0.318 NA
ATOM      3  H1  UNL     1       7.333  -6.224  26.732  0.00  0.00    +0.119 HD
ATOM      4  H2  UNL     1       8.881  -6.308  27.175  0.00  0.00    +0.119 HD
ENDBRANCH   1   2
BRANCH   1   5
ATOM      5  C   UNL     1       9.513  -4.882  25.388  0.00  0.00    +0.322 C 
ATOM      6  OXT UNL     1      10.002  -4.148  24.547  0.00  0.00    -0.249 OA
BRANCH   5   7
ATOM      7  O   UNL     1       9.898  -6.171  25.581  0.00  0.00    -0.480 OA
ATOM      8  H   UNL     1      10.314  -6.461  24.732  0.00  0.00    +0.295 HD
ENDBRANCH   5   7
ENDBRANCH   1   5
BRANCH   1   9
ATOM      9  C   UNL     1       7.152  -4.081  25.508  0.00  0.00    +0.030 C 
BRANCH   9  10
ATOM     10  C   UNL     1       6.620  -5.197  24.604  0.00  0.00    +0.002 C 
BRANCH  10  12
ATOM     11  C   UNL     1       7.213  -5.830  22.240  0.00  0.00    +0.004 C 
ATOM     12  C   UNL     1       6.598  -4.766  23.137  0.00  0.00    -0.003 C 
ENDBRANCH  10  12
ENDBRANCH   9  10
ENDBRANCH   1   9
TORSDOF 6
ENDMDL
MODEL 3
REMARK VINA RESULT:      -3.9      3.026      4.126
REMARK  Name = 
REMARK  7 active torsions:
REMARK  status: ('A' for Active; 'I' for Inactive)
REMARK    1  A    between atoms: C_1  and  C_2
REMARK    2  A    between atoms: C_2  and  C_3
REMARK    3  A    between atoms: C_3  and  C_4
REMARK    4  A    between atoms: C_4  and  CA_5
REMARK    5  A    between atoms: CA_5  and  N_7
REMARK    6  A    between atoms: CA_5  and  C_8
REMARK    7  A    between atoms: C_8  and  O_9
REMARK                            x       y       z     vdW  Elec       q    Type
REMARK                         _______ _______ _______ _____ _____    ______ ____
ROOT
ATOM      1  CA  UNL     1       8.709  -4.505  26.575  0.00  0.00    +0.161 C 
ENDROOT
BRANCH   1   2
ATOM      2  N   UNL     1       7.971  -5.630  27.220  0.00  0.00    -0.318 NA
ATOM      3  H1  UNL     1       8.669  -6.274  27.610  0.00  0.00    +0.119 HD
ATOM      4  H2  UNL     1       7.490  -5.264  28.047  0.00  0.00    +0.119 HD
ENDBRANCH   1   2
BRANCH   1   5
ATOM      5  C   UNL     1       9.318  -5.031  25.264  0.00  0.00    +0.322 C 
ATOM      6  OXT UNL     1       8.753  -5.051  24.184  0.00  0.00    -0.249 OA
BRANCH   5   7
ATOM      7  O   UNL     1      10.576  -5.506  25.466  0.00  0.00    -0.480 OA
ATOM      8  H   UNL     1      11.018  -5.491  24.582  0.00  0.00    +0.295 HD
ENDBRANCH   5   7
ENDBRANCH   1   5
BRANCH   1   9
ATOM      9  C   UNL     1       7.778  -3.330  26.247  0.00  0.00    +0.030 C 
BRANCH   9  10
ATOM     10  C   UNL     1       8.445  -1.961  26.407  0.00  0.00    +0.002 C 
BRANCH  10  12
ATOM     11  C   UNL     1       9.715  -0.146  25.209  0.00  0.00    +0.004 C 
ATOM     12  C   UNL     1       8.792  -1.346  25.051  0.00  0.00    -0.003 C 
ENDBRANCH  10  12
ENDBRANCH   9  10
ENDBRANCH   1   9
TORSDOF 6
ENDMDL
MODEL 4
REMARK VINA RESULT:      -3.8      5.047      6.152
REMARK  Name = 
REMARK  7 active torsions:
REMARK  status: ('A' for Active; 'I' for Inactive)
REMARK    1  A    between atoms: C_1  and  C_2
REMARK    2  A    between atoms: C_2  and  C_3
REMARK    3  A    between atoms: C_3  and  C_4
REMARK    4  A    between atoms: C_4  and  CA_5
REMARK    5  A    between atoms: CA_5  and  N_7
REMARK    6  A    between atoms: CA_5  and  C_8
REMARK    7  A    between atoms: C_8  and  O_9
REMARK                            x       y       z     vdW  Elec       q    Type
REMARK                         _______ _______ _______ _____ _____    ______ ____
ROOT
ATOM      1  CA  UNL     1      10.088  -1.953  23.565  0.00  0.00    +0.161 C 
ENDROOT
BRANCH   1   2
ATOM      2  N   UNL     1       9.842  -3.292  24.175  0.00  0.00    -0.318 NA
ATOM      3  H1  UNL     1       9.075  -3.188  24.849  0.00  0.00    +0.119 HD
ATOM      4  H2  UNL     1       9.452  -3.905  23.455  0.00  0.00    +0.119 HD
ENDBRANCH   1   2
BRANCH   1   5
ATOM      5  C   UNL     1       9.190  -1.828  22.323  0.00  0.00    +0.322 C 
ATOM      6  OXT UNL     1       7.994  -2.066  22.292  0.00  0.00    -0.249 OA
BRANCH   5   7
ATOM      7  O   UNL     1       9.910  -1.442  21.236  0.00  0.00    -0.480 OA
ATOM      8  H   UNL     1      10.355  -0.596  21.491  0.00  0.00    +0.295 HD
ENDBRANCH   5   7
ENDBRANCH   1   5
BRANCH   1   9
ATOM      9  C   UNL     1       9.744  -0.815  24.536  0.00  0.00    +0.030 C 
BRANCH   9  10
ATOM     10  C   UNL     1      10.723   0.361  24.468  0.00  0.00    +0.002 C 
BRANCH  10  12
ATOM     11  C   UNL     1      10.142   1.859  22.530  0.00  0.00    +0.004 C 
ATOM     12  C   UNL     1      10.022   1.648  24.032  0.00  0.00    -0.003 C 
ENDBRANCH  10  12
ENDBRANCH   9  10
ENDBRANCH   1   9
TORSDOF 6
ENDMDL
MODEL 5
REMARK VINA RESULT:      -3.8      5.996      7.001
REMARK  Name = 
REMARK  7 active torsions:
REMARK  status: ('A' for Active; 'I' for Inactive)
REMARK    1  A    between atoms: C_1  and  C_2
REMARK    2  A    between atoms: C_2  and  C_3
REMARK    3  A    between atoms: C_3  and  C_4
REMARK    4  A    between atoms: C_4  and  CA_5
REMARK    5  A    between atoms: CA_5  and  N_7
REMARK    6  A    between atoms: CA_5  and  C_8
REMARK    7  A    between atoms: C_8  and  O_9
REMARK                            x       y       z     vdW  Elec       q    Type
REMARK                         _______ _______ _______ _____ _____    ______ ____
ROOT
ATOM      1  CA  UNL     1      10.327  -0.274  23.480  0.00  0.00    +0.161 C 
ENDROOT
BRANCH   1   2
ATOM      2  N   UNL     1       9.912  -0.355  24.910  0.00  0.00    -0.318 NA
ATOM      3  H1  UNL     1      10.702  -0.032  25.480  0.00  0.00    +0.119 HD
ATOM      4  H2  UNL     1       9.189   0.350  25.074  0.00  0.00    +0.119 HD
ENDBRANCH   1   2
BRANCH   1   5
ATOM      5  C   UNL     1      10.252  -1.690  22.884  0.00  0.00    +0.322 C 
ATOM      6  OXT UNL     1      10.258  -2.725  23.529  0.00  0.00    -0.249 OA
BRANCH   5   7
ATOM      7  O   UNL     1      10.207  -1.647  21.526  0.00  0.00    -0.480 OA
ATOM      8  H   UNL     1      11.140  -1.516  21.227  0.00  0.00    +0.295 HD
ENDBRANCH   5   7
ENDBRANCH   1   5
BRANCH   1   9
ATOM      9  C   UNL     1       9.402   0.648  22.673  0.00  0.00    +0.030 C 
BRANCH   9  10
ATOM     10  C   UNL     1      10.106   1.895  22.132  0.00  0.00    +0.002 C 
BRANCH  10  12
ATOM     11  C   UNL     1       9.360   3.317  24.072  0.00  0.00    +0.004 C 
ATOM     12  C   UNL     1      10.551   2.823  23.264  0.00  0.00    -0.003 C 
ENDBRANCH  10  12
ENDBRANCH   9  10
ENDBRANCH   1   9
TORSDOF 6
ENDMDL
MODEL 6
REMARK VINA RESULT:      -3.8      5.380      6.216
REMARK  Name = 
REMARK  7 active torsions:
REMARK  status: ('A' for Active; 'I' for Inactive)
REMARK    1  A    between atoms: C_1  and  C_2
REMARK    2  A    between atoms: C_2  and  C_3
REMARK    3  A    between atoms: C_3  and  C_4
REMARK    4  A    between atoms: C_4  and  CA_5
REMARK    5  A    between atoms: CA_5  and  N_7
REMARK    6  A    between atoms: CA_5  and  C_8
REMARK    7  A    between atoms: C_8  and  O_9
REMARK                            x       y       z     vdW  Elec       q    Type
REMARK                         _______ _______ _______ _____ _____    ______ ____
ROOT
ATOM      1  CA  UNL     1       9.495  -1.096  24.551  0.00  0.00    +0.161 C 
ENDROOT
BRANCH   1   2
ATOM      2  N   UNL     1       8.160  -0.681  24.031  0.00  0.00    -0.318 NA
ATOM      3  H1  UNL     1       8.093  -1.002  23.059  0.00  0.00    +0.119 HD
ATOM      4  H2  UNL     1       7.443  -1.227  24.518  0.00  0.00    +0.119 HD
ENDBRANCH   1   2
BRANCH   1   5
ATOM      5  C   UNL     1      10.102  -2.093  23.550  0.00  0.00    +0.322 C 
ATOM      6  OXT UNL     1      10.526  -1.809  22.443  0.00  0.00    -0.249 OA
BRANCH   5   7
ATOM      7  O   UNL     1      10.082  -3.358  24.048  0.00  0.00    -0.480 OA
ATOM      8  H   UNL     1       9.386  -3.841  23.537  0.00  0.00    +0.295 HD
ENDBRANCH   5   7
ENDBRANCH   1   5
BRANCH   1   9
ATOM      9  C   UNL     1      10.446   0.100  24.691  0.00  0.00    +0.030 C 
BRANCH   9  10
ATOM     10  C   UNL     1       9.756   1.454  24.499  0.00  0.00    +0.002 C 
BRANCH  10  12
ATOM     11  C   UNL     1       9.997   1.705  22.005  0.00  0.00    +0.004 C 
ATOM     12  C   UNL     1      10.399   2.254  23.366  0.00  0.00    -0.003 C 
ENDBRANCH  10  12
ENDBRANCH   9  10
ENDBRANCH   1   9
TORSDOF 6
ENDMDL
MODEL 7
REMARK VINA RESULT:      -3.7      5.144      6.171
REMARK  Name = 
REMARK  7 active torsions:
REMARK  status: ('A' for Active; 'I' for Inactive)
REMARK    1  A    between atoms: C_1  and  C_2
REMARK    2  A    between atoms: C_2  and  C_3
REMARK    3  A    between atoms: C_3  and  C_4
REMARK    4  A    between atoms: C_4  and  CA_5
REMARK    5  A    between atoms: CA_5  and  N_7
REMARK    6  A    between atoms: CA_5  and  C_8
REMARK    7  A    between atoms: C_8  and  O_9
REMARK                            x       y       z     vdW  Elec       q    Type
REMARK                         _______ _______ _______ _____ _____    ______ ____
ROOT
ATOM      1  CA  UNL     1       9.081  -1.381  22.497  0.00  0.00    +0.161 C 
ENDROOT
BRANCH   1   2
ATOM      2  N   UNL     1      10.180  -1.570  21.505  0.00  0.00    -0.318 NA
ATOM      3  H1  UNL     1      10.971  -0.988  21.805  0.00  0.00    +0.119 HD
ATOM      4  H2  UNL     1      10.532  -2.526  21.597  0.00  0.00    +0.119 HD
ENDBRANCH   1   2
BRANCH   1   5
ATOM      5  C   UNL     1       9.528  -2.018  23.823  0.00  0.00    +0.322 C 
ATOM      6  OXT UNL     1      10.167  -3.051  23.928  0.00  0.00    -0.249 OA
BRANCH   5   7
ATOM      7  O   UNL     1       9.089  -1.292  24.886  0.00  0.00    -0.480 OA
ATOM      8  H   UNL     1       9.285  -0.347  24.669  0.00  0.00    +0.295 HD
ENDBRANCH   5   7
ENDBRANCH   1   5
BRANCH   1   9
ATOM      9  C   UNL     1       8.787   0.106  22.740  0.00  0.00    +0.030 C 
BRANCH   9  10
ATOM     10  C   UNL     1       9.547   1.040  21.795  0.00  0.00    +0.002 C 
BRANCH  10  12
ATOM     11  C   UNL     1      10.630   1.742  23.958  0.00  0.00    +0.004 C 
ATOM     12  C   UNL     1      10.222   2.181  22.559  0.00  0.00    -0.003 C 
ENDBRANCH  10  12
ENDBRANCH   9  10
ENDBRANCH   1   9
TORSDOF 6
ENDMDL
MODEL 8
REMARK VINA RESULT:      -3.7      8.443      9.475
REMARK  Name = 
REMARK  7 active torsions:
REMARK  status: ('A' for Active; 'I' for Inactive)
REMARK    1  A    between atoms: C_1  and  C_2
REMARK    2  A    between atoms: C_2  and  C_3
REMARK    3  A    between atoms: C_3  and  C_4
REMARK    4  A    between atoms: C_4  and  CA_5
REMARK    5  A    between atoms: CA_5  and  N_7
REMARK    6  A    between atoms: CA_5  and  C_8
REMARK    7  A    between atoms: C_8  and  O_9
REMARK                            x       y       z     vdW  Elec       q    Type
REMARK                         _______ _______ _______ _____ _____    ______ ____
ROOT
ATOM      1  CA  UNL     1      10.542   1.967  23.712  0.00  0.00    +0.161 C 
ENDROOT
BRANCH   1   2
ATOM      2  N   UNL     1       9.700   1.469  24.838  0.00  0.00    -0.318 NA
ATOM      3  H1  UNL     1       8.774   1.243  24.455  0.00  0.00    +0.119 HD
ATOM      4  H2  UNL     1      10.068   0.561  25.135  0.00  0.00    +0.119 HD
ENDBRANCH   1   2
BRANCH   1   5
ATOM      5  C   UNL     1      10.073   1.266  22.425  0.00  0.00    +0.322 C 
ATOM      6  OXT UNL     1      10.067   0.060  22.243  0.00  0.00    -0.249 OA
BRANCH   5   7
ATOM      7  O   UNL     1       9.688   2.173  21.488  0.00  0.00    -0.480 OA
ATOM      8  H   UNL     1       8.837   2.556  21.814  0.00  0.00    +0.295 HD
ENDBRANCH   5   7
ENDBRANCH   1   5
BRANCH   1   9
ATOM      9  C   UNL     1      10.399   3.483  23.525  0.00  0.00    +0.030 C 
BRANCH   9  10
ATOM     10  C   UNL     1      11.741   4.210  23.390  0.00  0.00    +0.002 C 
BRANCH  10  12
ATOM     11  C   UNL     1      10.132   6.122  23.698  0.00  0.00    +0.004 C 
ATOM     12  C   UNL     1      11.596   5.708  23.661  0.00  0.00    -0.003 C 
ENDBRANCH  10  12
ENDBRANCH   9  10
ENDBRANCH   1   9
TORSDOF 6
ENDMDL
MODEL 9
REMARK VINA RESULT:      -3.6      5.809      6.675
REMARK  Name = 
REMARK  7 active torsions:
REMARK  status: ('A' for Active; 'I' for Inactive)
REMARK    1  A    between atoms: C_1  and  C_2
REMARK    2  A    between atoms: C_2  and  C_3
REMARK    3  A    between atoms: C_3  and  C_4
REMARK    4  A    between atoms: C_4  and  CA_5
REMARK    5  A    between atoms: CA_5  and  N_7
REMARK    6  A    between atoms: CA_5  and  C_8
REMARK    7  A    between atoms: C_8  and  O_9
REMARK                            x       y       z     vdW  Elec       q    Type
REMARK                         _______ _______ _______ _____ _____    ______ ____
ROOT
ATOM      1  CA  UNL     1       9.988   1.226  22.497  0.00  0.00    +0.161 C 
ENDROOT
BRANCH   1   2
ATOM      2  N   UNL     1      10.454   2.518  21.913  0.00  0.00    -0.318 NA
ATOM      3  H1  UNL     1      11.408   2.373  21.565  0.00  0.00    +0.119 HD
ATOM      4  H2  UNL     1       9.910   2.700  21.065  0.00  0.00    +0.119 HD
ENDBRANCH   1   2
BRANCH   1   5
ATOM      5  C   UNL     1       9.080   1.550  23.696  0.00  0.00    +0.322 C 
ATOM      6  OXT UNL     1       7.932   1.955  23.620  0.00  0.00    -0.249 OA
BRANCH   5   7
ATOM      7  O   UNL     1       9.735   1.353  24.871  0.00  0.00    -0.480 OA
ATOM      8  H   UNL     1       9.483   0.445  25.174  0.00  0.00    +0.295 HD
ENDBRANCH   5   7
ENDBRANCH   1   5
BRANCH   1   9
ATOM      9  C   UNL     1       9.185   0.402  21.481  0.00  0.00    +0.030 C 
BRANCH   9  10
ATOM     10  C   UNL     1       9.082  -1.082  21.846  0.00  0.00    +0.002 C 
BRANCH  10  12
ATOM     11  C   UNL     1       9.980  -2.396  23.798  0.00  0.00    +0.004 C 
ATOM     12  C   UNL     1      10.338  -1.568  22.572  0.00  0.00    -0.003 C 
ENDBRANCH  10  12
ENDBRANCH   9  10
ENDBRANCH   1   9
TORSDOF 6
ENDMDL
