MODEL 1
REMARK VINA RESULT:      -8.0      0.000      0.000
REMARK  Name = 
REMARK  4 active torsions:
REMARK  status: ('A' for Active; 'I' for Inactive)
REMARK    1  A    between atoms: C_2  and  N_3
REMARK    2  A    between atoms: C_8  and  C_10
REMARK    3  A    between atoms: C_22  and  S_26
REMARK    4  A    between atoms: S_26  and  C_27
REMARK                            x       y       z     vdW  Elec       q    Type
REMARK                         _______ _______ _______ _____ _____    ______ ____
ROOT
ATOM      1  C   UNL     1       8.236  -3.126  24.216  0.00  0.00    +0.079 C 
ATOM      2  C   UNL     1       7.424  -1.914  23.666  0.00  0.00    +0.048 C 
ATOM      3  C   UNL     1       6.460  -2.430  22.564  0.00  0.00    +0.084 C 
ATOM      4  C   UNL     1       5.680  -3.620  23.042  0.00  0.00    +0.111 A 
ATOM      5  N   UNL     1       4.591  -4.145  22.515  0.00  0.00    -0.232 NA
ATOM      6  C   UNL     1       4.260  -5.213  23.323  0.00  0.00    +0.091 A 
ATOM      7  C   UNL     1       5.171  -5.340  24.366  0.00  0.00    +0.069 A 
ATOM      8  C   UNL     1       5.073  -6.306  25.371  0.00  0.00    +0.030 A 
ATOM      9  C   UNL     1       4.005  -7.197  25.286  0.00  0.00    +0.029 A 
ATOM     10  C   UNL     1       3.100  -7.119  24.223  0.00  0.00    +0.090 A 
ATOM     11  C   UNL     1       3.192  -6.122  23.236  0.00  0.00    +0.056 A 
ATOM     12  N   UNL     1       6.082  -4.348  24.133  0.00  0.00    -0.326 N 
ATOM     13  C   UNL     1       7.254  -4.066  24.935  0.00  0.00    +0.142 C 
ENDROOT
BRANCH   2  14
ATOM     14  C   UNL     1       8.281  -0.744  23.215  0.00  0.00    -0.004 A 
ATOM     15  C   UNL     1       8.280   0.449  23.961  0.00  0.00    +0.048 A 
ATOM     16  C   UNL     1       9.069   1.526  23.564  0.00  0.00    +0.159 A 
ATOM     17  F   UNL     1       9.060   2.650  24.293  0.00  0.00    -0.202 F 
ATOM     18  C   UNL     1       9.861   1.435  22.427  0.00  0.00    +0.161 A 
ATOM     19  F   UNL     1      10.609   2.479  22.041  0.00  0.00    -0.202 F 
ATOM     20  C   UNL     1       9.892   0.262  21.684  0.00  0.00    +0.080 A 
ATOM     21  C   UNL     1       9.109  -0.816  22.087  0.00  0.00    +0.130 A 
ATOM     22  F   UNL     1       9.172  -1.953  21.381  0.00  0.00    -0.205 F 
ENDBRANCH   2  14
BRANCH  10  23
ATOM     23  S   UNL     1       1.782  -8.308  24.155  0.00  0.00    -0.006 S 
ATOM     24  O   UNL     1       2.182  -9.460  24.944  0.00  0.00    -0.170 OA
ATOM     25  O   UNL     1       1.399  -8.456  22.765  0.00  0.00    -0.170 OA
ATOM     26  C   UNL     1       0.456  -7.490  25.003  0.00  0.00    +0.200 C 
ENDBRANCH  10  23
BRANCH   1  27
ATOM     27  N   UNL     1       9.327  -2.782  25.139  0.00  0.00    -0.325 NA
ATOM     28  H   UNL     1       9.660  -3.626  25.606  0.00  0.00    +0.119 HD
ATOM     29  H   UNL     1      10.127  -2.403  24.633  0.00  0.00    +0.119 HD
ENDBRANCH   1  27
TORSDOF 3
ENDMDL
MODEL 2
REMARK VINA RESULT:      -7.9      6.443      9.609
REMARK  Name = 
REMARK  4 active torsions:
REMARK  status: ('A' for Active; 'I' for Inactive)
REMARK    1  A    between atoms: C_2  and  N_3
REMARK    2  A    between atoms: C_8  and  C_10
REMARK    3  A    between atoms: C_22  and  S_26
REMARK    4  A    between atoms: S_26  and  C_27
REMARK                            x       y       z     vdW  Elec       q    Type
REMARK                         _______ _______ _______ _____ _____    ______ ____
ROOT
ATOM      1  C   UNL     1       9.010  -2.274  24.318  0.00  0.00    +0.079 C 
ATOM      2  C   UNL     1       7.645  -2.282  23.565  0.00  0.00    +0.048 C 
ATOM      3  C   UNL     1       6.809  -1.068  24.053  0.00  0.00    +0.084 C 
ATOM      4  C   UNL     1       7.614   0.198  24.003  0.00  0.00    +0.111 A 
ATOM      5  N   UNL     1       7.180   1.441  24.062  0.00  0.00    -0.232 NA
ATOM      6  C   UNL     1       8.304   2.236  23.970  0.00  0.00    +0.091 A 
ATOM      7  C   UNL     1       9.449   1.455  23.853  0.00  0.00    +0.069 A 
ATOM      8  C   UNL     1      10.736   1.978  23.699  0.00  0.00    +0.030 A 
ATOM      9  C   UNL     1      10.854   3.367  23.692  0.00  0.00    +0.029 A 
ATOM     10  C   UNL     1       9.723   4.175  23.852  0.00  0.00    +0.090 A 
ATOM     11  C   UNL     1       8.432   3.635  23.974  0.00  0.00    +0.056 A 
ATOM     12  N   UNL     1       8.983   0.172  23.925  0.00  0.00    -0.326 N 
ATOM     13  C   UNL     1       9.791  -1.029  23.869  0.00  0.00    +0.142 C 
ENDROOT
BRANCH   2  14
ATOM     14  C   UNL     1       6.895  -3.600  23.648  0.00  0.00    -0.004 A 
ATOM     15  C   UNL     1       6.721  -4.378  22.488  0.00  0.00    +0.048 A 
ATOM     16  C   UNL     1       6.043  -5.593  22.553  0.00  0.00    +0.159 A 
ATOM     17  F   UNL     1       5.895  -6.322  21.438  0.00  0.00    -0.202 F 
ATOM     18  C   UNL     1       5.532  -6.049  23.761  0.00  0.00    +0.161 A 
ATOM     19  F   UNL     1       4.869  -7.213  23.816  0.00  0.00    -0.202 F 
ATOM     20  C   UNL     1       5.707  -5.308  24.923  0.00  0.00    +0.080 A 
ATOM     21  C   UNL     1       6.390  -4.097  24.857  0.00  0.00    +0.130 A 
ATOM     22  F   UNL     1       6.581  -3.408  25.989  0.00  0.00    -0.205 F 
ENDBRANCH   2  14
BRANCH  10  23
ATOM     23  S   UNL     1       9.949   5.937  23.869  0.00  0.00    -0.006 S 
ATOM     24  O   UNL     1       8.980   6.518  22.957  0.00  0.00    -0.170 OA
ATOM     25  O   UNL     1      11.367   6.196  23.712  0.00  0.00    -0.170 OA
ATOM     26  C   UNL     1       9.491   6.387  25.523  0.00  0.00    +0.200 C 
ENDBRANCH  10  23
BRANCH   1  27
ATOM     27  N   UNL     1       9.848  -3.464  24.109  0.00  0.00    -0.325 NA
ATOM     28  H   UNL     1       9.560  -4.203  24.750  0.00  0.00    +0.119 HD
ATOM     29  H   UNL     1       9.722  -3.838  23.169  0.00  0.00    +0.119 HD
ENDBRANCH   1  27
TORSDOF 3
ENDMDL
MODEL 3
REMARK VINA RESULT:      -7.9      6.320      9.463
REMARK  Name = 
REMARK  4 active torsions:
REMARK  status: ('A' for Active; 'I' for Inactive)
REMARK    1  A    between atoms: C_2  and  N_3
REMARK    2  A    between atoms: C_8  and  C_10
REMARK    3  A    between atoms: C_22  and  S_26
REMARK    4  A    between atoms: S_26  and  C_27
REMARK                            x       y       z     vdW  Elec       q    Type
REMARK                         _______ _______ _______ _____ _____    ______ ____
ROOT
ATOM      1  C   UNL     1       8.868  -2.398  24.359  0.00  0.00    +0.079 C 
ATOM      2  C   UNL     1       7.476  -2.399  23.657  0.00  0.00    +0.048 C 
ATOM      3  C   UNL     1       6.665  -1.181  24.176  0.00  0.00    +0.084 C 
ATOM      4  C   UNL     1       7.474   0.080  24.096  0.00  0.00    +0.111 A 
ATOM      5  N   UNL     1       7.049   1.326  24.171  0.00  0.00    -0.232 NA
ATOM      6  C   UNL     1       8.173   2.116  24.036  0.00  0.00    +0.091 A 
ATOM      7  C   UNL     1       9.309   1.329  23.876  0.00  0.00    +0.069 A 
ATOM      8  C   UNL     1      10.591   1.846  23.674  0.00  0.00    +0.030 A 
ATOM      9  C   UNL     1      10.716   3.234  23.662  0.00  0.00    +0.029 A 
ATOM     10  C   UNL     1       9.596   4.047  23.865  0.00  0.00    +0.090 A 
ATOM     11  C   UNL     1       8.307   3.514  24.035  0.00  0.00    +0.056 A 
ATOM     12  N   UNL     1       8.839   0.048  23.966  0.00  0.00    -0.326 N 
ATOM     13  C   UNL     1       9.639  -1.157  23.880  0.00  0.00    +0.142 C 
ENDROOT
BRANCH   2  14
ATOM     14  C   UNL     1       6.724  -3.713  23.769  0.00  0.00    -0.004 A 
ATOM     15  C   UNL     1       6.557  -4.317  25.029  0.00  0.00    +0.048 A 
ATOM     16  C   UNL     1       5.861  -5.518  25.146  0.00  0.00    +0.159 A 
ATOM     17  F   UNL     1       5.706  -6.071  26.357  0.00  0.00    -0.202 F 
ATOM     18  C   UNL     1       5.326  -6.133  24.021  0.00  0.00    +0.161 A 
ATOM     19  F   UNL     1       4.668  -7.295  24.137  0.00  0.00    -0.202 F 
ATOM     20  C   UNL     1       5.462  -5.548  22.769  0.00  0.00    +0.080 A 
ATOM     21  C   UNL     1       6.152  -4.344  22.655  0.00  0.00    +0.130 A 
ATOM     22  F   UNL     1       6.249  -3.773  21.447  0.00  0.00    -0.205 F 
ENDBRANCH   2  14
BRANCH  10  23
ATOM     23  S   UNL     1       9.831   5.808  23.873  0.00  0.00    -0.006 S 
ATOM     24  O   UNL     1       8.878   6.388  22.943  0.00  0.00    -0.170 OA
ATOM     25  O   UNL     1      11.253   6.058  23.733  0.00  0.00    -0.170 OA
ATOM     26  C   UNL     1       9.353   6.272  25.517  0.00  0.00    +0.200 C 
ENDBRANCH  10  23
BRANCH   1  27
ATOM     27  N   UNL     1       9.692  -3.592  24.118  0.00  0.00    -0.325 NA
ATOM     28  H   UNL     1       9.154  -4.278  23.588  0.00  0.00    +0.119 HD
ATOM     29  H   UNL     1      10.505  -3.365  23.546  0.00  0.00    +0.119 HD
ENDBRANCH   1  27
TORSDOF 3
ENDMDL
MODEL 4
REMARK VINA RESULT:      -7.9      1.840      2.249
REMARK  Name = 
REMARK  4 active torsions:
REMARK  status: ('A' for Active; 'I' for Inactive)
REMARK    1  A    between atoms: C_2  and  N_3
REMARK    2  A    between atoms: C_8  and  C_10
REMARK    3  A    between atoms: C_22  and  S_26
REMARK    4  A    between atoms: S_26  and  C_27
REMARK                            x       y       z     vdW  Elec       q    Type
REMARK                         _______ _______ _______ _____ _____    ______ ____
ROOT
ATOM      1  C   UNL     1       8.377  -1.558  22.209  0.00  0.00    +0.079 C 
ATOM      2  C   UNL     1       8.193  -0.741  23.523  0.00  0.00    +0.048 C 
ATOM      3  C   UNL     1       6.675  -0.668  23.846  0.00  0.00    +0.084 C 
ATOM      4  C   UNL     1       6.046  -2.030  23.789  0.00  0.00    +0.111 A 
ATOM      5  N   UNL     1       4.876  -2.406  24.267  0.00  0.00    -0.232 NA
ATOM      6  C   UNL     1       4.762  -3.748  23.967  0.00  0.00    +0.091 A 
ATOM      7  C   UNL     1       5.890  -4.197  23.288  0.00  0.00    +0.069 A 
ATOM      8  C   UNL     1       6.081  -5.522  22.889  0.00  0.00    +0.030 A 
ATOM      9  C   UNL     1       5.056  -6.421  23.177  0.00  0.00    +0.029 A 
ATOM     10  C   UNL     1       3.892  -5.986  23.819  0.00  0.00    +0.090 A 
ATOM     11  C   UNL     1       3.727  -4.657  24.244  0.00  0.00    +0.056 A 
ATOM     12  N   UNL     1       6.660  -3.076  23.150  0.00  0.00    -0.326 N 
ATOM     13  C   UNL     1       7.947  -3.007  22.488  0.00  0.00    +0.142 C 
ENDROOT
BRANCH   2  14
ATOM     14  C   UNL     1       8.870   0.619  23.511  0.00  0.00    -0.004 A 
ATOM     15  C   UNL     1       8.183   1.736  23.001  0.00  0.00    +0.048 A 
ATOM     16  C   UNL     1       8.789   2.990  22.993  0.00  0.00    +0.159 A 
ATOM     17  F   UNL     1       8.114   4.042  22.510  0.00  0.00    -0.202 F 
ATOM     18  C   UNL     1      10.077   3.150  23.486  0.00  0.00    +0.161 A 
ATOM     19  F   UNL     1      10.662   4.357  23.465  0.00  0.00    -0.202 F 
ATOM     20  C   UNL     1      10.769   2.066  24.012  0.00  0.00    +0.080 A 
ATOM     21  C   UNL     1      10.159   0.815  24.025  0.00  0.00    +0.130 A 
ATOM     22  F   UNL     1      10.823  -0.215  24.564  0.00  0.00    -0.205 F 
ENDBRANCH   2  14
BRANCH  10  23
ATOM     23  S   UNL     1       2.610  -7.177  24.125  0.00  0.00    -0.006 S 
ATOM     24  O   UNL     1       3.215  -8.325  24.776  0.00  0.00    -0.170 OA
ATOM     25  O   UNL     1       1.856  -7.330  22.896  0.00  0.00    -0.170 OA
ATOM     26  C   UNL     1       1.570  -6.356  25.305  0.00  0.00    +0.200 C 
ENDBRANCH  10  23
BRANCH   1  27
ATOM     27  N   UNL     1       9.742  -1.564  21.661  0.00  0.00    -0.325 NA
ATOM     28  H   UNL     1       9.859  -0.774  21.027  0.00  0.00    +0.119 HD
ATOM     29  H   UNL     1      10.433  -1.440  22.401  0.00  0.00    +0.119 HD
ENDBRANCH   1  27
TORSDOF 3
ENDMDL
MODEL 5
REMARK VINA RESULT:      -7.6      2.876      4.570
REMARK  Name = 
REMARK  4 active torsions:
REMARK  status: ('A' for Active; 'I' for Inactive)
REMARK    1  A    between atoms: C_2  and  N_3
REMARK    2  A    between atoms: C_8  and  C_10
REMARK    3  A    between atoms: C_22  and  S_26
REMARK    4  A    between atoms: S_26  and  C_27
REMARK                            x       y       z     vdW  Elec       q    Type
REMARK                         _______ _______ _______ _____ _____    ______ ____
ROOT
ATOM      1  C   UNL     1       8.278   1.133  22.473  0.00  0.00    +0.079 C 
ATOM      2  C   UNL     1       9.192   1.405  23.706  0.00  0.00    +0.048 C 
ATOM      3  C   UNL     1       8.408   1.024  24.991  0.00  0.00    +0.084 C 
ATOM      4  C   UNL     1       7.805  -0.345  24.871  0.00  0.00    +0.111 A 
ATOM      5  N   UNL     1       7.326  -1.111  25.831  0.00  0.00    -0.232 NA
ATOM      6  C   UNL     1       6.897  -2.267  25.211  0.00  0.00    +0.091 A 
ATOM      7  C   UNL     1       7.121  -2.200  23.840  0.00  0.00    +0.069 A 
ATOM      8  C   UNL     1       6.828  -3.239  22.953  0.00  0.00    +0.030 A 
ATOM      9  C   UNL     1       6.256  -4.388  23.496  0.00  0.00    +0.029 A 
ATOM     10  C   UNL     1       5.980  -4.463  24.865  0.00  0.00    +0.090 A 
ATOM     11  C   UNL     1       6.309  -3.423  25.750  0.00  0.00    +0.056 A 
ATOM     12  N   UNL     1       7.652  -0.955  23.651  0.00  0.00    -0.326 N 
ATOM     13  C   UNL     1       8.047  -0.384  22.380  0.00  0.00    +0.142 C 
ENDROOT
BRANCH   2  14
ATOM     14  C   UNL     1       9.776   2.806  23.751  0.00  0.00    -0.004 A 
ATOM     15  C   UNL     1      11.140   3.003  23.468  0.00  0.00    +0.048 A 
ATOM     16  C   UNL     1      11.686   4.284  23.497  0.00  0.00    +0.159 A 
ATOM     17  F   UNL     1      12.985   4.450  23.216  0.00  0.00    -0.202 F 
ATOM     18  C   UNL     1      10.890   5.380  23.807  0.00  0.00    +0.161 A 
ATOM     19  F   UNL     1      11.422   6.609  23.846  0.00  0.00    -0.202 F 
ATOM     20  C   UNL     1       9.537   5.213  24.073  0.00  0.00    +0.080 A 
ATOM     21  C   UNL     1       8.993   3.932  24.037  0.00  0.00    +0.130 A 
ATOM     22  F   UNL     1       7.680   3.789  24.262  0.00  0.00    -0.205 F 
ENDBRANCH   2  14
BRANCH  10  23
ATOM     23  S   UNL     1       5.217  -5.943  25.485  0.00  0.00    -0.006 S 
ATOM     24  O   UNL     1       6.004  -6.409  26.614  0.00  0.00    -0.170 OA
ATOM     25  O   UNL     1       4.958  -6.808  24.351  0.00  0.00    -0.170 OA
ATOM     26  C   UNL     1       3.656  -5.366  26.100  0.00  0.00    +0.200 C 
ENDBRANCH  10  23
BRANCH   1  27
ATOM     27  N   UNL     1       8.801   1.614  21.186  0.00  0.00    -0.325 NA
ATOM     28  H   UNL     1       9.786   1.362  21.102  0.00  0.00    +0.119 HD
ATOM     29  H   UNL     1       8.325   1.163  20.406  0.00  0.00    +0.119 HD
ENDBRANCH   1  27
TORSDOF 3
ENDMDL
MODEL 6
REMARK VINA RESULT:      -7.4      2.391      3.464
REMARK  Name = 
REMARK  4 active torsions:
REMARK  status: ('A' for Active; 'I' for Inactive)
REMARK    1  A    between atoms: C_2  and  N_3
REMARK    2  A    between atoms: C_8  and  C_10
REMARK    3  A    between atoms: C_22  and  S_26
REMARK    4  A    between atoms: S_26  and  C_27
REMARK                            x       y       z     vdW  Elec       q    Type
REMARK                         _______ _______ _______ _____ _____    ______ ____
ROOT
ATOM      1  C   UNL     1       8.551  -0.258  22.393  0.00  0.00    +0.079 C 
ATOM      2  C   UNL     1       8.774   0.449  23.765  0.00  0.00    +0.048 C 
ATOM      3  C   UNL     1       7.479   0.301  24.609  0.00  0.00    +0.084 C 
ATOM      4  C   UNL     1       7.014  -1.126  24.639  0.00  0.00    +0.111 A 
ATOM      5  N   UNL     1       6.144  -1.681  25.459  0.00  0.00    -0.232 NA
ATOM      6  C   UNL     1       6.065  -3.007  25.082  0.00  0.00    +0.091 A 
ATOM      7  C   UNL     1       6.908  -3.262  24.006  0.00  0.00    +0.069 A 
ATOM      8  C   UNL     1       7.075  -4.524  23.431  0.00  0.00    +0.030 A 
ATOM      9  C   UNL     1       6.322  -5.566  23.969  0.00  0.00    +0.029 A 
ATOM     10  C   UNL     1       5.434  -5.327  25.022  0.00  0.00    +0.090 A 
ATOM     11  C   UNL     1       5.300  -4.058  25.612  0.00  0.00    +0.056 A 
ATOM     12  N   UNL     1       7.457  -2.043  23.720  0.00  0.00    -0.326 N 
ATOM     13  C   UNL     1       8.401  -1.766  22.657  0.00  0.00    +0.142 C 
ENDROOT
BRANCH   2  14
ATOM     14  C   UNL     1       9.258   1.884  23.654  0.00  0.00    -0.004 A 
ATOM     15  C   UNL     1       8.336   2.912  23.389  0.00  0.00    +0.048 A 
ATOM     16  C   UNL     1       8.766   4.234  23.294  0.00  0.00    +0.159 A 
ATOM     17  F   UNL     1       7.870   5.200  23.049  0.00  0.00    -0.202 F 
ATOM     18  C   UNL     1      10.108   4.550  23.458  0.00  0.00    +0.161 A 
ATOM     19  F   UNL     1      10.520   5.821  23.353  0.00  0.00    -0.202 F 
ATOM     20  C   UNL     1      11.036   3.554  23.738  0.00  0.00    +0.080 A 
ATOM     21  C   UNL     1      10.603   2.235  23.839  0.00  0.00    +0.130 A 
ATOM     22  F   UNL     1      11.500   1.288  24.142  0.00  0.00    -0.205 F 
ENDBRANCH   2  14
BRANCH  10  23
ATOM     23  S   UNL     1       4.479  -6.692  25.638  0.00  0.00    -0.006 S 
ATOM     24  O   UNL     1       5.114  -7.166  26.855  0.00  0.00    -0.170 OA
ATOM     25  O   UNL     1       4.237  -7.591  24.526  0.00  0.00    -0.170 OA
ATOM     26  C   UNL     1       2.934  -5.939  26.077  0.00  0.00    +0.200 C 
ENDBRANCH  10  23
BRANCH   1  27
ATOM     27  N   UNL     1       9.616  -0.052  21.401  0.00  0.00    -0.325 NA
ATOM     28  H   UNL     1      10.152  -0.913  21.291  0.00  0.00    +0.119 HD
ATOM     29  H   UNL     1       9.224   0.158  20.484  0.00  0.00    +0.119 HD
ENDBRANCH   1  27
TORSDOF 3
ENDMDL
MODEL 7
REMARK VINA RESULT:      -7.3      1.398      1.865
REMARK  Name = 
REMARK  4 active torsions:
REMARK  status: ('A' for Active; 'I' for Inactive)
REMARK    1  A    between atoms: C_2  and  N_3
REMARK    2  A    between atoms: C_8  and  C_10
REMARK    3  A    between atoms: C_22  and  S_26
REMARK    4  A    between atoms: S_26  and  C_27
REMARK                            x       y       z     vdW  Elec       q    Type
REMARK                         _______ _______ _______ _____ _____    ______ ____
ROOT
ATOM      1  C   UNL     1       8.594  -3.062  23.846  0.00  0.00    +0.079 C 
ATOM      2  C   UNL     1       7.940  -1.715  24.282  0.00  0.00    +0.048 C 
ATOM      3  C   UNL     1       6.480  -1.686  23.754  0.00  0.00    +0.084 C 
ATOM      4  C   UNL     1       5.752  -2.950  24.107  0.00  0.00    +0.111 A 
ATOM      5  N   UNL     1       4.453  -3.175  24.085  0.00  0.00    -0.232 NA
ATOM      6  C   UNL     1       4.290  -4.481  24.501  0.00  0.00    +0.091 A 
ATOM      7  C   UNL     1       5.522  -5.063  24.781  0.00  0.00    +0.069 A 
ATOM      8  C   UNL     1       5.674  -6.366  25.262  0.00  0.00    +0.030 A 
ATOM      9  C   UNL     1       4.510  -7.112  25.439  0.00  0.00    +0.029 A 
ATOM     10  C   UNL     1       3.263  -6.565  25.122  0.00  0.00    +0.090 A 
ATOM     11  C   UNL     1       3.122  -5.242  24.669  0.00  0.00    +0.056 A 
ATOM     12  N   UNL     1       6.427  -4.085  24.477  0.00  0.00    -0.326 N 
ATOM     13  C   UNL     1       7.867  -4.201  24.581  0.00  0.00    +0.142 C 
ENDROOT
BRANCH   2  14
ATOM     14  C   UNL     1       8.741  -0.483  23.903  0.00  0.00    -0.004 A 
ATOM     15  C   UNL     1       8.598   0.074  22.619  0.00  0.00    +0.048 A 
ATOM     16  C   UNL     1       9.320   1.210  22.261  0.00  0.00    +0.159 A 
ATOM     17  F   UNL     1       9.162   1.730  21.036  0.00  0.00    -0.202 F 
ATOM     18  C   UNL     1      10.190   1.804  23.166  0.00  0.00    +0.161 A 
ATOM     19  F   UNL     1      10.893   2.890  22.814  0.00  0.00    -0.202 F 
ATOM     20  C   UNL     1      10.335   1.283  24.446  0.00  0.00    +0.080 A 
ATOM     21  C   UNL     1       9.607   0.152  24.803  0.00  0.00    +0.130 A 
ATOM     22  F   UNL     1       9.731  -0.322  26.050  0.00  0.00    -0.205 F 
ENDBRANCH   2  14
BRANCH  10  23
ATOM     23  S   UNL     1       1.823  -7.582  25.338  0.00  0.00    -0.006 S 
ATOM     24  O   UNL     1       1.313  -7.353  26.678  0.00  0.00    -0.170 OA
ATOM     25  O   UNL     1       2.163  -8.919  24.890  0.00  0.00    -0.170 OA
ATOM     26  C   UNL     1       0.666  -6.896  24.181  0.00  0.00    +0.200 C 
ENDBRANCH  10  23
BRANCH   1  27
ATOM     27  N   UNL     1      10.036  -3.171  24.108  0.00  0.00    -0.325 NA
ATOM     28  H   UNL     1      10.540  -2.493  23.536  0.00  0.00    +0.119 HD
ATOM     29  H   UNL     1      10.250  -2.940  25.077  0.00  0.00    +0.119 HD
ENDBRANCH   1  27
TORSDOF 3
ENDMDL
MODEL 8
REMARK VINA RESULT:      -7.1      1.823      2.243
REMARK  Name = 
REMARK  4 active torsions:
REMARK  status: ('A' for Active; 'I' for Inactive)
REMARK    1  A    between atoms: C_2  and  N_3
REMARK    2  A    between atoms: C_8  and  C_10
REMARK    3  A    between atoms: C_22  and  S_26
REMARK    4  A    between atoms: S_26  and  C_27
REMARK                            x       y       z     vdW  Elec       q    Type
REMARK                         _______ _______ _______ _____ _____    ______ ____
ROOT
ATOM      1  C   UNL     1       8.470  -0.953  25.504  0.00  0.00    +0.079 C 
ATOM      2  C   UNL     1       7.811   0.092  24.553  0.00  0.00    +0.048 C 
ATOM      3  C   UNL     1       7.325  -0.646  23.276  0.00  0.00    +0.084 C 
ATOM      4  C   UNL     1       6.516  -1.860  23.629  0.00  0.00    +0.111 A 
ATOM      5  N   UNL     1       5.716  -2.560  22.850  0.00  0.00    -0.232 NA
ATOM      6  C   UNL     1       5.206  -3.568  23.643  0.00  0.00    +0.091 A 
ATOM      7  C   UNL     1       5.710  -3.478  24.936  0.00  0.00    +0.069 A 
ATOM      8  C   UNL     1       5.343  -4.336  25.975  0.00  0.00    +0.030 A 
ATOM      9  C   UNL     1       4.437  -5.349  25.666  0.00  0.00    +0.029 A 
ATOM     10  C   UNL     1       3.949  -5.489  24.363  0.00  0.00    +0.090 A 
ATOM     11  C   UNL     1       4.302  -4.598  23.334  0.00  0.00    +0.056 A 
ATOM     12  N   UNL     1       6.571  -2.417  24.882  0.00  0.00    -0.326 N 
ATOM     13  C   UNL     1       7.373  -1.918  25.980  0.00  0.00    +0.142 C 
ENDROOT
BRANCH   2  14
ATOM     14  C   UNL     1       8.683   1.299  24.253  0.00  0.00    -0.004 A 
ATOM     15  C   UNL     1       8.274   2.577  24.675  0.00  0.00    +0.048 A 
ATOM     16  C   UNL     1       9.069   3.691  24.415  0.00  0.00    +0.159 A 
ATOM     17  F   UNL     1       8.665   4.898  24.833  0.00  0.00    -0.202 F 
ATOM     18  C   UNL     1      10.272   3.552  23.735  0.00  0.00    +0.161 A 
ATOM     19  F   UNL     1      11.028   4.628  23.476  0.00  0.00    -0.202 F 
ATOM     20  C   UNL     1      10.707   2.298  23.324  0.00  0.00    +0.080 A 
ATOM     21  C   UNL     1       9.913   1.185  23.592  0.00  0.00    +0.130 A 
ATOM     22  F   UNL     1      10.358  -0.022  23.219  0.00  0.00    -0.205 F 
ENDBRANCH   2  14
BRANCH  10  23
ATOM     23  S   UNL     1       2.825  -6.823  24.028  0.00  0.00    -0.006 S 
ATOM     24  O   UNL     1       3.446  -8.053  24.486  0.00  0.00    -0.170 OA
ATOM     25  O   UNL     1       2.377  -6.681  22.656  0.00  0.00    -0.170 OA
ATOM     26  C   UNL     1       1.450  -6.468  25.092  0.00  0.00    +0.200 C 
ENDBRANCH  10  23
BRANCH   1  27
ATOM     27  N   UNL     1       9.151  -0.389  26.679  0.00  0.00    -0.325 NA
ATOM     28  H   UNL     1       8.830   0.567  26.833  0.00  0.00    +0.119 HD
ATOM     29  H   UNL     1       8.912  -0.908  27.523  0.00  0.00    +0.119 HD
ENDBRANCH   1  27
TORSDOF 3
ENDMDL
MODEL 9
REMARK VINA RESULT:      -7.1      2.803      4.445
REMARK  Name = 
REMARK  4 active torsions:
REMARK  status: ('A' for Active; 'I' for Inactive)
REMARK    1  A    between atoms: C_2  and  N_3
REMARK    2  A    between atoms: C_8  and  C_10
REMARK    3  A    between atoms: C_22  and  S_26
REMARK    4  A    between atoms: S_26  and  C_27
REMARK                            x       y       z     vdW  Elec       q    Type
REMARK                         _______ _______ _______ _____ _____    ______ ____
ROOT
ATOM      1  C   UNL     1      10.364   0.420  24.060  0.00  0.00    +0.079 C 
ATOM      2  C   UNL     1       9.246   1.501  24.169  0.00  0.00    +0.048 C 
ATOM      3  C   UNL     1       8.149   1.179  23.118  0.00  0.00    +0.084 C 
ATOM      4  C   UNL     1       7.726  -0.259  23.202  0.00  0.00    +0.111 A 
ATOM      5  N   UNL     1       6.651  -0.822  22.688  0.00  0.00    -0.232 NA
ATOM      6  C   UNL     1       6.714  -2.153  23.048  0.00  0.00    +0.091 A 
ATOM      7  C   UNL     1       7.858  -2.403  23.798  0.00  0.00    +0.069 A 
ATOM      8  C   UNL     1       8.175  -3.651  24.341  0.00  0.00    +0.030 A 
ATOM      9  C   UNL     1       7.289  -4.695  24.078  0.00  0.00    +0.029 A 
ATOM     10  C   UNL     1       6.155  -4.479  23.289  0.00  0.00    +0.090 A 
ATOM     11  C   UNL     1       5.832  -3.211  22.776  0.00  0.00    +0.056 A 
ATOM     12  N   UNL     1       8.500  -1.196  23.837  0.00  0.00    -0.326 N 
ATOM     13  C   UNL     1       9.764  -0.928  24.491  0.00  0.00    +0.142 C 
ENDROOT
BRANCH   2  14
ATOM     14  C   UNL     1       9.753   2.930  24.090  0.00  0.00    -0.004 A 
ATOM     15  C   UNL     1      10.972   3.204  23.443  0.00  0.00    +0.048 A 
ATOM     16  C   UNL     1      11.443   4.512  23.356  0.00  0.00    +0.159 A 
ATOM     17  F   UNL     1      12.602   4.751  22.728  0.00  0.00    -0.202 F 
ATOM     18  C   UNL     1      10.716   5.559  23.908  0.00  0.00    +0.161 A 
ATOM     19  F   UNL     1      11.179   6.814  23.833  0.00  0.00    -0.202 F 
ATOM     20  C   UNL     1       9.501   5.316  24.536  0.00  0.00    +0.080 A 
ATOM     21  C   UNL     1       9.029   4.009  24.616  0.00  0.00    +0.130 A 
ATOM     22  F   UNL     1       7.841   3.792  25.195  0.00  0.00    -0.205 F 
ENDBRANCH   2  14
BRANCH  10  23
ATOM     23  S   UNL     1       5.086  -5.861  22.964  0.00  0.00    -0.006 S 
ATOM     24  O   UNL     1       5.789  -6.766  22.072  0.00  0.00    -0.170 OA
ATOM     25  O   UNL     1       3.784  -5.331  22.610  0.00  0.00    -0.170 OA
ATOM     26  C   UNL     1       4.945  -6.645  24.549  0.00  0.00    +0.200 C 
ENDBRANCH  10  23
BRANCH   1  27
ATOM     27  N   UNL     1      11.570   0.682  24.860  0.00  0.00    -0.325 NA
ATOM     28  H   UNL     1      11.696   1.688  24.967  0.00  0.00    +0.119 HD
ATOM     29  H   UNL     1      11.471   0.306  25.802  0.00  0.00    +0.119 HD
ENDBRANCH   1  27
TORSDOF 3
ENDMDL
