MODEL 1
REMARK VINA RESULT:      -5.8      0.000      0.000
REMARK  Name = 
REMARK  20 active torsions:
REMARK  status: ('A' for Active; 'I' for Inactive)
REMARK    1  A    between atoms: C_1  and  C_2
REMARK    2  A    between atoms: C_2  and  C_3
REMARK    3  A    between atoms: C_3  and  C_4
REMARK    4  A    between atoms: C_4  and  O_6
REMARK    5  A    between atoms: O_6  and  C_7
REMARK    6  A    between atoms: C_7  and  C_9
REMARK    7  A    between atoms: C_7  and  C_15
REMARK    8  A    between atoms: C_9  and  O_10
REMARK    9  A    between atoms: O_10  and  C_11
REMARK   10  A    between atoms: C_11  and  C_13
REMARK   11  A    between atoms: C_13  and  C_14
REMARK   12  A    between atoms: C_15  and  O_16
REMARK   13  A    between atoms: O_16  and  P_17
REMARK   14  A    between atoms: P_17  and  O_18
REMARK   15  A    between atoms: P_17  and  O_20
REMARK   16  A    between atoms: O_20  and  C_21
REMARK   17  A    between atoms: C_21  and  C_22
REMARK   18  A    between atoms: C_22  and  N_24
REMARK   19  A    between atoms: C_22  and  C_25
REMARK   20  A    between atoms: C_25  and  O_26
REMARK                            x       y       z     vdW  Elec       q    Type
REMARK                         _______ _______ _______ _____ _____    ______ ____
ROOT
ATOM      1  O   UNK     1       9.723  -3.905  24.410  0.00  0.00    -0.283 OA
ENDROOT
BRANCH   1   2
ATOM      2  P   UNK     1       8.708  -4.902  25.393  0.00  0.00    +0.475 P 
ATOM      3  O   UNK     1       8.826  -3.878  26.524  0.00  0.00    -0.227 OA
BRANCH   2   4
ATOM      4  O   UNK     1       9.962  -5.912  25.671  0.00  0.00    -0.302 OA
ATOM      5  H   UNK     1      10.468  -5.939  24.829  0.00  0.00    +0.222 HD
ENDBRANCH   2   4
BRANCH   2   6
ATOM      6  O   UNK     1       7.692  -5.899  26.376  0.00  0.00    -0.285 OA
BRANCH   6   7
ATOM      7  C   UNK     1       6.300  -5.761  26.051  0.00  0.00    +0.202 C 
BRANCH   7   8
ATOM      8  C   UNK     1       5.464  -5.515  27.310  0.00  0.00    +0.187 C 
BRANCH   8   9
ATOM      9  N   UNK     1       6.221  -4.748  28.356  0.00  0.00    -0.317 NA
ATOM     10  H   UNK     1       5.573  -4.628  29.144  0.00  0.00    +0.119 HD
ATOM     11  H   UNK     1       6.940  -5.377  28.733  0.00  0.00    +0.119 HD
ENDBRANCH   8   9
BRANCH   8  12
ATOM     12  C   UNK     1       5.043  -6.872  27.892  0.00  0.00    +0.324 C 
ATOM     13  O   UNK     1       5.713  -7.550  28.654  0.00  0.00    -0.249 OA
BRANCH  12  14
ATOM     14  O   UNK     1       3.801  -7.234  27.475  0.00  0.00    -0.479 OA
ATOM     15  H   UNK     1       3.305  -7.509  28.285  0.00  0.00    +0.295 HD
ENDBRANCH  12  14
ENDBRANCH   8  12
ENDBRANCH   7   8
ENDBRANCH   6   7
ENDBRANCH   2   6
ENDBRANCH   1   2
BRANCH   1  16
ATOM     16  C   UNK     1       9.424  -2.524  24.528  0.00  0.00    +0.220 C 
BRANCH  16  17
ATOM     17  C   UNK     1       8.927  -1.994  23.177  0.00  0.00    +0.240 C 
BRANCH  17  18
ATOM     18  C   UNK     1      10.097  -1.451  22.346  0.00  0.00    +0.279 C 
BRANCH  18  19
ATOM     19  O   UNK     1      10.419  -0.106  22.765  0.00  0.00    -0.461 OA
BRANCH  19  20
ATOM     20  C   UNK     1       9.833   0.886  22.032  0.00  0.00    +0.307 C 
ATOM     21  O   UNK     1       9.103   0.698  21.073  0.00  0.00    -0.251 OA
BRANCH  20  22
ATOM     22  C   UNK     1      10.156   2.236  22.629  0.00  0.00    +0.117 C 
ATOM     23  C   UNK     1       9.778   2.311  24.101  0.00  0.00    +0.015 C 
ENDBRANCH  20  22
ENDBRANCH  19  20
ENDBRANCH  18  19
ENDBRANCH  17  18
BRANCH  17  24
ATOM     24  O   UNK     1       8.085  -2.928  22.459  0.00  0.00    -0.456 OA
BRANCH  24  25
ATOM     25  C   UNK     1       6.739  -2.885  22.588  0.00  0.00    +0.308 C 
ATOM     26  O   UNK     1       6.142  -2.132  23.346  0.00  0.00    -0.251 OA
BRANCH  25  27
ATOM     27  C   UNK     1       6.046  -3.806  21.602  0.00  0.00    +0.120 C 
BRANCH  27  29
ATOM     28  C   UNK     1       6.921  -6.161  22.000  0.00  0.00    +0.004 C 
ATOM     29  C   UNK     1       5.734  -5.215  22.107  0.00  0.00    +0.008 C 
ENDBRANCH  27  29
ENDBRANCH  25  27
ENDBRANCH  24  25
ENDBRANCH  17  24
ENDBRANCH  16  17
ENDBRANCH   1  16
TORSDOF 18
ENDMDL
MODEL 2
REMARK VINA RESULT:      -5.7      1.503      4.421
REMARK  Name = 
REMARK  20 active torsions:
REMARK  status: ('A' for Active; 'I' for Inactive)
REMARK    1  A    between atoms: C_1  and  C_2
REMARK    2  A    between atoms: C_2  and  C_3
REMARK    3  A    between atoms: C_3  and  C_4
REMARK    4  A    between atoms: C_4  and  O_6
REMARK    5  A    between atoms: O_6  and  C_7
REMARK    6  A    between atoms: C_7  and  C_9
REMARK    7  A    between atoms: C_7  and  C_15
REMARK    8  A    between atoms: C_9  and  O_10
REMARK    9  A    between atoms: O_10  and  C_11
REMARK   10  A    between atoms: C_11  and  C_13
REMARK   11  A    between atoms: C_13  and  C_14
REMARK   12  A    between atoms: C_15  and  O_16
REMARK   13  A    between atoms: O_16  and  P_17
REMARK   14  A    between atoms: P_17  and  O_18
REMARK   15  A    between atoms: P_17  and  O_20
REMARK   16  A    between atoms: O_20  and  C_21
REMARK   17  A    between atoms: C_21  and  C_22
REMARK   18  A    between atoms: C_22  and  N_24
REMARK   19  A    between atoms: C_22  and  C_25
REMARK   20  A    between atoms: C_25  and  O_26
REMARK                            x       y       z     vdW  Elec       q    Type
REMARK                         _______ _______ _______ _____ _____    ______ ____
ROOT
ATOM      1  O   UNK     1       9.705  -4.093  24.540  0.00  0.00    -0.283 OA
ENDROOT
BRANCH   1   2
ATOM      2  P   UNK     1       8.688  -5.053  25.556  0.00  0.00    +0.475 P 
ATOM      3  O   UNK     1       7.783  -3.837  25.770  0.00  0.00    -0.227 OA
BRANCH   2   4
ATOM      4  O   UNK     1       9.775  -4.927  26.769  0.00  0.00    -0.302 OA
ATOM      5  H   UNK     1      10.107  -4.003  26.730  0.00  0.00    +0.222 HD
ENDBRANCH   2   4
BRANCH   2   6
ATOM      6  O   UNK     1       7.671  -6.013  26.573  0.00  0.00    -0.285 OA
BRANCH   6   7
ATOM      7  C   UNK     1       6.692  -5.229  27.274  0.00  0.00    +0.202 C 
BRANCH   7   8
ATOM      8  C   UNK     1       5.319  -5.907  27.240  0.00  0.00    +0.187 C 
BRANCH   8   9
ATOM      9  N   UNK     1       5.325  -7.240  27.930  0.00  0.00    -0.317 NA
ATOM     10  H   UNK     1       5.147  -7.046  28.923  0.00  0.00    +0.119 HD
ATOM     11  H   UNK     1       4.479  -7.741  27.631  0.00  0.00    +0.119 HD
ENDBRANCH   8   9
BRANCH   8  12
ATOM     12  C   UNK     1       4.906  -6.104  25.774  0.00  0.00    +0.324 C 
ATOM     13  O   UNK     1       4.486  -7.145  25.295  0.00  0.00    -0.249 OA
BRANCH  12  14
ATOM     14  O   UNK     1       5.041  -4.958  25.055  0.00  0.00    -0.479 OA
ATOM     15  H   UNK     1       4.198  -4.847  24.549  0.00  0.00    +0.295 HD
ENDBRANCH  12  14
ENDBRANCH   8  12
ENDBRANCH   7   8
ENDBRANCH   6   7
ENDBRANCH   2   6
ENDBRANCH   1   2
BRANCH   1  16
ATOM     16  C   UNK     1       9.276  -2.744  24.443  0.00  0.00    +0.220 C 
BRANCH  16  17
ATOM     17  C   UNK     1       9.609  -2.203  23.047  0.00  0.00    +0.240 C 
BRANCH  17  18
ATOM     18  C   UNK     1       8.363  -2.206  22.153  0.00  0.00    +0.279 C 
BRANCH  18  19
ATOM     19  O   UNK     1       7.200  -2.575  22.929  0.00  0.00    -0.461 OA
BRANCH  19  20
ATOM     20  C   UNK     1       6.407  -3.534  22.366  0.00  0.00    +0.307 C 
ATOM     21  O   UNK     1       5.207  -3.419  22.180  0.00  0.00    -0.251 OA
BRANCH  20  22
ATOM     22  C   UNK     1       7.245  -4.716  21.937  0.00  0.00    +0.117 C 
ATOM     23  C   UNK     1       6.470  -6.023  22.022  0.00  0.00    +0.015 C 
ENDBRANCH  20  22
ENDBRANCH  19  20
ENDBRANCH  18  19
ENDBRANCH  17  18
BRANCH  17  24
ATOM     24  O   UNK     1      10.309  -0.935  23.067  0.00  0.00    -0.456 OA
BRANCH  24  25
ATOM     25  C   UNK     1       9.640   0.220  23.284  0.00  0.00    +0.308 C 
ATOM     26  O   UNK     1       9.075   0.506  24.332  0.00  0.00    -0.251 OA
BRANCH  25  27
ATOM     27  C   UNK     1       9.760   1.173  22.110  0.00  0.00    +0.120 C 
BRANCH  27  29
ATOM     28  C   UNK     1       7.780   2.766  22.014  0.00  0.00    +0.004 C 
ATOM     29  C   UNK     1       8.452   1.543  21.409  0.00  0.00    +0.008 C 
ENDBRANCH  27  29
ENDBRANCH  25  27
ENDBRANCH  24  25
ENDBRANCH  17  24
ENDBRANCH  16  17
ENDBRANCH   1  16
TORSDOF 18
ENDMDL
MODEL 3
REMARK VINA RESULT:      -5.7      3.936      8.704
REMARK  Name = 
REMARK  20 active torsions:
REMARK  status: ('A' for Active; 'I' for Inactive)
REMARK    1  A    between atoms: C_1  and  C_2
REMARK    2  A    between atoms: C_2  and  C_3
REMARK    3  A    between atoms: C_3  and  C_4
REMARK    4  A    between atoms: C_4  and  O_6
REMARK    5  A    between atoms: O_6  and  C_7
REMARK    6  A    between atoms: C_7  and  C_9
REMARK    7  A    between atoms: C_7  and  C_15
REMARK    8  A    between atoms: C_9  and  O_10
REMARK    9  A    between atoms: O_10  and  C_11
REMARK   10  A    between atoms: C_11  and  C_13
REMARK   11  A    between atoms: C_13  and  C_14
REMARK   12  A    between atoms: C_15  and  O_16
REMARK   13  A    between atoms: O_16  and  P_17
REMARK   14  A    between atoms: P_17  and  O_18
REMARK   15  A    between atoms: P_17  and  O_20
REMARK   16  A    between atoms: O_20  and  C_21
REMARK   17  A    between atoms: C_21  and  C_22
REMARK   18  A    between atoms: C_22  and  N_24
REMARK   19  A    between atoms: C_22  and  C_25
REMARK   20  A    between atoms: C_25  and  O_26
REMARK                            x       y       z     vdW  Elec       q    Type
REMARK                         _______ _______ _______ _____ _____    ______ ____
ROOT
ATOM      1  O   UNK     1       9.261  -0.019  22.841  0.00  0.00    -0.283 OA
ENDROOT
BRANCH   1   2
ATOM      2  P   UNK     1       9.688   1.634  23.113  0.00  0.00    +0.475 P 
ATOM      3  O   UNK     1       8.228   1.935  23.462  0.00  0.00    -0.227 OA
BRANCH   2   4
ATOM      4  O   UNK     1       9.746   1.888  21.500  0.00  0.00    -0.302 OA
ATOM      5  H   UNK     1      10.229   1.116  21.130  0.00  0.00    +0.222 HD
ENDBRANCH   2   4
BRANCH   2   6
ATOM      6  O   UNK     1      10.114   3.289  23.384  0.00  0.00    -0.285 OA
BRANCH   6   7
ATOM      7  C   UNK     1      11.535   3.499  23.392  0.00  0.00    +0.202 C 
BRANCH   7   8
ATOM      8  C   UNK     1      11.869   4.988  23.518  0.00  0.00    +0.187 C 
BRANCH   8   9
ATOM      9  N   UNK     1      10.737   5.866  23.067  0.00  0.00    -0.317 NA
ATOM     10  H   UNK     1      10.423   6.376  23.902  0.00  0.00    +0.119 HD
ATOM     11  H   UNK     1      11.140   6.603  22.476  0.00  0.00    +0.119 HD
ENDBRANCH   8   9
BRANCH   8  12
ATOM     12  C   UNK     1      13.107   5.288  22.660  0.00  0.00    +0.324 C 
ATOM     13  O   UNK     1      13.085   5.729  21.522  0.00  0.00    -0.249 OA
BRANCH  12  14
ATOM     14  O   UNK     1      14.259   5.025  23.331  0.00  0.00    -0.479 OA
ATOM     15  H   UNK     1      14.257   5.612  24.128  0.00  0.00    +0.295 HD
ENDBRANCH  12  14
ENDBRANCH   8  12
ENDBRANCH   7   8
ENDBRANCH   6   7
ENDBRANCH   2   6
ENDBRANCH   1   2
BRANCH   1  16
ATOM     16  C   UNK     1       9.760  -0.891  23.842  0.00  0.00    +0.220 C 
BRANCH  16  17
ATOM     17  C   UNK     1       8.961  -2.199  23.823  0.00  0.00    +0.240 C 
BRANCH  17  18
ATOM     18  C   UNK     1       8.217  -2.360  22.491  0.00  0.00    +0.279 C 
BRANCH  18  19
ATOM     19  O   UNK     1       6.805  -2.551  22.733  0.00  0.00    -0.461 OA
BRANCH  19  20
ATOM     20  C   UNK     1       6.309  -3.763  22.344  0.00  0.00    +0.307 C 
ATOM     21  O   UNK     1       6.874  -4.530  21.583  0.00  0.00    -0.251 OA
BRANCH  20  22
ATOM     22  C   UNK     1       5.005  -4.044  23.054  0.00  0.00    +0.117 C 
ATOM     23  C   UNK     1       5.144  -5.161  24.078  0.00  0.00    +0.015 C 
ENDBRANCH  20  22
ENDBRANCH  19  20
ENDBRANCH  18  19
ENDBRANCH  17  18
BRANCH  17  24
ATOM     24  O   UNK     1       9.737  -3.362  24.202  0.00  0.00    -0.456 OA
BRANCH  24  25
ATOM     25  C   UNK     1       9.140  -4.438  24.763  0.00  0.00    +0.308 C 
ATOM     26  O   UNK     1       8.881  -5.474  24.165  0.00  0.00    -0.251 OA
BRANCH  25  27
ATOM     27  C   UNK     1       8.925  -4.254  26.253  0.00  0.00    +0.120 C 
BRANCH  27  29
ATOM     28  C   UNK     1       6.891  -5.286  27.378  0.00  0.00    +0.004 C 
ATOM     29  C   UNK     1       7.477  -4.055  26.703  0.00  0.00    +0.008 C 
ENDBRANCH  27  29
ENDBRANCH  25  27
ENDBRANCH  24  25
ENDBRANCH  17  24
ENDBRANCH  16  17
ENDBRANCH   1  16
TORSDOF 18
ENDMDL
MODEL 4
REMARK VINA RESULT:      -5.7      2.884      6.936
REMARK  Name = 
REMARK  20 active torsions:
REMARK  status: ('A' for Active; 'I' for Inactive)
REMARK    1  A    between atoms: C_1  and  C_2
REMARK    2  A    between atoms: C_2  and  C_3
REMARK    3  A    between atoms: C_3  and  C_4
REMARK    4  A    between atoms: C_4  and  O_6
REMARK    5  A    between atoms: O_6  and  C_7
REMARK    6  A    between atoms: C_7  and  C_9
REMARK    7  A    between atoms: C_7  and  C_15
REMARK    8  A    between atoms: C_9  and  O_10
REMARK    9  A    between atoms: O_10  and  C_11
REMARK   10  A    between atoms: C_11  and  C_13
REMARK   11  A    between atoms: C_13  and  C_14
REMARK   12  A    between atoms: C_15  and  O_16
REMARK   13  A    between atoms: O_16  and  P_17
REMARK   14  A    between atoms: P_17  and  O_18
REMARK   15  A    between atoms: P_17  and  O_20
REMARK   16  A    between atoms: O_20  and  C_21
REMARK   17  A    between atoms: C_21  and  C_22
REMARK   18  A    between atoms: C_22  and  N_24
REMARK   19  A    between atoms: C_22  and  C_25
REMARK   20  A    between atoms: C_25  and  O_26
REMARK                            x       y       z     vdW  Elec       q    Type
REMARK                         _______ _______ _______ _____ _____    ______ ____
ROOT
ATOM      1  O   UNK     1       7.335  -1.516  25.640  0.00  0.00    -0.283 OA
ENDROOT
BRANCH   1   2
ATOM      2  P   UNK     1       7.930  -0.003  25.048  0.00  0.00    +0.475 P 
ATOM      3  O   UNK     1       6.950  -0.096  23.877  0.00  0.00    -0.227 OA
BRANCH   2   4
ATOM      4  O   UNK     1       9.267  -0.749  24.476  0.00  0.00    -0.302 OA
ATOM      5  H   UNK     1       9.046  -1.014  23.556  0.00  0.00    +0.222 HD
ENDBRANCH   2   4
BRANCH   2   6
ATOM      6  O   UNK     1       8.525   1.509  24.456  0.00  0.00    -0.285 OA
BRANCH   6   7
ATOM      7  C   UNK     1       9.960   1.579  24.465  0.00  0.00    +0.202 C 
BRANCH   7   8
ATOM      8  C   UNK     1      10.488   2.172  23.155  0.00  0.00    +0.187 C 
BRANCH   8   9
ATOM      9  N   UNK     1      10.253   3.652  23.064  0.00  0.00    -0.317 NA
ATOM     10  H   UNK     1       9.233   3.777  23.047  0.00  0.00    +0.119 HD
ATOM     11  H   UNK     1      10.526   4.060  23.966  0.00  0.00    +0.119 HD
ENDBRANCH   8   9
BRANCH   8  12
ATOM     12  C   UNK     1       9.779   1.479  21.982  0.00  0.00    +0.324 C 
ATOM     13  O   UNK     1       9.945   0.318  21.646  0.00  0.00    -0.249 OA
BRANCH  12  14
ATOM     14  O   UNK     1       8.906   2.314  21.360  0.00  0.00    -0.479 OA
ATOM     15  H   UNK     1       8.286   1.737  20.848  0.00  0.00    +0.295 HD
ENDBRANCH  12  14
ENDBRANCH   8  12
ENDBRANCH   7   8
ENDBRANCH   6   7
ENDBRANCH   2   6
ENDBRANCH   1   2
BRANCH   1  16
ATOM     16  C   UNK     1       8.331  -2.283  26.296  0.00  0.00    +0.220 C 
BRANCH  16  17
ATOM     17  C   UNK     1       8.181  -3.758  25.902  0.00  0.00    +0.240 C 
BRANCH  17  18
ATOM     18  C   UNK     1       9.145  -4.114  24.763  0.00  0.00    +0.279 C 
BRANCH  18  19
ATOM     19  O   UNK     1       8.406  -4.635  23.635  0.00  0.00    -0.461 OA
BRANCH  19  20
ATOM     20  C   UNK     1       7.796  -3.693  22.857  0.00  0.00    +0.307 C 
ATOM     21  O   UNK     1       8.341  -2.688  22.431  0.00  0.00    -0.251 OA
BRANCH  20  22
ATOM     22  C   UNK     1       6.381  -4.117  22.539  0.00  0.00    +0.117 C 
ATOM     23  C   UNK     1       5.356  -3.313  23.324  0.00  0.00    +0.015 C 
ENDBRANCH  20  22
ENDBRANCH  19  20
ENDBRANCH  18  19
ENDBRANCH  17  18
BRANCH  17  24
ATOM     24  O   UNK     1       8.242  -4.669  27.025  0.00  0.00    -0.456 OA
BRANCH  24  25
ATOM     25  C   UNK     1       7.236  -5.543  27.261  0.00  0.00    +0.308 C 
ATOM     26  O   UNK     1       7.090  -6.163  28.307  0.00  0.00    -0.251 OA
BRANCH  25  27
ATOM     27  C   UNK     1       6.242  -5.586  26.116  0.00  0.00    +0.120 C 
BRANCH  27  29
ATOM     28  C   UNK     1       4.420  -7.010  25.058  0.00  0.00    +0.004 C 
ATOM     29  C   UNK     1       4.990  -6.433  26.345  0.00  0.00    +0.008 C 
ENDBRANCH  27  29
ENDBRANCH  25  27
ENDBRANCH  24  25
ENDBRANCH  17  24
ENDBRANCH  16  17
ENDBRANCH   1  16
TORSDOF 18
ENDMDL
MODEL 5
REMARK VINA RESULT:      -5.7      2.302      5.406
REMARK  Name = 
REMARK  20 active torsions:
REMARK  status: ('A' for Active; 'I' for Inactive)
REMARK    1  A    between atoms: C_1  and  C_2
REMARK    2  A    between atoms: C_2  and  C_3
REMARK    3  A    between atoms: C_3  and  C_4
REMARK    4  A    between atoms: C_4  and  O_6
REMARK    5  A    between atoms: O_6  and  C_7
REMARK    6  A    between atoms: C_7  and  C_9
REMARK    7  A    between atoms: C_7  and  C_15
REMARK    8  A    between atoms: C_9  and  O_10
REMARK    9  A    between atoms: O_10  and  C_11
REMARK   10  A    between atoms: C_11  and  C_13
REMARK   11  A    between atoms: C_13  and  C_14
REMARK   12  A    between atoms: C_15  and  O_16
REMARK   13  A    between atoms: O_16  and  P_17
REMARK   14  A    between atoms: P_17  and  O_18
REMARK   15  A    between atoms: P_17  and  O_20
REMARK   16  A    between atoms: O_20  and  C_21
REMARK   17  A    between atoms: C_21  and  C_22
REMARK   18  A    between atoms: C_22  and  N_24
REMARK   19  A    between atoms: C_22  and  C_25
REMARK   20  A    between atoms: C_25  and  O_26
REMARK                            x       y       z     vdW  Elec       q    Type
REMARK                         _______ _______ _______ _____ _____    ______ ____
ROOT
ATOM      1  O   UNK     1       7.260  -0.088  24.767  0.00  0.00    -0.283 OA
ENDROOT
BRANCH   1   2
ATOM      2  P   UNK     1       7.593  -1.496  25.714  0.00  0.00    +0.475 P 
ATOM      3  O   UNK     1       6.301  -1.253  26.499  0.00  0.00    -0.227 OA
BRANCH   2   4
ATOM      4  O   UNK     1       8.710  -0.661  26.566  0.00  0.00    -0.302 OA
ATOM      5  H   UNK     1       9.496  -0.601  25.980  0.00  0.00    +0.222 HD
ENDBRANCH   2   4
BRANCH   2   6
ATOM      6  O   UNK     1       7.927  -2.903  26.663  0.00  0.00    -0.285 OA
BRANCH   6   7
ATOM      7  C   UNK     1       6.909  -3.909  26.536  0.00  0.00    +0.202 C 
BRANCH   7   8
ATOM      8  C   UNK     1       7.528  -5.299  26.370  0.00  0.00    +0.187 C 
BRANCH   8   9
ATOM      9  N   UNK     1       7.627  -6.038  27.673  0.00  0.00    -0.317 NA
ATOM     10  H   UNK     1       8.625  -6.050  27.918  0.00  0.00    +0.119 HD
ATOM     11  H   UNK     1       7.213  -5.438  28.397  0.00  0.00    +0.119 HD
ENDBRANCH   8   9
BRANCH   8  12
ATOM     12  C   UNK     1       8.936  -5.141  25.778  0.00  0.00    +0.324 C 
ATOM     13  O   UNK     1       9.204  -5.148  24.587  0.00  0.00    -0.249 OA
BRANCH  12  14
ATOM     14  O   UNK     1       9.872  -4.964  26.747  0.00  0.00    -0.479 OA
ATOM     15  H   UNK     1       9.831  -5.767  27.323  0.00  0.00    +0.295 HD
ENDBRANCH  12  14
ENDBRANCH   8  12
ENDBRANCH   7   8
ENDBRANCH   6   7
ENDBRANCH   2   6
ENDBRANCH   1   2
BRANCH   1  16
ATOM     16  C   UNK     1       6.720  -0.394  23.491  0.00  0.00    +0.220 C 
BRANCH  16  17
ATOM     17  C   UNK     1       7.357  -1.687  22.966  0.00  0.00    +0.240 C 
BRANCH  17  18
ATOM     18  C   UNK     1       6.300  -2.581  22.306  0.00  0.00    +0.279 C 
BRANCH  18  19
ATOM     19  O   UNK     1       6.163  -3.815  23.048  0.00  0.00    -0.461 OA
BRANCH  19  20
ATOM     20  C   UNK     1       5.250  -4.696  22.545  0.00  0.00    +0.307 C 
ATOM     21  O   UNK     1       4.066  -4.710  22.839  0.00  0.00    -0.251 OA
BRANCH  20  22
ATOM     22  C   UNK     1       5.903  -5.592  21.518  0.00  0.00    +0.117 C 
ATOM     23  C   UNK     1       7.266  -6.086  21.979  0.00  0.00    +0.015 C 
ENDBRANCH  20  22
ENDBRANCH  19  20
ENDBRANCH  18  19
ENDBRANCH  17  18
BRANCH  17  24
ATOM     24  O   UNK     1       8.529  -1.466  22.145  0.00  0.00    -0.456 OA
BRANCH  24  25
ATOM     25  C   UNK     1       9.765  -1.452  22.695  0.00  0.00    +0.308 C 
ATOM     26  O   UNK     1      10.419  -2.454  22.952  0.00  0.00    -0.251 OA
BRANCH  25  27
ATOM     27  C   UNK     1      10.297  -0.040  22.858  0.00  0.00    +0.120 C 
BRANCH  27  29
ATOM     28  C   UNK     1       9.169   2.201  22.438  0.00  0.00    +0.004 C 
ATOM     29  C   UNK     1       9.828   0.977  21.818  0.00  0.00    +0.008 C 
ENDBRANCH  27  29
ENDBRANCH  25  27
ENDBRANCH  24  25
ENDBRANCH  17  24
ENDBRANCH  16  17
ENDBRANCH   1  16
TORSDOF 18
ENDMDL
MODEL 6
REMARK VINA RESULT:      -5.7      1.411      4.502
REMARK  Name = 
REMARK  20 active torsions:
REMARK  status: ('A' for Active; 'I' for Inactive)
REMARK    1  A    between atoms: C_1  and  C_2
REMARK    2  A    between atoms: C_2  and  C_3
REMARK    3  A    between atoms: C_3  and  C_4
REMARK    4  A    between atoms: C_4  and  O_6
REMARK    5  A    between atoms: O_6  and  C_7
REMARK    6  A    between atoms: C_7  and  C_9
REMARK    7  A    between atoms: C_7  and  C_15
REMARK    8  A    between atoms: C_9  and  O_10
REMARK    9  A    between atoms: O_10  and  C_11
REMARK   10  A    between atoms: C_11  and  C_13
REMARK   11  A    between atoms: C_13  and  C_14
REMARK   12  A    between atoms: C_15  and  O_16
REMARK   13  A    between atoms: O_16  and  P_17
REMARK   14  A    between atoms: P_17  and  O_18
REMARK   15  A    between atoms: P_17  and  O_20
REMARK   16  A    between atoms: O_20  and  C_21
REMARK   17  A    between atoms: C_21  and  C_22
REMARK   18  A    between atoms: C_22  and  N_24
REMARK   19  A    between atoms: C_22  and  C_25
REMARK   20  A    between atoms: C_25  and  O_26
REMARK                            x       y       z     vdW  Elec       q    Type
REMARK                         _______ _______ _______ _____ _____    ______ ____
ROOT
ATOM      1  O   UNK     1       8.959  -3.126  25.572  0.00  0.00    -0.283 OA
ENDROOT
BRANCH   1   2
ATOM      2  P   UNK     1       8.113  -4.534  26.114  0.00  0.00    +0.475 P 
ATOM      3  O   UNK     1       8.907  -5.375  25.111  0.00  0.00    -0.227 OA
BRANCH   2   4
ATOM      4  O   UNK     1       6.798  -4.077  25.260  0.00  0.00    -0.302 OA
ATOM      5  H   UNK     1       7.119  -3.928  24.343  0.00  0.00    +0.222 HD
ENDBRANCH   2   4
BRANCH   2   6
ATOM      6  O   UNK     1       7.267  -5.942  26.655  0.00  0.00    -0.285 OA
BRANCH   6   7
ATOM      7  C   UNK     1       5.860  -5.884  26.373  0.00  0.00    +0.202 C 
BRANCH   7   8
ATOM      8  C   UNK     1       5.053  -5.640  27.651  0.00  0.00    +0.187 C 
BRANCH   8   9
ATOM      9  N   UNK     1       4.920  -4.179  27.971  0.00  0.00    -0.317 NA
ATOM     10  H   UNK     1       5.341  -4.052  28.900  0.00  0.00    +0.119 HD
ATOM     11  H   UNK     1       5.561  -3.671  27.349  0.00  0.00    +0.119 HD
ENDBRANCH   8   9
BRANCH   8  12
ATOM     12  C   UNK     1       5.759  -6.345  28.819  0.00  0.00    +0.324 C 
ATOM     13  O   UNK     1       6.235  -5.786  29.794  0.00  0.00    -0.249 OA
BRANCH  12  14
ATOM     14  O   UNK     1       5.775  -7.694  28.655  0.00  0.00    -0.479 OA
ATOM     15  H   UNK     1       5.700  -7.857  27.682  0.00  0.00    +0.295 HD
ENDBRANCH  12  14
ENDBRANCH   8  12
ENDBRANCH   7   8
ENDBRANCH   6   7
ENDBRANCH   2   6
ENDBRANCH   1   2
BRANCH   1  16
ATOM     16  C   UNK     1       9.360  -3.210  24.214  0.00  0.00    +0.220 C 
BRANCH  16  17
ATOM     17  C   UNK     1       8.974  -1.916  23.487  0.00  0.00    +0.240 C 
BRANCH  17  18
ATOM     18  C   UNK     1       7.946  -2.202  22.384  0.00  0.00    +0.279 C 
BRANCH  18  19
ATOM     19  O   UNK     1       7.527  -3.584  22.445  0.00  0.00    -0.461 OA
BRANCH  19  20
ATOM     20  C   UNK     1       6.328  -3.853  21.849  0.00  0.00    +0.307 C 
ATOM     21  O   UNK     1       5.404  -3.061  21.765  0.00  0.00    -0.251 OA
BRANCH  20  22
ATOM     22  C   UNK     1       6.346  -5.237  21.245  0.00  0.00    +0.117 C 
ATOM     23  C   UNK     1       7.071  -6.237  22.134  0.00  0.00    +0.015 C 
ENDBRANCH  20  22
ENDBRANCH  19  20
ENDBRANCH  18  19
ENDBRANCH  17  18
BRANCH  17  24
ATOM     24  O   UNK     1       8.589  -0.841  24.378  0.00  0.00    -0.456 OA
BRANCH  24  25
ATOM     25  C   UNK     1       9.437   0.182  24.632  0.00  0.00    +0.308 C 
ATOM     26  O   UNK     1      10.580   0.045  25.050  0.00  0.00    -0.251 OA
BRANCH  25  27
ATOM     27  C   UNK     1       8.844   1.521  24.237  0.00  0.00    +0.120 C 
BRANCH  27  29
ATOM     28  C   UNK     1       9.904   1.497  21.925  0.00  0.00    +0.004 C 
ATOM     29  C   UNK     1       8.643   1.748  22.738  0.00  0.00    +0.008 C 
ENDBRANCH  27  29
ENDBRANCH  25  27
ENDBRANCH  24  25
ENDBRANCH  17  24
ENDBRANCH  16  17
ENDBRANCH   1  16
TORSDOF 18
ENDMDL
MODEL 7
REMARK VINA RESULT:      -5.5      2.623      7.572
REMARK  Name = 
REMARK  20 active torsions:
REMARK  status: ('A' for Active; 'I' for Inactive)
REMARK    1  A    between atoms: C_1  and  C_2
REMARK    2  A    between atoms: C_2  and  C_3
REMARK    3  A    between atoms: C_3  and  C_4
REMARK    4  A    between atoms: C_4  and  O_6
REMARK    5  A    between atoms: O_6  and  C_7
REMARK    6  A    between atoms: C_7  and  C_9
REMARK    7  A    between atoms: C_7  and  C_15
REMARK    8  A    between atoms: C_9  and  O_10
REMARK    9  A    between atoms: O_10  and  C_11
REMARK   10  A    between atoms: C_11  and  C_13
REMARK   11  A    between atoms: C_13  and  C_14
REMARK   12  A    between atoms: C_15  and  O_16
REMARK   13  A    between atoms: O_16  and  P_17
REMARK   14  A    between atoms: P_17  and  O_18
REMARK   15  A    between atoms: P_17  and  O_20
REMARK   16  A    between atoms: O_20  and  C_21
REMARK   17  A    between atoms: C_21  and  C_22
REMARK   18  A    between atoms: C_22  and  N_24
REMARK   19  A    between atoms: C_22  and  C_25
REMARK   20  A    between atoms: C_25  and  O_26
REMARK                            x       y       z     vdW  Elec       q    Type
REMARK                         _______ _______ _______ _____ _____    ______ ____
ROOT
ATOM      1  O   UNK     1       9.107  -3.059  23.473  0.00  0.00    -0.283 OA
ENDROOT
BRANCH   1   2
ATOM      2  P   UNK     1       9.828  -1.490  23.373  0.00  0.00    +0.475 P 
ATOM      3  O   UNK     1       8.438  -0.883  23.169  0.00  0.00    -0.227 OA
BRANCH   2   4
ATOM      4  O   UNK     1      10.323  -1.811  21.850  0.00  0.00    -0.302 OA
ATOM      5  H   UNK     1      11.226  -2.189  21.941  0.00  0.00    +0.222 HD
ENDBRANCH   2   4
BRANCH   2   6
ATOM      6  O   UNK     1      10.549   0.079  23.273  0.00  0.00    -0.285 OA
BRANCH   6   7
ATOM      7  C   UNK     1      10.378   0.843  24.478  0.00  0.00    +0.202 C 
BRANCH   7   8
ATOM      8  C   UNK     1       9.760   2.211  24.176  0.00  0.00    +0.187 C 
BRANCH   8   9
ATOM      9  N   UNK     1       8.348   2.101  23.680  0.00  0.00    -0.317 NA
ATOM     10  H   UNK     1       8.224   2.866  23.004  0.00  0.00    +0.119 HD
ATOM     11  H   UNK     1       8.294   1.258  23.096  0.00  0.00    +0.119 HD
ENDBRANCH   8   9
BRANCH   8  12
ATOM     12  C   UNK     1      10.613   2.910  23.106  0.00  0.00    +0.324 C 
ATOM     13  O   UNK     1      11.470   3.749  23.328  0.00  0.00    -0.249 OA
BRANCH  12  14
ATOM     14  O   UNK     1      10.318   2.462  21.858  0.00  0.00    -0.479 OA
ATOM     15  H   UNK     1      10.523   3.207  21.240  0.00  0.00    +0.295 HD
ENDBRANCH  12  14
ENDBRANCH   8  12
ENDBRANCH   7   8
ENDBRANCH   6   7
ENDBRANCH   2   6
ENDBRANCH   1   2
BRANCH   1  16
ATOM     16  C   UNK     1       9.149  -3.605  24.781  0.00  0.00    +0.220 C 
BRANCH  16  17
ATOM     17  C   UNK     1       7.890  -4.447  25.022  0.00  0.00    +0.240 C 
BRANCH  17  18
ATOM     18  C   UNK     1       8.003  -5.223  26.341  0.00  0.00    +0.279 C 
BRANCH  18  19
ATOM     19  O   UNK     1       6.830  -6.047  26.531  0.00  0.00    -0.461 OA
BRANCH  19  20
ATOM     20  C   UNK     1       6.110  -5.779  27.660  0.00  0.00    +0.307 C 
ATOM     21  O   UNK     1       6.565  -5.256  28.664  0.00  0.00    -0.251 OA
BRANCH  20  22
ATOM     22  C   UNK     1       4.660  -6.148  27.452  0.00  0.00    +0.117 C 
ATOM     23  C   UNK     1       4.063  -6.821  28.679  0.00  0.00    +0.015 C 
ENDBRANCH  20  22
ENDBRANCH  19  20
ENDBRANCH  18  19
ENDBRANCH  17  18
BRANCH  17  24
ATOM     24  O   UNK     1       6.657  -3.701  24.887  0.00  0.00    -0.456 OA
BRANCH  24  25
ATOM     25  C   UNK     1       5.899  -3.814  23.772  0.00  0.00    +0.308 C 
ATOM     26  O   UNK     1       5.653  -2.891  23.008  0.00  0.00    -0.251 OA
BRANCH  25  27
ATOM     27  C   UNK     1       5.476  -5.249  23.518  0.00  0.00    +0.120 C 
BRANCH  27  29
ATOM     28  C   UNK     1       7.153  -5.833  21.697  0.00  0.00    +0.004 C 
ATOM     29  C   UNK     1       5.685  -5.768  22.095  0.00  0.00    +0.008 C 
ENDBRANCH  27  29
ENDBRANCH  25  27
ENDBRANCH  24  25
ENDBRANCH  17  24
ENDBRANCH  16  17
ENDBRANCH   1  16
TORSDOF 18
ENDMDL
MODEL 8
REMARK VINA RESULT:      -5.5      3.258      6.375
REMARK  Name = 
REMARK  20 active torsions:
REMARK  status: ('A' for Active; 'I' for Inactive)
REMARK    1  A    between atoms: C_1  and  C_2
REMARK    2  A    between atoms: C_2  and  C_3
REMARK    3  A    between atoms: C_3  and  C_4
REMARK    4  A    between atoms: C_4  and  O_6
REMARK    5  A    between atoms: O_6  and  C_7
REMARK    6  A    between atoms: C_7  and  C_9
REMARK    7  A    between atoms: C_7  and  C_15
REMARK    8  A    between atoms: C_9  and  O_10
REMARK    9  A    between atoms: O_10  and  C_11
REMARK   10  A    between atoms: C_11  and  C_13
REMARK   11  A    between atoms: C_13  and  C_14
REMARK   12  A    between atoms: C_15  and  O_16
REMARK   13  A    between atoms: O_16  and  P_17
REMARK   14  A    between atoms: P_17  and  O_18
REMARK   15  A    between atoms: P_17  and  O_20
REMARK   16  A    between atoms: O_20  and  C_21
REMARK   17  A    between atoms: C_21  and  C_22
REMARK   18  A    between atoms: C_22  and  N_24
REMARK   19  A    between atoms: C_22  and  C_25
REMARK   20  A    between atoms: C_25  and  O_26
REMARK                            x       y       z     vdW  Elec       q    Type
REMARK                         _______ _______ _______ _____ _____    ______ ____
ROOT
ATOM      1  O   UNK     1      10.527  -0.160  23.182  0.00  0.00    -0.283 OA
ENDROOT
BRANCH   1   2
ATOM      2  P   UNK     1       9.616  -1.459  23.870  0.00  0.00    +0.475 P 
ATOM      3  O   UNK     1       9.120  -1.829  22.470  0.00  0.00    -0.227 OA
BRANCH   2   4
ATOM      4  O   UNK     1       8.493  -0.396  24.396  0.00  0.00    -0.302 OA
ATOM      5  H   UNK     1       8.092  -0.014  23.584  0.00  0.00    +0.222 HD
ENDBRANCH   2   4
BRANCH   2   6
ATOM      6  O   UNK     1       8.705  -2.758  24.558  0.00  0.00    -0.285 OA
BRANCH   6   7
ATOM      7  C   UNK     1       8.174  -3.648  23.563  0.00  0.00    +0.202 C 
BRANCH   7   8
ATOM      8  C   UNK     1       6.665  -3.835  23.742  0.00  0.00    +0.187 C 
BRANCH   8   9
ATOM      9  N   UNK     1       6.234  -5.253  23.504  0.00  0.00    -0.317 NA
ATOM     10  H   UNK     1       5.651  -5.512  24.310  0.00  0.00    +0.119 HD
ATOM     11  H   UNK     1       5.566  -5.241  22.723  0.00  0.00    +0.119 HD
ENDBRANCH   8   9
BRANCH   8  12
ATOM     12  C   UNK     1       5.935  -2.917  22.751  0.00  0.00    +0.324 C 
ATOM     13  O   UNK     1       5.266  -3.295  21.803  0.00  0.00    -0.249 OA
BRANCH  12  14
ATOM     14  O   UNK     1       6.101  -1.605  23.065  0.00  0.00    -0.479 OA
ATOM     15  H   UNK     1       5.264  -1.318  23.508  0.00  0.00    +0.295 HD
ENDBRANCH  12  14
ENDBRANCH   8  12
ENDBRANCH   7   8
ENDBRANCH   6   7
ENDBRANCH   2   6
ENDBRANCH   1   2
BRANCH   1  16
ATOM     16  C   UNK     1       9.991   0.302  21.952  0.00  0.00    +0.220 C 
BRANCH  16  17
ATOM     17  C   UNK     1       9.591   1.775  22.092  0.00  0.00    +0.240 C 
BRANCH  17  18
ATOM     18  C   UNK     1       8.173   2.005  21.551  0.00  0.00    +0.279 C 
BRANCH  18  19
ATOM     19  O   UNK     1       7.235   1.154  22.249  0.00  0.00    -0.461 OA
BRANCH  19  20
ATOM     20  C   UNK     1       6.356   1.808  23.065  0.00  0.00    +0.307 C 
ATOM     21  O   UNK     1       5.882   1.341  24.088  0.00  0.00    -0.251 OA
BRANCH  20  22
ATOM     22  C   UNK     1       6.122   3.212  22.559  0.00  0.00    +0.117 C 
ATOM     23  C   UNK     1       5.738   4.164  23.682  0.00  0.00    +0.015 C 
ENDBRANCH  20  22
ENDBRANCH  19  20
ENDBRANCH  18  19
ENDBRANCH  17  18
BRANCH  17  24
ATOM     24  O   UNK     1       9.802   2.312  23.420  0.00  0.00    -0.456 OA
BRANCH  24  25
ATOM     25  C   UNK     1      10.401   3.513  23.593  0.00  0.00    +0.308 C 
ATOM     26  O   UNK     1      11.582   3.736  23.360  0.00  0.00    -0.251 OA
BRANCH  25  27
ATOM     27  C   UNK     1       9.412   4.585  24.008  0.00  0.00    +0.120 C 
BRANCH  27  29
ATOM     28  C   UNK     1       8.850   7.056  24.224  0.00  0.00    +0.004 C 
ATOM     29  C   UNK     1       9.752   6.013  23.580  0.00  0.00    +0.008 C 
ENDBRANCH  27  29
ENDBRANCH  25  27
ENDBRANCH  24  25
ENDBRANCH  17  24
ENDBRANCH  16  17
ENDBRANCH   1  16
TORSDOF 18
ENDMDL
MODEL 9
REMARK VINA RESULT:      -5.4      3.040      6.958
REMARK  Name = 
REMARK  20 active torsions:
REMARK  status: ('A' for Active; 'I' for Inactive)
REMARK    1  A    between atoms: C_1  and  C_2
REMARK    2  A    between atoms: C_2  and  C_3
REMARK    3  A    between atoms: C_3  and  C_4
REMARK    4  A    between atoms: C_4  and  O_6
REMARK    5  A    between atoms: O_6  and  C_7
REMARK    6  A    between atoms: C_7  and  C_9
REMARK    7  A    between atoms: C_7  and  C_15
REMARK    8  A    between atoms: C_9  and  O_10
REMARK    9  A    between atoms: O_10  and  C_11
REMARK   10  A    between atoms: C_11  and  C_13
REMARK   11  A    between atoms: C_13  and  C_14
REMARK   12  A    between atoms: C_15  and  O_16
REMARK   13  A    between atoms: O_16  and  P_17
REMARK   14  A    between atoms: P_17  and  O_18
REMARK   15  A    between atoms: P_17  and  O_20
REMARK   16  A    between atoms: O_20  and  C_21
REMARK   17  A    between atoms: C_21  and  C_22
REMARK   18  A    between atoms: C_22  and  N_24
REMARK   19  A    between atoms: C_22  and  C_25
REMARK   20  A    between atoms: C_25  and  O_26
REMARK                            x       y       z     vdW  Elec       q    Type
REMARK                         _______ _______ _______ _____ _____    ______ ____
ROOT
ATOM      1  O   UNK     1      10.317  -2.630  23.502  0.00  0.00    -0.283 OA
ENDROOT
BRANCH   1   2
ATOM      2  P   UNK     1      10.040  -1.099  22.748  0.00  0.00    +0.475 P 
ATOM      3  O   UNK     1       8.766  -0.939  23.580  0.00  0.00    -0.227 OA
BRANCH   2   4
ATOM      4  O   UNK     1       9.512  -1.855  21.399  0.00  0.00    -0.302 OA
ATOM      5  H   UNK     1      10.296  -2.327  21.039  0.00  0.00    +0.222 HD
ENDBRANCH   2   4
BRANCH   2   6
ATOM      6  O   UNK     1       9.762   0.432  21.993  0.00  0.00    -0.285 OA
BRANCH   6   7
ATOM      7  C   UNK     1       9.078   1.357  22.854  0.00  0.00    +0.202 C 
BRANCH   7   8
ATOM      8  C   UNK     1       8.127   2.251  22.054  0.00  0.00    +0.187 C 
BRANCH   8   9
ATOM      9  N   UNK     1       8.326   3.709  22.355  0.00  0.00    -0.317 NA
ATOM     10  H   UNK     1       9.036   4.041  21.692  0.00  0.00    +0.119 HD
ATOM     11  H   UNK     1       7.475   4.200  22.057  0.00  0.00    +0.119 HD
ENDBRANCH   8   9
BRANCH   8  12
ATOM     12  C   UNK     1       6.682   1.862  22.398  0.00  0.00    +0.324 C 
ATOM     13  O   UNK     1       5.734   2.630  22.428  0.00  0.00    -0.249 OA
BRANCH  12  14
ATOM     14  O   UNK     1       6.566   0.531  22.649  0.00  0.00    -0.479 OA
ATOM     15  H   UNK     1       5.984   0.164  21.939  0.00  0.00    +0.295 HD
ENDBRANCH  12  14
ENDBRANCH   8  12
ENDBRANCH   7   8
ENDBRANCH   6   7
ENDBRANCH   2   6
ENDBRANCH   1   2
BRANCH   1  16
ATOM     16  C   UNK     1       9.325  -2.963  24.459  0.00  0.00    +0.220 C 
BRANCH  16  17
ATOM     17  C   UNK     1       9.398  -4.463  24.769  0.00  0.00    +0.240 C 
BRANCH  17  18
ATOM     18  C   UNK     1       9.131  -4.722  26.258  0.00  0.00    +0.279 C 
BRANCH  18  19
ATOM     19  O   UNK     1       7.929  -4.033  26.670  0.00  0.00    -0.461 OA
BRANCH  19  20
ATOM     20  C   UNK     1       7.029  -4.798  27.355  0.00  0.00    +0.307 C 
ATOM     21  O   UNK     1       7.284  -5.876  27.866  0.00  0.00    -0.251 OA
BRANCH  20  22
ATOM     22  C   UNK     1       5.704  -4.080  27.455  0.00  0.00    +0.117 C 
ATOM     23  C   UNK     1       4.527  -5.034  27.315  0.00  0.00    +0.015 C 
ENDBRANCH  20  22
ENDBRANCH  19  20
ENDBRANCH  18  19
ENDBRANCH  17  18
BRANCH  17  24
ATOM     24  O   UNK     1       8.597  -5.280  23.882  0.00  0.00    -0.456 OA
BRANCH  24  25
ATOM     25  C   UNK     1       7.508  -4.766  23.265  0.00  0.00    +0.308 C 
ATOM     26  O   UNK     1       7.546  -4.094  22.243  0.00  0.00    -0.251 OA
BRANCH  25  27
ATOM     27  C   UNK     1       6.219  -5.212  23.928  0.00  0.00    +0.120 C 
BRANCH  27  29
ATOM     28  C   UNK     1       3.805  -5.514  23.186  0.00  0.00    +0.004 C 
ATOM     29  C   UNK     1       4.941  -4.532  23.435  0.00  0.00    +0.008 C 
ENDBRANCH  27  29
ENDBRANCH  25  27
ENDBRANCH  24  25
ENDBRANCH  17  24
ENDBRANCH  16  17
ENDBRANCH   1  16
TORSDOF 18
ENDMDL
