MODEL 1
REMARK VINA RESULT:      -7.9      0.000      0.000
REMARK  Name = 
REMARK  14 active torsions:
REMARK  status: ('A' for Active; 'I' for Inactive)
REMARK    1  A    between atoms: C_1  and  C_2
REMARK    2  A    between atoms: C_4  and  S_5
REMARK    3  A    between atoms: S_5  and  C_6
REMARK    4  A    between atoms: C_7  and  O_8
REMARK    5  A    between atoms: C_10  and  C_11
REMARK    6  A    between atoms: C_10  and  C_23
REMARK    7  A    between atoms: C_11  and  C_12
REMARK    8  A    between atoms: C_12  and  C_13
REMARK    9  A    between atoms: C_16  and  O_17
REMARK   10  A    between atoms: C_28  and  C_32
REMARK   11  A    between atoms: C_30  and  N_31
REMARK   12  A    between atoms: C_32  and  C_33
REMARK   13  A    between atoms: C_32  and  C_34
REMARK   14  A    between atoms: C_32  and  C_35
REMARK                            x       y       z     vdW  Elec       q    Type
REMARK                         _______ _______ _______ _____ _____    ______ ____
ROOT
ATOM      1  C   UNL     1       8.378  -3.460  25.680  0.00  0.00    +0.134 C 
ATOM      2  C   UNL     1       7.702  -2.152  25.536  0.00  0.00    +0.350 C 
ATOM      3  O   UNL     1       6.632  -1.879  26.071  0.00  0.00    -0.244 OA
ATOM      4  O   UNL     1       8.426  -1.190  24.912  0.00  0.00    -0.453 OA
ATOM      5  C   UNL     1       9.258  -1.463  23.758  0.00  0.00    +0.124 C 
ATOM      6  C   UNL     1       9.842  -2.908  23.761  0.00  0.00    +0.123 C 
ATOM      7  C   UNL     1       9.441  -3.754  24.920  0.00  0.00    +0.118 C 
ENDROOT
BRANCH   5   8
ATOM      8  C   UNL     1       8.402  -1.213  22.450  0.00  0.00    +0.033 C 
ATOM      9  C   UNL     1       7.267  -0.165  22.631  0.00  0.00    +0.007 C 
ATOM     10  C   UNL     1       7.760   1.168  22.052  0.00  0.00    +0.000 C 
ATOM     11  C   UNL     1       9.093   0.879  21.393  0.00  0.00    +0.000 C 
ATOM     12  C   UNL     1       9.078  -0.622  21.198  0.00  0.00    +0.007 C 
ENDBRANCH   5   8
BRANCH   7  13
ATOM     13  O   UNL     1      10.198  -4.906  25.071  0.00  0.00    -0.510 OA
ATOM     14  H   UNL     1      10.837  -4.750  25.794  0.00  0.00    +0.292 HD
ENDBRANCH   7  13
BRANCH   1  15
ATOM     15  S   UNL     1       7.549  -4.721  26.509  0.00  0.00    -0.079 S 
BRANCH  15  21
ATOM     16  C   UNL     1       5.781  -6.144  21.812  0.00  0.00    +0.045 C 
ATOM     17  C   UNL     1       5.420  -5.940  23.258  0.00  0.00    -0.029 A 
ATOM     18  C   UNL     1       4.231  -6.418  23.801  0.00  0.00    +0.028 A 
ATOM     19  C   UNL     1       3.996  -6.242  25.174  0.00  0.00    +0.028 A 
ATOM     20  C   UNL     1       4.968  -5.738  26.078  0.00  0.00    -0.027 A 
ATOM     21  C   UNL     1       6.175  -5.252  25.500  0.00  0.00    +0.017 A 
ATOM     22  C   UNL     1       6.355  -5.331  24.106  0.00  0.00    +0.020 A 
BRANCH  20  23
ATOM     23  C   UNL     1       4.670  -5.782  27.612  0.00  0.00    -0.012 C 
ATOM     24  C   UNL     1       5.634  -6.728  28.373  0.00  0.00    +0.015 C 
ATOM     25  C   UNL     1       3.259  -6.340  27.956  0.00  0.00    +0.015 C 
ATOM     26  C   UNL     1       4.714  -4.364  28.225  0.00  0.00    +0.015 C 
ENDBRANCH  20  23
BRANCH  18  27
ATOM     27  N   UNL     1       3.189  -6.887  22.986  0.00  0.00    -0.358 N 
ATOM     28  H   UNL     1       3.394  -6.855  21.993  0.00  0.00    +0.142 HD
ATOM     29  H   UNL     1       2.831  -7.797  23.263  0.00  0.00    +0.142 HD
ENDBRANCH  18  27
ENDBRANCH  15  21
ENDBRANCH   1  15
BRANCH   5  30
ATOM     30  C   UNL     1      10.514  -0.544  23.910  0.00  0.00    +0.053 C 
BRANCH  30  31
ATOM     31  C   UNL     1      10.447   0.540  24.977  0.00  0.00    +0.039 C 
BRANCH  31  32
ATOM     32  C   UNL     1      10.200   1.924  24.443  0.00  0.00    -0.047 A 
ATOM     33  C   UNL     1      11.164   2.587  23.680  0.00  0.00    +0.007 A 
ATOM     34  C   UNL     1      10.956   3.914  23.299  0.00  0.00    +0.045 A 
ATOM     35  C   UNL     1       9.787   4.565  23.674  0.00  0.00    +0.117 A 
ATOM     36  C   UNL     1       8.807   3.918  24.413  0.00  0.00    +0.045 A 
ATOM     37  C   UNL     1       9.013   2.586  24.791  0.00  0.00    +0.007 A 
BRANCH  35  38
ATOM     38  O   UNL     1       9.634   5.866  23.300  0.00  0.00    -0.507 OA
ATOM     39  H   UNL     1       9.322   5.882  22.380  0.00  0.00    +0.292 HD
ENDBRANCH  35  38
ENDBRANCH  31  32
ENDBRANCH  30  31
ENDBRANCH   5  30
TORSDOF 10
ENDMDL
MODEL 2
REMARK VINA RESULT:      -7.5      1.811      3.101
REMARK  Name = 
REMARK  14 active torsions:
REMARK  status: ('A' for Active; 'I' for Inactive)
REMARK    1  A    between atoms: C_1  and  C_2
REMARK    2  A    between atoms: C_4  and  S_5
REMARK    3  A    between atoms: S_5  and  C_6
REMARK    4  A    between atoms: C_7  and  O_8
REMARK    5  A    between atoms: C_10  and  C_11
REMARK    6  A    between atoms: C_10  and  C_23
REMARK    7  A    between atoms: C_11  and  C_12
REMARK    8  A    between atoms: C_12  and  C_13
REMARK    9  A    between atoms: C_16  and  O_17
REMARK   10  A    between atoms: C_28  and  C_32
REMARK   11  A    between atoms: C_30  and  N_31
REMARK   12  A    between atoms: C_32  and  C_33
REMARK   13  A    between atoms: C_32  and  C_34
REMARK   14  A    between atoms: C_32  and  C_35
REMARK                            x       y       z     vdW  Elec       q    Type
REMARK                         _______ _______ _______ _____ _____    ______ ____
ROOT
ATOM      1  C   UNL     1       7.057  -3.959  26.663  0.00  0.00    +0.134 C 
ATOM      2  C   UNL     1       6.805  -2.637  26.049  0.00  0.00    +0.350 C 
ATOM      3  O   UNL     1       5.925  -1.870  26.427  0.00  0.00    -0.244 OA
ATOM      4  O   UNL     1       7.728  -2.232  25.143  0.00  0.00    -0.453 OA
ATOM      5  C   UNL     1       8.327  -3.135  24.180  0.00  0.00    +0.124 C 
ATOM      6  C   UNL     1       8.436  -4.597  24.708  0.00  0.00    +0.123 C 
ATOM      7  C   UNL     1       7.903  -4.819  26.082  0.00  0.00    +0.118 C 
ENDROOT
BRANCH   5   8
ATOM      8  C   UNL     1       7.472  -3.088  22.848  0.00  0.00    +0.033 C 
ATOM      9  C   UNL     1       7.104  -4.491  22.288  0.00  0.00    +0.007 C 
ATOM     10  C   UNL     1       5.659  -4.801  22.702  0.00  0.00    +0.000 C 
ATOM     11  C   UNL     1       5.124  -3.541  23.352  0.00  0.00    +0.000 C 
ATOM     12  C   UNL     1       6.065  -2.460  22.866  0.00  0.00    +0.007 C 
ENDBRANCH   5   8
BRANCH   7  13
ATOM     13  O   UNL     1       8.280  -6.027  26.649  0.00  0.00    -0.510 OA
ATOM     14  H   UNL     1       7.615  -6.258  27.329  0.00  0.00    +0.292 HD
ENDBRANCH   7  13
BRANCH   1  15
ATOM     15  S   UNL     1       5.960  -4.523  27.865  0.00  0.00    -0.079 S 
BRANCH  15  21
ATOM     16  C   UNL     1       3.370  -7.305  24.292  0.00  0.00    +0.045 C 
ATOM     17  C   UNL     1       3.248  -6.279  25.386  0.00  0.00    -0.029 A 
ATOM     18  C   UNL     1       2.018  -5.915  25.928  0.00  0.00    +0.028 A 
ATOM     19  C   UNL     1       1.994  -4.997  26.990  0.00  0.00    +0.028 A 
ATOM     20  C   UNL     1       3.161  -4.528  27.649  0.00  0.00    -0.027 A 
ATOM     21  C   UNL     1       4.407  -4.910  27.075  0.00  0.00    +0.017 A 
ATOM     22  C   UNL     1       4.418  -5.743  25.940  0.00  0.00    +0.020 A 
BRANCH  20  23
ATOM     23  C   UNL     1       3.005  -3.674  28.949  0.00  0.00    -0.012 C 
ATOM     24  C   UNL     1       3.621  -4.371  30.190  0.00  0.00    +0.015 C 
ATOM     25  C   UNL     1       1.524  -3.431  29.360  0.00  0.00    +0.015 C 
ATOM     26  C   UNL     1       3.617  -2.267  28.763  0.00  0.00    +0.015 C 
ENDBRANCH  20  23
BRANCH  18  27
ATOM     27  N   UNL     1       0.809  -6.285  25.319  0.00  0.00    -0.358 N 
ATOM     28  H   UNL     1       0.526  -5.674  24.560  0.00  0.00    +0.142 HD
ATOM     29  H   UNL     1       0.772  -7.262  25.044  0.00  0.00    +0.142 HD
ENDBRANCH  18  27
ENDBRANCH  15  21
ENDBRANCH   1  15
BRANCH   5  30
ATOM     30  C   UNL     1       9.813  -2.673  24.027  0.00  0.00    +0.053 C 
BRANCH  30  31
ATOM     31  C   UNL     1      10.171  -1.930  22.748  0.00  0.00    +0.039 C 
BRANCH  31  32
ATOM     32  C   UNL     1      10.122  -0.431  22.864  0.00  0.00    -0.047 A 
ATOM     33  C   UNL     1       9.719   0.364  21.788  0.00  0.00    +0.007 A 
ATOM     34  C   UNL     1       9.796   1.755  21.886  0.00  0.00    +0.045 A 
ATOM     35  C   UNL     1      10.265   2.340  23.057  0.00  0.00    +0.117 A 
ATOM     36  C   UNL     1      10.649   1.568  24.145  0.00  0.00    +0.045 A 
ATOM     37  C   UNL     1      10.567   0.175  24.049  0.00  0.00    +0.007 A 
BRANCH  35  38
ATOM     38  O   UNL     1      10.345   3.699  23.103  0.00  0.00    -0.507 OA
ATOM     39  H   UNL     1      10.446   3.965  24.032  0.00  0.00    +0.292 HD
ENDBRANCH  35  38
ENDBRANCH  31  32
ENDBRANCH  30  31
ENDBRANCH   5  30
TORSDOF 10
ENDMDL
MODEL 3
REMARK VINA RESULT:      -7.4      2.269      4.393
REMARK  Name = 
REMARK  14 active torsions:
REMARK  status: ('A' for Active; 'I' for Inactive)
REMARK    1  A    between atoms: C_1  and  C_2
REMARK    2  A    between atoms: C_4  and  S_5
REMARK    3  A    between atoms: S_5  and  C_6
REMARK    4  A    between atoms: C_7  and  O_8
REMARK    5  A    between atoms: C_10  and  C_11
REMARK    6  A    between atoms: C_10  and  C_23
REMARK    7  A    between atoms: C_11  and  C_12
REMARK    8  A    between atoms: C_12  and  C_13
REMARK    9  A    between atoms: C_16  and  O_17
REMARK   10  A    between atoms: C_28  and  C_32
REMARK   11  A    between atoms: C_30  and  N_31
REMARK   12  A    between atoms: C_32  and  C_33
REMARK   13  A    between atoms: C_32  and  C_34
REMARK   14  A    between atoms: C_32  and  C_35
REMARK                            x       y       z     vdW  Elec       q    Type
REMARK                         _______ _______ _______ _____ _____    ______ ____
ROOT
ATOM      1  C   UNL     1       5.225  -3.517  23.707  0.00  0.00    +0.134 C 
ATOM      2  C   UNL     1       6.117  -4.569  23.172  0.00  0.00    +0.350 C 
ATOM      3  O   UNL     1       5.755  -5.721  22.959  0.00  0.00    -0.244 OA
ATOM      4  O   UNL     1       7.334  -4.141  22.754  0.00  0.00    -0.453 OA
ATOM      5  C   UNL     1       8.099  -3.141  23.471  0.00  0.00    +0.124 C 
ATOM      6  C   UNL     1       7.199  -2.114  24.223  0.00  0.00    +0.123 C 
ATOM      7  C   UNL     1       5.732  -2.339  24.092  0.00  0.00    +0.118 C 
ENDROOT
BRANCH   5   8
ATOM      8  C   UNL     1       9.066  -3.879  24.485  0.00  0.00    +0.033 C 
ATOM      9  C   UNL     1       8.978  -3.341  25.941  0.00  0.00    +0.007 C 
ATOM     10  C   UNL     1       8.092  -4.302  26.746  0.00  0.00    +0.000 C 
ATOM     11  C   UNL     1       7.795  -5.473  25.832  0.00  0.00    +0.000 C 
ATOM     12  C   UNL     1       8.870  -5.380  24.771  0.00  0.00    +0.007 C 
ENDBRANCH   5   8
BRANCH   7  13
ATOM     13  O   UNL     1       4.955  -1.264  24.497  0.00  0.00    -0.510 OA
ATOM     14  H   UNL     1       4.840  -1.327  25.466  0.00  0.00    +0.292 HD
ENDBRANCH   7  13
BRANCH   1  15
ATOM     15  S   UNL     1       3.641  -3.967  24.209  0.00  0.00    -0.079 S 
BRANCH  15  21
ATOM     16  C   UNL     1       5.279  -4.855  29.082  0.00  0.00    +0.045 C 
ATOM     17  C   UNL     1       4.561  -5.437  27.894  0.00  0.00    -0.029 A 
ATOM     18  C   UNL     1       3.818  -6.611  27.979  0.00  0.00    +0.028 A 
ATOM     19  C   UNL     1       3.126  -7.055  26.840  0.00  0.00    +0.028 A 
ATOM     20  C   UNL     1       3.013  -6.297  25.645  0.00  0.00    -0.027 A 
ATOM     21  C   UNL     1       3.784  -5.101  25.580  0.00  0.00    +0.017 A 
ATOM     22  C   UNL     1       4.565  -4.722  26.689  0.00  0.00    +0.020 A 
BRANCH  20  23
ATOM     23  C   UNL     1       2.046  -6.794  24.521  0.00  0.00    -0.012 C 
ATOM     24  C   UNL     1       1.890  -8.337  24.519  0.00  0.00    +0.015 C 
ATOM     25  C   UNL     1       2.546  -6.472  23.083  0.00  0.00    +0.015 C 
ATOM     26  C   UNL     1       0.664  -6.113  24.640  0.00  0.00    +0.015 C 
ENDBRANCH  20  23
BRANCH  18  27
ATOM     27  N   UNL     1       3.903  -7.455  29.096  0.00  0.00    -0.358 N 
ATOM     28  H   UNL     1       3.602  -7.022  29.964  0.00  0.00    +0.142 HD
ATOM     29  H   UNL     1       3.464  -8.360  28.960  0.00  0.00    +0.142 HD
ENDBRANCH  18  27
ENDBRANCH  15  21
ENDBRANCH   1  15
BRANCH   5  30
ATOM     30  C   UNL     1       8.819  -2.287  22.376  0.00  0.00    +0.053 C 
BRANCH  30  31
ATOM     31  C   UNL     1      10.189  -1.727  22.734  0.00  0.00    +0.039 C 
BRANCH  31  32
ATOM     32  C   UNL     1      10.239  -0.228  22.844  0.00  0.00    -0.047 A 
ATOM     33  C   UNL     1      10.725   0.397  23.995  0.00  0.00    +0.007 A 
ATOM     34  C   UNL     1      10.650   1.786  24.115  0.00  0.00    +0.045 A 
ATOM     35  C   UNL     1      10.100   2.539  23.085  0.00  0.00    +0.117 A 
ATOM     36  C   UNL     1       9.631   1.940  21.924  0.00  0.00    +0.045 A 
ATOM     37  C   UNL     1       9.711   0.549  21.801  0.00  0.00    +0.007 A 
BRANCH  35  38
ATOM     38  O   UNL     1      10.025   3.889  23.252  0.00  0.00    -0.507 OA
ATOM     39  H   UNL     1      10.655   4.305  22.640  0.00  0.00    +0.292 HD
ENDBRANCH  35  38
ENDBRANCH  31  32
ENDBRANCH  30  31
ENDBRANCH   5  30
TORSDOF 10
ENDMDL
MODEL 4
REMARK VINA RESULT:      -7.3      2.381      4.070
REMARK  Name = 
REMARK  14 active torsions:
REMARK  status: ('A' for Active; 'I' for Inactive)
REMARK    1  A    between atoms: C_1  and  C_2
REMARK    2  A    between atoms: C_4  and  S_5
REMARK    3  A    between atoms: S_5  and  C_6
REMARK    4  A    between atoms: C_7  and  O_8
REMARK    5  A    between atoms: C_10  and  C_11
REMARK    6  A    between atoms: C_10  and  C_23
REMARK    7  A    between atoms: C_11  and  C_12
REMARK    8  A    between atoms: C_12  and  C_13
REMARK    9  A    between atoms: C_16  and  O_17
REMARK   10  A    between atoms: C_28  and  C_32
REMARK   11  A    between atoms: C_30  and  N_31
REMARK   12  A    between atoms: C_32  and  C_33
REMARK   13  A    between atoms: C_32  and  C_34
REMARK   14  A    between atoms: C_32  and  C_35
REMARK                            x       y       z     vdW  Elec       q    Type
REMARK                         _______ _______ _______ _____ _____    ______ ____
ROOT
ATOM      1  C   UNL     1       5.281  -4.612  22.968  0.00  0.00    +0.134 C 
ATOM      2  C   UNL     1       6.593  -4.910  22.354  0.00  0.00    +0.350 C 
ATOM      3  O   UNL     1       6.895  -6.008  21.899  0.00  0.00    -0.244 OA
ATOM      4  O   UNL     1       7.399  -3.837  22.157  0.00  0.00    -0.453 OA
ATOM      5  C   UNL     1       7.520  -2.763  23.121  0.00  0.00    +0.124 C 
ATOM      6  C   UNL     1       6.214  -2.535  23.941  0.00  0.00    +0.123 C 
ATOM      7  C   UNL     1       5.088  -3.453  23.612  0.00  0.00    +0.118 C 
ENDROOT
BRANCH   5   8
ATOM      8  C   UNL     1       8.732  -3.089  24.087  0.00  0.00    +0.033 C 
ATOM      9  C   UNL     1       9.982  -2.195  23.850  0.00  0.00    +0.007 C 
ATOM     10  C   UNL     1       9.982  -1.091  24.916  0.00  0.00    +0.000 C 
ATOM     11  C   UNL     1       8.847  -1.418  25.866  0.00  0.00    +0.000 C 
ATOM     12  C   UNL     1       8.573  -2.883  25.606  0.00  0.00    +0.007 C 
ENDBRANCH   5   8
BRANCH   7  13
ATOM     13  O   UNL     1       3.861  -3.049  24.115  0.00  0.00    -0.510 OA
ATOM     14  H   UNL     1       3.609  -3.672  24.825  0.00  0.00    +0.292 HD
ENDBRANCH   7  13
BRANCH   1  15
ATOM     15  S   UNL     1       4.175  -5.910  23.204  0.00  0.00    -0.079 S 
BRANCH  15  21
ATOM     16  C   UNL     1       6.713  -5.803  27.760  0.00  0.00    +0.045 C 
ATOM     17  C   UNL     1       5.480  -6.283  27.044  0.00  0.00    -0.029 A 
ATOM     18  C   UNL     1       4.372  -6.778  27.725  0.00  0.00    +0.028 A 
ATOM     19  C   UNL     1       3.235  -7.147  26.986  0.00  0.00    +0.028 A 
ATOM     20  C   UNL     1       3.091  -6.905  25.595  0.00  0.00    -0.027 A 
ATOM     21  C   UNL     1       4.238  -6.402  24.919  0.00  0.00    +0.017 A 
ATOM     22  C   UNL     1       5.412  -6.139  25.652  0.00  0.00    +0.020 A 
BRANCH  20  23
ATOM     23  C   UNL     1       1.704  -7.166  24.921  0.00  0.00    -0.012 C 
ATOM     24  C   UNL     1       1.077  -5.872  24.342  0.00  0.00    +0.015 C 
ATOM     25  C   UNL     1       0.622  -7.691  25.908  0.00  0.00    +0.015 C 
ATOM     26  C   UNL     1       1.819  -8.247  23.822  0.00  0.00    +0.015 C 
ENDBRANCH  20  23
BRANCH  18  27
ATOM     27  N   UNL     1       4.431  -7.099  29.089  0.00  0.00    -0.358 N 
ATOM     28  H   UNL     1       5.338  -7.440  29.394  0.00  0.00    +0.142 HD
ATOM     29  H   UNL     1       4.087  -6.362  29.698  0.00  0.00    +0.142 HD
ENDBRANCH  18  27
ENDBRANCH  15  21
ENDBRANCH   1  15
BRANCH   5  30
ATOM     30  C   UNL     1       7.678  -1.452  22.284  0.00  0.00    +0.053 C 
BRANCH  30  31
ATOM     31  C   UNL     1       7.128  -0.174  22.901  0.00  0.00    +0.039 C 
BRANCH  31  32
ATOM     32  C   UNL     1       8.107   0.967  22.944  0.00  0.00    -0.047 A 
ATOM     33  C   UNL     1       9.123   1.085  21.993  0.00  0.00    +0.007 A 
ATOM     34  C   UNL     1      10.087   2.086  22.126  0.00  0.00    +0.045 A 
ATOM     35  C   UNL     1      10.024   2.966  23.200  0.00  0.00    +0.117 A 
ATOM     36  C   UNL     1       9.011   2.881  24.145  0.00  0.00    +0.045 A 
ATOM     37  C   UNL     1       8.042   1.881  24.008  0.00  0.00    +0.007 A 
BRANCH  35  38
ATOM     38  O   UNL     1      10.997   3.914  23.305  0.00  0.00    -0.507 OA
ATOM     39  H   UNL     1      10.587   4.785  23.170  0.00  0.00    +0.292 HD
ENDBRANCH  35  38
ENDBRANCH  31  32
ENDBRANCH  30  31
ENDBRANCH   5  30
TORSDOF 10
ENDMDL
MODEL 5
REMARK VINA RESULT:      -7.2      1.906      3.492
REMARK  Name = 
REMARK  14 active torsions:
REMARK  status: ('A' for Active; 'I' for Inactive)
REMARK    1  A    between atoms: C_1  and  C_2
REMARK    2  A    between atoms: C_4  and  S_5
REMARK    3  A    between atoms: S_5  and  C_6
REMARK    4  A    between atoms: C_7  and  O_8
REMARK    5  A    between atoms: C_10  and  C_11
REMARK    6  A    between atoms: C_10  and  C_23
REMARK    7  A    between atoms: C_11  and  C_12
REMARK    8  A    between atoms: C_12  and  C_13
REMARK    9  A    between atoms: C_16  and  O_17
REMARK   10  A    between atoms: C_28  and  C_32
REMARK   11  A    between atoms: C_30  and  N_31
REMARK   12  A    between atoms: C_32  and  C_33
REMARK   13  A    between atoms: C_32  and  C_34
REMARK   14  A    between atoms: C_32  and  C_35
REMARK                            x       y       z     vdW  Elec       q    Type
REMARK                         _______ _______ _______ _____ _____    ______ ____
ROOT
ATOM      1  C   UNL     1       8.026  -3.229  24.509  0.00  0.00    +0.134 C 
ATOM      2  C   UNL     1       7.885  -2.318  23.352  0.00  0.00    +0.350 C 
ATOM      3  O   UNL     1       7.521  -2.686  22.240  0.00  0.00    -0.244 OA
ATOM      4  O   UNL     1       8.012  -0.998  23.633  0.00  0.00    -0.453 OA
ATOM      5  C   UNL     1       8.997  -0.489  24.564  0.00  0.00    +0.124 C 
ATOM      6  C   UNL     1       9.332  -1.498  25.704  0.00  0.00    +0.123 C 
ATOM      7  C   UNL     1       8.606  -2.798  25.636  0.00  0.00    +0.118 C 
ENDROOT
BRANCH   5   8
ATOM      8  C   UNL     1      10.306  -0.111  23.756  0.00  0.00    +0.033 C 
ATOM      9  C   UNL     1      10.038   0.294  22.280  0.00  0.00    +0.007 C 
ATOM     10  C   UNL     1      10.058   1.827  22.200  0.00  0.00    +0.000 C 
ATOM     11  C   UNL     1      10.492   2.317  23.566  0.00  0.00    +0.000 C 
ATOM     12  C   UNL     1      11.147   1.104  24.191  0.00  0.00    +0.007 C 
ENDBRANCH   5   8
BRANCH   7  13
ATOM     13  O   UNL     1       8.676  -3.548  26.800  0.00  0.00    -0.510 OA
ATOM     14  H   UNL     1       8.913  -4.464  26.551  0.00  0.00    +0.292 HD
ENDBRANCH   7  13
BRANCH   1  15
ATOM     15  S   UNL     1       7.825  -4.919  24.247  0.00  0.00    -0.079 S 
BRANCH  15  21
ATOM     16  C   UNL     1       6.110  -5.987  29.057  0.00  0.00    +0.045 C 
ATOM     17  C   UNL     1       5.751  -5.954  27.597  0.00  0.00    -0.029 A 
ATOM     18  C   UNL     1       4.436  -6.058  27.154  0.00  0.00    +0.028 A 
ATOM     19  C   UNL     1       4.176  -5.954  25.777  0.00  0.00    +0.028 A 
ATOM     20  C   UNL     1       5.160  -5.596  24.818  0.00  0.00    -0.027 A 
ATOM     21  C   UNL     1       6.499  -5.498  25.294  0.00  0.00    +0.017 A 
ATOM     22  C   UNL     1       6.765  -5.715  26.659  0.00  0.00    +0.020 A 
BRANCH  20  23
ATOM     23  C   UNL     1       4.714  -5.306  23.348  0.00  0.00    -0.012 C 
ATOM     24  C   UNL     1       4.584  -3.788  23.060  0.00  0.00    +0.015 C 
ATOM     25  C   UNL     1       3.305  -5.869  23.003  0.00  0.00    +0.015 C 
ATOM     26  C   UNL     1       5.680  -5.965  22.337  0.00  0.00    +0.015 C 
ENDBRANCH  20  23
BRANCH  18  27
ATOM     27  N   UNL     1       3.401  -6.457  28.013  0.00  0.00    -0.358 N 
ATOM     28  H   UNL     1       2.616  -5.815  28.040  0.00  0.00    +0.142 HD
ATOM     29  H   UNL     1       3.094  -7.414  27.867  0.00  0.00    +0.142 HD
ENDBRANCH  18  27
ENDBRANCH  15  21
ENDBRANCH   1  15
BRANCH   5  30
ATOM     30  C   UNL     1       8.311   0.706  25.304  0.00  0.00    +0.053 C 
BRANCH  30  31
ATOM     31  C   UNL     1       6.937   1.126  24.800  0.00  0.00    +0.039 C 
BRANCH  31  32
ATOM     32  C   UNL     1       6.939   2.366  23.949  0.00  0.00    -0.047 A 
ATOM     33  C   UNL     1       6.613   2.311  22.591  0.00  0.00    +0.007 A 
ATOM     34  C   UNL     1       6.737   3.455  21.801  0.00  0.00    +0.045 A 
ATOM     35  C   UNL     1       7.175   4.644  22.371  0.00  0.00    +0.117 A 
ATOM     36  C   UNL     1       7.483   4.726  23.722  0.00  0.00    +0.045 A 
ATOM     37  C   UNL     1       7.354   3.581  24.516  0.00  0.00    +0.007 A 
BRANCH  35  38
ATOM     38  O   UNL     1       7.304   5.731  21.560  0.00  0.00    -0.507 OA
ATOM     39  H   UNL     1       7.399   5.417  20.645  0.00  0.00    +0.292 HD
ENDBRANCH  35  38
ENDBRANCH  31  32
ENDBRANCH  30  31
ENDBRANCH   5  30
TORSDOF 10
ENDMDL
MODEL 6
REMARK VINA RESULT:      -7.2      2.200      3.715
REMARK  Name = 
REMARK  14 active torsions:
REMARK  status: ('A' for Active; 'I' for Inactive)
REMARK    1  A    between atoms: C_1  and  C_2
REMARK    2  A    between atoms: C_4  and  S_5
REMARK    3  A    between atoms: S_5  and  C_6
REMARK    4  A    between atoms: C_7  and  O_8
REMARK    5  A    between atoms: C_10  and  C_11
REMARK    6  A    between atoms: C_10  and  C_23
REMARK    7  A    between atoms: C_11  and  C_12
REMARK    8  A    between atoms: C_12  and  C_13
REMARK    9  A    between atoms: C_16  and  O_17
REMARK   10  A    between atoms: C_28  and  C_32
REMARK   11  A    between atoms: C_30  and  N_31
REMARK   12  A    between atoms: C_32  and  C_33
REMARK   13  A    between atoms: C_32  and  C_34
REMARK   14  A    between atoms: C_32  and  C_35
REMARK                            x       y       z     vdW  Elec       q    Type
REMARK                         _______ _______ _______ _____ _____    ______ ____
ROOT
ATOM      1  C   UNL     1       5.371  -2.660  23.707  0.00  0.00    +0.134 C 
ATOM      2  C   UNL     1       6.605  -2.319  22.965  0.00  0.00    +0.350 C 
ATOM      3  O   UNL     1       7.030  -2.976  22.020  0.00  0.00    -0.244 OA
ATOM      4  O   UNL     1       7.158  -1.122  23.277  0.00  0.00    -0.453 OA
ATOM      5  C   UNL     1       7.227  -0.622  24.634  0.00  0.00    +0.124 C 
ATOM      6  C   UNL     1       6.044  -1.116  25.522  0.00  0.00    +0.123 C 
ATOM      7  C   UNL     1       5.070  -2.015  24.841  0.00  0.00    +0.118 C 
ENDROOT
BRANCH   5   8
ATOM      8  C   UNL     1       8.612  -1.060  25.262  0.00  0.00    +0.033 C 
ATOM      9  C   UNL     1       8.589  -2.470  25.917  0.00  0.00    +0.007 C 
ATOM     10  C   UNL     1       9.208  -3.463  24.924  0.00  0.00    +0.000 C 
ATOM     11  C   UNL     1       9.739  -2.635  23.771  0.00  0.00    +0.000 C 
ATOM     12  C   UNL     1       9.841  -1.240  24.350  0.00  0.00    +0.007 C 
ENDBRANCH   5   8
BRANCH   7  13
ATOM     13  O   UNL     1       3.882  -2.193  25.534  0.00  0.00    -0.510 OA
ATOM     14  H   UNL     1       3.146  -2.037  24.909  0.00  0.00    +0.292 HD
ENDBRANCH   7  13
BRANCH   1  15
ATOM     15  S   UNL     1       4.575  -4.140  23.333  0.00  0.00    -0.079 S 
BRANCH  15  21
ATOM     16  C   UNL     1       7.353  -5.622  27.492  0.00  0.00    +0.045 C 
ATOM     17  C   UNL     1       6.107  -5.870  26.686  0.00  0.00    -0.029 A 
ATOM     18  C   UNL     1       5.063  -6.660  27.159  0.00  0.00    +0.028 A 
ATOM     19  C   UNL     1       3.906  -6.791  26.374  0.00  0.00    +0.028 A 
ATOM     20  C   UNL     1       3.674  -6.044  25.189  0.00  0.00    -0.027 A 
ATOM     21  C   UNL     1       4.757  -5.246  24.722  0.00  0.00    +0.017 A 
ATOM     22  C   UNL     1       5.955  -5.208  25.461  0.00  0.00    +0.020 A 
BRANCH  20  23
ATOM     23  C   UNL     1       2.266  -6.118  24.512  0.00  0.00    -0.012 C 
ATOM     24  C   UNL     1       1.474  -4.792  24.653  0.00  0.00    +0.015 C 
ATOM     25  C   UNL     1       1.324  -7.179  25.150  0.00  0.00    +0.015 C 
ATOM     26  C   UNL     1       2.389  -6.516  23.024  0.00  0.00    +0.015 C 
ENDBRANCH  20  23
BRANCH  18  27
ATOM     27  N   UNL     1       5.214  -7.475  28.292  0.00  0.00    -0.358 N 
ATOM     28  H   UNL     1       5.791  -7.066  29.020  0.00  0.00    +0.142 HD
ATOM     29  H   UNL     1       4.336  -7.824  28.664  0.00  0.00    +0.142 HD
ENDBRANCH  18  27
ENDBRANCH  15  21
ENDBRANCH   1  15
BRANCH   5  30
ATOM     30  C   UNL     1       7.007   0.923  24.534  0.00  0.00    +0.053 C 
BRANCH  30  31
ATOM     31  C   UNL     1       7.854   1.796  25.449  0.00  0.00    +0.039 C 
BRANCH  31  32
ATOM     32  C   UNL     1       8.750   2.767  24.729  0.00  0.00    -0.047 A 
ATOM     33  C   UNL     1       9.834   2.322  23.968  0.00  0.00    +0.007 A 
ATOM     34  C   UNL     1      10.716   3.248  23.409  0.00  0.00    +0.045 A 
ATOM     35  C   UNL     1      10.506   4.608  23.605  0.00  0.00    +0.117 A 
ATOM     36  C   UNL     1       9.422   5.072  24.339  0.00  0.00    +0.045 A 
ATOM     37  C   UNL     1       8.535   4.144  24.895  0.00  0.00    +0.007 A 
BRANCH  35  38
ATOM     38  O   UNL     1      11.403   5.477  23.061  0.00  0.00    -0.507 OA
ATOM     39  H   UNL     1      11.094   6.381  23.239  0.00  0.00    +0.292 HD
ENDBRANCH  35  38
ENDBRANCH  31  32
ENDBRANCH  30  31
ENDBRANCH   5  30
TORSDOF 10
ENDMDL
MODEL 7
REMARK VINA RESULT:      -7.1      3.277      8.695
REMARK  Name = 
REMARK  14 active torsions:
REMARK  status: ('A' for Active; 'I' for Inactive)
REMARK    1  A    between atoms: C_1  and  C_2
REMARK    2  A    between atoms: C_4  and  S_5
REMARK    3  A    between atoms: S_5  and  C_6
REMARK    4  A    between atoms: C_7  and  O_8
REMARK    5  A    between atoms: C_10  and  C_11
REMARK    6  A    between atoms: C_10  and  C_23
REMARK    7  A    between atoms: C_11  and  C_12
REMARK    8  A    between atoms: C_12  and  C_13
REMARK    9  A    between atoms: C_16  and  O_17
REMARK   10  A    between atoms: C_28  and  C_32
REMARK   11  A    between atoms: C_30  and  N_31
REMARK   12  A    between atoms: C_32  and  C_33
REMARK   13  A    between atoms: C_32  and  C_34
REMARK   14  A    between atoms: C_32  and  C_35
REMARK                            x       y       z     vdW  Elec       q    Type
REMARK                         _______ _______ _______ _____ _____    ______ ____
ROOT
ATOM      1  C   UNL     1       6.951  -2.459  26.118  0.00  0.00    +0.134 C 
ATOM      2  C   UNL     1       7.815  -3.658  26.190  0.00  0.00    +0.350 C 
ATOM      3  O   UNL     1       8.911  -3.670  26.742  0.00  0.00    -0.244 OA
ATOM      4  O   UNL     1       7.247  -4.810  25.760  0.00  0.00    -0.453 OA
ATOM      5  C   UNL     1       6.389  -4.872  24.594  0.00  0.00    +0.124 C 
ATOM      6  C   UNL     1       5.596  -3.551  24.356  0.00  0.00    +0.123 C 
ATOM      7  C   UNL     1       5.860  -2.464  25.340  0.00  0.00    +0.118 C 
ENDROOT
BRANCH   5   8
ATOM      8  C   UNL     1       7.280  -5.219  23.332  0.00  0.00    +0.033 C 
ATOM      9  C   UNL     1       6.700  -6.358  22.447  0.00  0.00    +0.007 C 
ATOM     10  C   UNL     1       5.999  -5.711  21.244  0.00  0.00    +0.000 C 
ATOM     11  C   UNL     1       6.299  -4.228  21.326  0.00  0.00    +0.000 C 
ATOM     12  C   UNL     1       7.503  -4.155  22.240  0.00  0.00    +0.007 C 
ENDBRANCH   5   8
BRANCH   7  13
ATOM     13  O   UNL     1       4.939  -1.429  25.303  0.00  0.00    -0.510 OA
ATOM     14  H   UNL     1       5.061  -0.950  24.458  0.00  0.00    +0.292 HD
ENDBRANCH   7  13
BRANCH   1  15
ATOM     15  S   UNL     1       7.577  -0.963  26.695  0.00  0.00    -0.079 S 
BRANCH  15  21
ATOM     16  C   UNL     1      10.106  -1.146  22.136  0.00  0.00    +0.045 C 
ATOM     17  C   UNL     1       9.461  -0.248  23.156  0.00  0.00    -0.029 A 
ATOM     18  C   UNL     1       9.176   1.089  22.892  0.00  0.00    +0.028 A 
ATOM     19  C   UNL     1       8.515   1.845  23.874  0.00  0.00    +0.028 A 
ATOM     20  C   UNL     1       7.983   1.288  25.066  0.00  0.00    -0.027 A 
ATOM     21  C   UNL     1       8.290  -0.080  25.317  0.00  0.00    +0.017 A 
ATOM     22  C   UNL     1       9.050  -0.801  24.376  0.00  0.00    +0.020 A 
BRANCH  20  23
ATOM     23  C   UNL     1       7.087   2.181  25.985  0.00  0.00    -0.012 C 
ATOM     24  C   UNL     1       7.504   3.674  25.943  0.00  0.00    +0.015 C 
ATOM     25  C   UNL     1       7.182   1.814  27.494  0.00  0.00    +0.015 C 
ATOM     26  C   UNL     1       5.593   2.029  25.617  0.00  0.00    +0.015 C 
ENDBRANCH  20  23
BRANCH  18  27
ATOM     27  N   UNL     1       9.700   1.743  21.767  0.00  0.00    -0.358 N 
ATOM     28  H   UNL     1       9.027   2.323  21.276  0.00  0.00    +0.142 HD
ATOM     29  H   UNL     1      10.562   2.248  21.952  0.00  0.00    +0.142 HD
ENDBRANCH  18  27
ENDBRANCH  15  21
ENDBRANCH   1  15
BRANCH   5  30
ATOM     30  C   UNL     1       5.283  -5.925  24.930  0.00  0.00    +0.053 C 
BRANCH  30  31
ATOM     31  C   UNL     1       3.842  -5.437  24.905  0.00  0.00    +0.039 C 
BRANCH  31  32
ATOM     32  C   UNL     1       2.865  -6.410  24.304  0.00  0.00    -0.047 A 
ATOM     33  C   UNL     1       2.648  -7.665  24.880  0.00  0.00    +0.007 A 
ATOM     34  C   UNL     1       1.826  -8.591  24.235  0.00  0.00    +0.045 A 
ATOM     35  C   UNL     1       1.222  -8.257  23.029  0.00  0.00    +0.117 A 
ATOM     36  C   UNL     1       1.407  -7.008  22.451  0.00  0.00    +0.045 A 
ATOM     37  C   UNL     1       2.226  -6.078  23.100  0.00  0.00    +0.007 A 
BRANCH  35  38
ATOM     38  O   UNL     1       0.446  -9.198  22.422  0.00  0.00    -0.507 OA
ATOM     39  H   UNL     1       0.835 -10.070  22.597  0.00  0.00    +0.292 HD
ENDBRANCH  35  38
ENDBRANCH  31  32
ENDBRANCH  30  31
ENDBRANCH   5  30
TORSDOF 10
ENDMDL
MODEL 8
REMARK VINA RESULT:      -7.1      3.711      6.937
REMARK  Name = 
REMARK  14 active torsions:
REMARK  status: ('A' for Active; 'I' for Inactive)
REMARK    1  A    between atoms: C_1  and  C_2
REMARK    2  A    between atoms: C_4  and  S_5
REMARK    3  A    between atoms: S_5  and  C_6
REMARK    4  A    between atoms: C_7  and  O_8
REMARK    5  A    between atoms: C_10  and  C_11
REMARK    6  A    between atoms: C_10  and  C_23
REMARK    7  A    between atoms: C_11  and  C_12
REMARK    8  A    between atoms: C_12  and  C_13
REMARK    9  A    between atoms: C_16  and  O_17
REMARK   10  A    between atoms: C_28  and  C_32
REMARK   11  A    between atoms: C_30  and  N_31
REMARK   12  A    between atoms: C_32  and  C_33
REMARK   13  A    between atoms: C_32  and  C_34
REMARK   14  A    between atoms: C_32  and  C_35
REMARK                            x       y       z     vdW  Elec       q    Type
REMARK                         _______ _______ _______ _____ _____    ______ ____
ROOT
ATOM      1  C   UNL     1       7.231  -0.155  26.300  0.00  0.00    +0.134 C 
ATOM      2  C   UNL     1       6.554  -0.677  25.092  0.00  0.00    +0.350 C 
ATOM      3  O   UNL     1       5.470  -0.266  24.692  0.00  0.00    -0.244 OA
ATOM      4  O   UNL     1       7.291  -1.528  24.337  0.00  0.00    -0.453 OA
ATOM      5  C   UNL     1       8.153  -2.539  24.913  0.00  0.00    +0.124 C 
ATOM      6  C   UNL     1       8.742  -2.116  26.293  0.00  0.00    +0.123 C 
ATOM      7  C   UNL     1       8.314  -0.776  26.784  0.00  0.00    +0.118 C 
ENDROOT
BRANCH   5   8
ATOM      8  C   UNL     1       7.331  -3.885  25.049  0.00  0.00    +0.033 C 
ATOM      9  C   UNL     1       5.939  -3.844  24.357  0.00  0.00    +0.007 C 
ATOM     10  C   UNL     1       6.065  -4.555  23.002  0.00  0.00    +0.000 C 
ATOM     11  C   UNL     1       7.458  -5.150  22.963  0.00  0.00    +0.000 C 
ATOM     12  C   UNL     1       7.877  -5.179  24.417  0.00  0.00    +0.007 C 
ENDBRANCH   5   8
BRANCH   7  13
ATOM     13  O   UNL     1       9.070  -0.290  27.839  0.00  0.00    -0.510 OA
ATOM     14  H   UNL     1       9.807  -0.916  27.992  0.00  0.00    +0.292 HD
ENDBRANCH   7  13
BRANCH   1  15
ATOM     15  S   UNL     1       6.385   0.974  27.287  0.00  0.00    -0.079 S 
BRANCH  15  21
ATOM     16  C   UNL     1       7.490   4.395  23.507  0.00  0.00    +0.045 C 
ATOM     17  C   UNL     1       7.382   4.188  24.993  0.00  0.00    -0.029 A 
ATOM     18  C   UNL     1       7.379   5.251  25.892  0.00  0.00    +0.028 A 
ATOM     19  C   UNL     1       7.211   4.979  27.259  0.00  0.00    +0.028 A 
ATOM     20  C   UNL     1       6.892   3.693  27.770  0.00  0.00    -0.027 A 
ATOM     21  C   UNL     1       6.904   2.621  26.833  0.00  0.00    +0.017 A 
ATOM     22  C   UNL     1       7.184   2.889  25.479  0.00  0.00    +0.020 A 
BRANCH  20  23
ATOM     23  C   UNL     1       6.522   3.549  29.282  0.00  0.00    -0.012 C 
ATOM     24  C   UNL     1       5.028   3.190  29.492  0.00  0.00    +0.015 C 
ATOM     25  C   UNL     1       6.702   4.864  30.094  0.00  0.00    +0.015 C 
ATOM     26  C   UNL     1       7.429   2.508  29.976  0.00  0.00    +0.015 C 
ENDBRANCH  20  23
BRANCH  18  27
ATOM     27  N   UNL     1       7.733   6.550  25.494  0.00  0.00    -0.358 N 
ATOM     28  H   UNL     1       7.031   7.013  24.925  0.00  0.00    +0.142 HD
ATOM     29  H   UNL     1       8.041   7.142  26.260  0.00  0.00    +0.142 HD
ENDBRANCH  18  27
ENDBRANCH  15  21
ENDBRANCH   1  15
BRANCH   5  30
ATOM     30  C   UNL     1       9.402  -2.621  23.975  0.00  0.00    +0.053 C 
BRANCH  30  31
ATOM     31  C   UNL     1       9.340  -1.827  22.678  0.00  0.00    +0.039 C 
BRANCH  31  32
ATOM     32  C   UNL     1       9.827  -0.408  22.793  0.00  0.00    -0.047 A 
ATOM     33  C   UNL     1      10.465   0.046  23.949  0.00  0.00    +0.007 A 
ATOM     34  C   UNL     1      10.800   1.396  24.073  0.00  0.00    +0.045 A 
ATOM     35  C   UNL     1      10.504   2.278  23.041  0.00  0.00    +0.117 A 
ATOM     36  C   UNL     1       9.891   1.843  21.874  0.00  0.00    +0.045 A 
ATOM     37  C   UNL     1       9.560   0.490  21.747  0.00  0.00    +0.007 A 
BRANCH  35  38
ATOM     38  O   UNL     1      10.828   3.590  23.211  0.00  0.00    -0.507 OA
ATOM     39  H   UNL     1      11.697   3.743  22.804  0.00  0.00    +0.292 HD
ENDBRANCH  35  38
ENDBRANCH  31  32
ENDBRANCH  30  31
ENDBRANCH   5  30
TORSDOF 10
ENDMDL
MODEL 9
REMARK VINA RESULT:      -7.0      2.336      3.742
REMARK  Name = 
REMARK  14 active torsions:
REMARK  status: ('A' for Active; 'I' for Inactive)
REMARK    1  A    between atoms: C_1  and  C_2
REMARK    2  A    between atoms: C_4  and  S_5
REMARK    3  A    between atoms: S_5  and  C_6
REMARK    4  A    between atoms: C_7  and  O_8
REMARK    5  A    between atoms: C_10  and  C_11
REMARK    6  A    between atoms: C_10  and  C_23
REMARK    7  A    between atoms: C_11  and  C_12
REMARK    8  A    between atoms: C_12  and  C_13
REMARK    9  A    between atoms: C_16  and  O_17
REMARK   10  A    between atoms: C_28  and  C_32
REMARK   11  A    between atoms: C_30  and  N_31
REMARK   12  A    between atoms: C_32  and  C_33
REMARK   13  A    between atoms: C_32  and  C_34
REMARK   14  A    between atoms: C_32  and  C_35
REMARK                            x       y       z     vdW  Elec       q    Type
REMARK                         _______ _______ _______ _____ _____    ______ ____
ROOT
ATOM      1  C   UNL     1       5.294  -3.307  23.141  0.00  0.00    +0.134 C 
ATOM      2  C   UNL     1       6.347  -3.352  22.103  0.00  0.00    +0.350 C 
ATOM      3  O   UNL     1       6.482  -4.282  21.314  0.00  0.00    -0.244 OA
ATOM      4  O   UNL     1       7.061  -2.210  21.950  0.00  0.00    -0.453 OA
ATOM      5  C   UNL     1       7.487  -1.398  23.071  0.00  0.00    +0.124 C 
ATOM      6  C   UNL     1       6.504  -1.470  24.279  0.00  0.00    +0.123 C 
ATOM      7  C   UNL     1       5.322  -2.357  24.085  0.00  0.00    +0.118 C 
ENDROOT
BRANCH   5   8
ATOM      8  C   UNL     1       8.936  -1.864  23.508  0.00  0.00    +0.033 C 
ATOM      9  C   UNL     1      10.083  -1.023  22.880  0.00  0.00    +0.007 C 
ATOM     10  C   UNL     1      10.554  -0.008  23.930  0.00  0.00    +0.000 C 
ATOM     11  C   UNL     1       9.818  -0.348  25.210  0.00  0.00    +0.000 C 
ATOM     12  C   UNL     1       9.354  -1.772  24.988  0.00  0.00    +0.007 C 
ENDBRANCH   5   8
BRANCH   7  13
ATOM     13  O   UNL     1       4.317  -2.176  25.022  0.00  0.00    -0.510 OA
ATOM     14  H   UNL     1       3.461  -2.194  24.549  0.00  0.00    +0.292 HD
ENDBRANCH   7  13
BRANCH   1  15
ATOM     15  S   UNL     1       4.305  -4.698  23.362  0.00  0.00    -0.079 S 
BRANCH  15  21
ATOM     16  C   UNL     1       7.884  -5.268  27.114  0.00  0.00    +0.045 C 
ATOM     17  C   UNL     1       6.537  -5.714  26.613  0.00  0.00    -0.029 A 
ATOM     18  C   UNL     1       5.657  -6.447  27.404  0.00  0.00    +0.028 A 
ATOM     19  C   UNL     1       4.393  -6.771  26.886  0.00  0.00    +0.028 A 
ATOM     20  C   UNL     1       3.896  -6.265  25.656  0.00  0.00    -0.027 A 
ATOM     21  C   UNL     1       4.815  -5.521  24.862  0.00  0.00    +0.017 A 
ATOM     22  C   UNL     1       6.119  -5.296  25.343  0.00  0.00    +0.020 A 
BRANCH  20  23
ATOM     23  C   UNL     1       2.401  -6.523  25.280  0.00  0.00    -0.012 C 
ATOM     24  C   UNL     1       1.561  -5.220  25.277  0.00  0.00    +0.015 C 
ATOM     25  C   UNL     1       1.654  -7.441  26.291  0.00  0.00    +0.015 C 
ATOM     26  C   UNL     1       2.289  -7.237  23.914  0.00  0.00    +0.015 C 
ENDBRANCH  20  23
BRANCH  18  27
ATOM     27  N   UNL     1       6.069  -7.033  28.611  0.00  0.00    -0.358 N 
ATOM     28  H   UNL     1       5.556  -7.874  28.858  0.00  0.00    +0.142 HD
ATOM     29  H   UNL     1       7.073  -7.177  28.675  0.00  0.00    +0.142 HD
ENDBRANCH  18  27
ENDBRANCH  15  21
ENDBRANCH   1  15
BRANCH   5  30
ATOM     30  C   UNL     1       7.389   0.086  22.589  0.00  0.00    +0.053 C 
BRANCH  30  31
ATOM     31  C   UNL     1       6.753   1.079  23.551  0.00  0.00    +0.039 C 
BRANCH  31  32
ATOM     32  C   UNL     1       7.299   2.477  23.454  0.00  0.00    -0.047 A 
ATOM     33  C   UNL     1       6.843   3.365  22.477  0.00  0.00    +0.007 A 
ATOM     34  C   UNL     1       7.451   4.614  22.336  0.00  0.00    +0.045 A 
ATOM     35  C   UNL     1       8.501   4.970  23.174  0.00  0.00    +0.117 A 
ATOM     36  C   UNL     1       8.955   4.111  24.165  0.00  0.00    +0.045 A 
ATOM     37  C   UNL     1       8.342   2.861  24.310  0.00  0.00    +0.007 A 
BRANCH  35  38
ATOM     38  O   UNL     1       9.081   6.188  22.988  0.00  0.00    -0.507 OA
ATOM     39  H   UNL     1       8.434   6.768  22.553  0.00  0.00    +0.292 HD
ENDBRANCH  35  38
ENDBRANCH  31  32
ENDBRANCH  30  31
ENDBRANCH   5  30
TORSDOF 10
ENDMDL
