MODEL 1
REMARK VINA RESULT:      -7.7      0.000      0.000
REMARK  Name = 
REMARK  6 active torsions:
REMARK  status: ('A' for Active; 'I' for Inactive)
REMARK    1  A    between atoms: C_4  and  N_28
REMARK    2  A    between atoms: C_6  and  C_8
REMARK    3  A    between atoms: N_10  and  C_11
REMARK    4  A    between atoms: C_17  and  C_18
REMARK    5  A    between atoms: C_18  and  C_19
REMARK    6  A    between atoms: C_19  and  C_20
REMARK                            x       y       z     vdW  Elec       q    Type
REMARK                         _______ _______ _______ _____ _____    ______ ____
ROOT
ATOM      1  C   UNL     1       6.149  -0.264  24.949  0.00  0.00    +0.034 A 
ATOM      2  C   UNL     1       7.113   0.634  24.446  0.00  0.00    +0.033 A 
ATOM      3  C   UNL     1       7.333   1.886  25.080  0.00  0.00    +0.005 A 
ATOM      4  C   UNL     1       6.573   2.188  26.211  0.00  0.00    +0.047 A 
ATOM      5  N   UNL     1       6.943   3.437  26.642  0.00  0.00    -0.360 N 
ATOM      6  H   UNL     1       6.544   3.906  27.444  0.00  0.00    +0.165 HD
ATOM      7  C   UNL     1       7.903   3.950  25.819  0.00  0.00    +0.087 A 
ATOM      8  C   UNL     1       5.621   1.320  26.739  0.00  0.00    +0.028 A 
ATOM      9  C   UNL     1       8.196   3.015  24.840  0.00  0.00    -0.022 A 
ATOM     10  C   UNL     1       5.425   0.099  26.087  0.00  0.00    +0.025 A 
ENDROOT
BRANCH   1  12
ATOM     11  C   UNL     1       6.698  -2.660  24.486  0.00  0.00    +0.248 C 
ATOM     12  N   UNL     1       5.959  -1.505  24.277  0.00  0.00    -0.281 N 
ATOM     13  H   UNL     1       5.248  -1.514  23.558  0.00  0.00    +0.155 HD
ATOM     14  O   UNL     1       7.618  -2.797  25.288  0.00  0.00    -0.270 OA
BRANCH  11  18
ATOM     15  F   UNL     1       7.563  -5.940  20.955  0.00  0.00    -0.205 F 
ATOM     16  C   UNL     1       6.771  -5.448  21.916  0.00  0.00    +0.126 A 
ATOM     17  C   UNL     1       7.217  -4.364  22.669  0.00  0.00    +0.051 A 
ATOM     18  C   UNL     1       6.380  -3.856  23.656  0.00  0.00    +0.041 A 
ATOM     19  C   UNL     1       5.116  -4.442  23.852  0.00  0.00    +0.036 A 
ATOM     20  C   UNL     1       4.647  -5.526  23.093  0.00  0.00    +0.033 A 
ATOM     21  C   UNL     1       5.515  -6.029  22.123  0.00  0.00    +0.061 A 
BRANCH  20  22
ATOM     22  N   UNL     1       3.403  -6.062  23.375  0.00  0.00    -0.325 N 
ATOM     23  C   UNL     1       3.318  -7.161  24.364  0.00  0.00    +0.133 C 
ATOM     24  C   UNL     1       2.082  -8.022  24.053  0.00  0.00    +0.178 C 
ATOM     25  O   UNL     1       0.878  -7.233  24.013  0.00  0.00    -0.377 OA
ATOM     26  C   UNL     1       0.993  -6.189  23.030  0.00  0.00    +0.178 C 
ATOM     27  C   UNL     1       2.175  -5.252  23.339  0.00  0.00    +0.133 C 
ENDBRANCH  20  22
ENDBRANCH  11  18
ENDBRANCH   1  12
BRANCH   9  28
ATOM     28  C   UNL     1       9.189   3.178  23.723  0.00  0.00    +0.042 C 
BRANCH  28  29
ATOM     29  C   UNL     1      10.404   2.244  23.839  0.00  0.00    +0.040 C 
BRANCH  29  30
ATOM     30  C   UNL     1      10.219   0.907  23.160  0.00  0.00    -0.044 A 
ATOM     31  C   UNL     1       9.712   0.831  21.860  0.00  0.00    +0.023 A 
ATOM     32  C   UNL     1       9.518  -0.421  21.292  0.00  0.00    +0.111 A 
ATOM     33  N   UNL     1       9.789  -1.583  21.921  0.00  0.00    -0.263 NA
ATOM     34  C   UNL     1      10.268  -1.489  23.179  0.00  0.00    +0.111 A 
ATOM     35  C   UNL     1      10.493  -0.287  23.833  0.00  0.00    +0.023 A 
ENDBRANCH  29  30
ENDBRANCH  28  29
ENDBRANCH   9  28
TORSDOF 6
ENDMDL
MODEL 2
REMARK VINA RESULT:      -7.5      2.599      4.517
REMARK  Name = 
REMARK  6 active torsions:
REMARK  status: ('A' for Active; 'I' for Inactive)
REMARK    1  A    between atoms: C_4  and  N_28
REMARK    2  A    between atoms: C_6  and  C_8
REMARK    3  A    between atoms: N_10  and  C_11
REMARK    4  A    between atoms: C_17  and  C_18
REMARK    5  A    between atoms: C_18  and  C_19
REMARK    6  A    between atoms: C_19  and  C_20
REMARK                            x       y       z     vdW  Elec       q    Type
REMARK                         _______ _______ _______ _____ _____    ______ ____
ROOT
ATOM      1  C   UNL     1       8.460  -0.025  22.799  0.00  0.00    +0.034 A 
ATOM      2  C   UNL     1       8.117   0.951  23.757  0.00  0.00    +0.033 A 
ATOM      3  C   UNL     1       8.772   2.212  23.768  0.00  0.00    +0.005 A 
ATOM      4  C   UNL     1       9.752   2.447  22.802  0.00  0.00    +0.047 A 
ATOM      5  N   UNL     1      10.250   3.709  23.010  0.00  0.00    -0.360 N 
ATOM      6  H   UNL     1      10.979   4.135  22.454  0.00  0.00    +0.165 HD
ATOM      7  C   UNL     1       9.634   4.284  24.084  0.00  0.00    +0.087 A 
ATOM      8  C   UNL     1      10.107   1.509  21.836  0.00  0.00    +0.028 A 
ATOM      9  C   UNL     1       8.691   3.400  24.580  0.00  0.00    -0.022 A 
ATOM     10  C   UNL     1       9.447   0.276  21.858  0.00  0.00    +0.025 A 
ENDROOT
BRANCH   1  12
ATOM     11  C   UNL     1       8.336  -2.490  23.208  0.00  0.00    +0.248 C 
ATOM     12  N   UNL     1       7.780  -1.276  22.831  0.00  0.00    -0.281 N 
ATOM     13  H   UNL     1       6.822  -1.267  22.508  0.00  0.00    +0.155 HD
ATOM     14  O   UNL     1       9.491  -2.673  23.582  0.00  0.00    -0.270 OA
BRANCH  11  18
ATOM     15  F   UNL     1       5.860  -6.021  20.889  0.00  0.00    -0.205 F 
ATOM     16  C   UNL     1       6.239  -5.419  22.024  0.00  0.00    +0.126 A 
ATOM     17  C   UNL     1       7.101  -4.328  21.954  0.00  0.00    +0.051 A 
ATOM     18  C   UNL     1       7.478  -3.706  23.138  0.00  0.00    +0.041 A 
ATOM     19  C   UNL     1       6.969  -4.189  24.358  0.00  0.00    +0.036 A 
ATOM     20  C   UNL     1       6.089  -5.279  24.444  0.00  0.00    +0.033 A 
ATOM     21  C   UNL     1       5.744  -5.897  23.242  0.00  0.00    +0.061 A 
BRANCH  20  22
ATOM     22  N   UNL     1       5.663  -5.708  25.689  0.00  0.00    -0.325 N 
ATOM     23  C   UNL     1       4.677  -6.812  25.753  0.00  0.00    +0.133 C 
ATOM     24  C   UNL     1       3.867  -6.687  27.055  0.00  0.00    +0.178 C 
ATOM     25  O   UNL     1       4.722  -6.654  28.214  0.00  0.00    -0.377 OA
ATOM     26  C   UNL     1       5.651  -5.560  28.122  0.00  0.00    +0.178 C 
ATOM     27  C   UNL     1       6.540  -5.679  26.870  0.00  0.00    +0.133 C 
ENDBRANCH  20  22
ENDBRANCH  11  18
ENDBRANCH   1  12
BRANCH   9  28
ATOM     28  C   UNL     1       7.795   3.628  25.766  0.00  0.00    +0.042 C 
BRANCH  28  29
ATOM     29  C   UNL     1       6.683   4.658  25.508  0.00  0.00    +0.040 C 
BRANCH  29  30
ATOM     30  C   UNL     1       5.428   4.070  24.908  0.00  0.00    -0.044 A 
ATOM     31  C   UNL     1       4.445   3.501  25.722  0.00  0.00    +0.023 A 
ATOM     32  C   UNL     1       3.329   2.934  25.122  0.00  0.00    +0.111 A 
ATOM     33  N   UNL     1       3.129   2.894  23.789  0.00  0.00    -0.263 NA
ATOM     34  C   UNL     1       4.094   3.439  23.019  0.00  0.00    +0.111 A 
ATOM     35  C   UNL     1       5.245   4.026  23.522  0.00  0.00    +0.023 A 
ENDBRANCH  29  30
ENDBRANCH  28  29
ENDBRANCH   9  28
TORSDOF 6
ENDMDL
MODEL 3
REMARK VINA RESULT:      -7.4      2.082      4.023
REMARK  Name = 
REMARK  6 active torsions:
REMARK  status: ('A' for Active; 'I' for Inactive)
REMARK    1  A    between atoms: C_4  and  N_28
REMARK    2  A    between atoms: C_6  and  C_8
REMARK    3  A    between atoms: N_10  and  C_11
REMARK    4  A    between atoms: C_17  and  C_18
REMARK    5  A    between atoms: C_18  and  C_19
REMARK    6  A    between atoms: C_19  and  C_20
REMARK                            x       y       z     vdW  Elec       q    Type
REMARK                         _______ _______ _______ _____ _____    ______ ____
ROOT
ATOM      1  C   UNL     1       8.323  -0.064  22.681  0.00  0.00    +0.034 A 
ATOM      2  C   UNL     1       7.790   0.942  23.513  0.00  0.00    +0.033 A 
ATOM      3  C   UNL     1       8.421   2.212  23.605  0.00  0.00    +0.005 A 
ATOM      4  C   UNL     1       9.572   2.425  22.844  0.00  0.00    +0.047 A 
ATOM      5  N   UNL     1      10.010   3.701  23.097  0.00  0.00    -0.360 N 
ATOM      6  H   UNL     1      10.831   4.116  22.680  0.00  0.00    +0.165 HD
ATOM      7  C   UNL     1       9.188   4.306  24.004  0.00  0.00    +0.087 A 
ATOM      8  C   UNL     1      10.117   1.457  22.005  0.00  0.00    +0.028 A 
ATOM      9  C   UNL     1       8.171   3.427  24.338  0.00  0.00    -0.022 A 
ATOM     10  C   UNL     1       9.475   0.217  21.943  0.00  0.00    +0.025 A 
ENDROOT
BRANCH   1  12
ATOM     11  C   UNL     1       8.136  -2.513  23.156  0.00  0.00    +0.248 C 
ATOM     12  N   UNL     1       7.659  -1.323  22.627  0.00  0.00    -0.281 N 
ATOM     13  H   UNL     1       6.785  -1.340  22.118  0.00  0.00    +0.155 HD
ATOM     14  O   UNL     1       9.194  -2.665  23.761  0.00  0.00    -0.270 OA
BRANCH  11  18
ATOM     15  F   UNL     1       6.009  -6.034  20.499  0.00  0.00    -0.205 F 
ATOM     16  C   UNL     1       6.247  -5.453  21.683  0.00  0.00    +0.126 A 
ATOM     17  C   UNL     1       7.088  -4.344  21.733  0.00  0.00    +0.051 A 
ATOM     18  C   UNL     1       7.318  -3.744  22.965  0.00  0.00    +0.041 A 
ATOM     19  C   UNL     1       6.688  -4.266  24.110  0.00  0.00    +0.036 A 
ATOM     20  C   UNL     1       5.828  -5.375  24.074  0.00  0.00    +0.033 A 
ATOM     21  C   UNL     1       5.631  -5.970  22.828  0.00  0.00    +0.061 A 
BRANCH  20  22
ATOM     22  N   UNL     1       5.277  -5.843  25.254  0.00  0.00    -0.325 N 
ATOM     23  C   UNL     1       4.316  -6.968  25.184  0.00  0.00    +0.133 C 
ATOM     24  C   UNL     1       3.365  -6.890  26.390  0.00  0.00    +0.178 C 
ATOM     25  O   UNL     1       4.084  -6.868  27.637  0.00  0.00    -0.377 OA
ATOM     26  C   UNL     1       4.993  -5.754  27.673  0.00  0.00    +0.178 C 
ATOM     27  C   UNL     1       6.017  -5.824  26.525  0.00  0.00    +0.133 C 
ENDBRANCH  20  22
ENDBRANCH  11  18
ENDBRANCH   1  12
BRANCH   9  28
ATOM     28  C   UNL     1       7.056   3.686  25.312  0.00  0.00    +0.042 C 
BRANCH  28  29
ATOM     29  C   UNL     1       7.255   2.998  26.673  0.00  0.00    +0.040 C 
BRANCH  29  30
ATOM     30  C   UNL     1       6.530   1.679  26.806  0.00  0.00    -0.044 A 
ATOM     31  C   UNL     1       7.211   0.526  27.205  0.00  0.00    +0.023 A 
ATOM     32  C   UNL     1       6.514  -0.672  27.272  0.00  0.00    +0.111 A 
ATOM     33  N   UNL     1       5.204  -0.798  26.973  0.00  0.00    -0.263 NA
ATOM     34  C   UNL     1       4.566   0.324  26.580  0.00  0.00    +0.111 A 
ATOM     35  C   UNL     1       5.176   1.566  26.478  0.00  0.00    +0.023 A 
ENDBRANCH  29  30
ENDBRANCH  28  29
ENDBRANCH   9  28
TORSDOF 6
ENDMDL
MODEL 4
REMARK VINA RESULT:      -7.3      3.262      9.302
REMARK  Name = 
REMARK  6 active torsions:
REMARK  status: ('A' for Active; 'I' for Inactive)
REMARK    1  A    between atoms: C_4  and  N_28
REMARK    2  A    between atoms: C_6  and  C_8
REMARK    3  A    between atoms: N_10  and  C_11
REMARK    4  A    between atoms: C_17  and  C_18
REMARK    5  A    between atoms: C_18  and  C_19
REMARK    6  A    between atoms: C_19  and  C_20
REMARK                            x       y       z     vdW  Elec       q    Type
REMARK                         _______ _______ _______ _____ _____    ______ ____
ROOT
ATOM      1  C   UNL     1       7.295  -3.447  23.366  0.00  0.00    +0.034 A 
ATOM      2  C   UNL     1       6.790  -4.108  24.504  0.00  0.00    +0.033 A 
ATOM      3  C   UNL     1       5.939  -5.238  24.364  0.00  0.00    +0.005 A 
ATOM      4  C   UNL     1       5.630  -5.666  23.071  0.00  0.00    +0.047 A 
ATOM      5  N   UNL     1       4.796  -6.750  23.178  0.00  0.00    -0.360 N 
ATOM      6  H   UNL     1       4.412  -7.256  22.392  0.00  0.00    +0.165 HD
ATOM      7  C   UNL     1       4.548  -7.021  24.493  0.00  0.00    +0.087 A 
ATOM      8  C   UNL     1       6.120  -5.041  21.927  0.00  0.00    +0.028 A 
ATOM      9  C   UNL     1       5.252  -6.120  25.273  0.00  0.00    -0.022 A 
ATOM     10  C   UNL     1       6.950  -3.929  22.101  0.00  0.00    +0.025 A 
ENDROOT
BRANCH   1  12
ATOM     11  C   UNL     1       7.739  -0.989  23.500  0.00  0.00    +0.248 C 
ATOM     12  N   UNL     1       8.139  -2.316  23.556  0.00  0.00    -0.281 N 
ATOM     13  H   UNL     1       9.119  -2.516  23.703  0.00  0.00    +0.155 HD
ATOM     14  O   UNL     1       6.599  -0.583  23.290  0.00  0.00    -0.270 OA
BRANCH  11  18
ATOM     15  F   UNL     1      12.175   0.672  24.743  0.00  0.00    -0.205 F 
ATOM     16  C   UNL     1      10.926   0.899  24.316  0.00  0.00    +0.126 A 
ATOM     17  C   UNL     1      10.073  -0.185  24.118  0.00  0.00    +0.051 A 
ATOM     18  C   UNL     1       8.777   0.065  23.685  0.00  0.00    +0.041 A 
ATOM     19  C   UNL     1       8.369   1.395  23.473  0.00  0.00    +0.036 A 
ATOM     20  C   UNL     1       9.212   2.498  23.681  0.00  0.00    +0.033 A 
ATOM     21  C   UNL     1      10.514   2.217  24.096  0.00  0.00    +0.061 A 
BRANCH  20  22
ATOM     22  N   UNL     1       8.738   3.771  23.417  0.00  0.00    -0.325 N 
ATOM     23  C   UNL     1       7.343   3.918  22.940  0.00  0.00    +0.133 C 
ATOM     24  C   UNL     1       7.232   5.204  22.104  0.00  0.00    +0.178 C 
ATOM     25  O   UNL     1       7.678   6.359  22.839  0.00  0.00    -0.377 OA
ATOM     26  C   UNL     1       9.040   6.185  23.269  0.00  0.00    +0.178 C 
ATOM     27  C   UNL     1       9.192   4.948  24.173  0.00  0.00    +0.133 C 
ENDBRANCH  20  22
ENDBRANCH  11  18
ENDBRANCH   1  12
BRANCH   9  28
ATOM     28  C   UNL     1       5.254  -6.055  26.775  0.00  0.00    +0.042 C 
BRANCH  28  29
ATOM     29  C   UNL     1       3.871  -5.765  27.381  0.00  0.00    +0.040 C 
BRANCH  29  30
ATOM     30  C   UNL     1       3.239  -4.486  26.885  0.00  0.00    -0.044 A 
ATOM     31  C   UNL     1       3.776  -3.243  27.230  0.00  0.00    +0.023 A 
ATOM     32  C   UNL     1       3.135  -2.094  26.786  0.00  0.00    +0.111 A 
ATOM     33  N   UNL     1       2.015  -2.099  26.035  0.00  0.00    -0.263 NA
ATOM     34  C   UNL     1       1.506  -3.308  25.721  0.00  0.00    +0.111 A 
ATOM     35  C   UNL     1       2.069  -4.511  26.119  0.00  0.00    +0.023 A 
ENDBRANCH  29  30
ENDBRANCH  28  29
ENDBRANCH   9  28
TORSDOF 6
ENDMDL
MODEL 5
REMARK VINA RESULT:      -7.2      3.181      8.753
REMARK  Name = 
REMARK  6 active torsions:
REMARK  status: ('A' for Active; 'I' for Inactive)
REMARK    1  A    between atoms: C_4  and  N_28
REMARK    2  A    between atoms: C_6  and  C_8
REMARK    3  A    between atoms: N_10  and  C_11
REMARK    4  A    between atoms: C_17  and  C_18
REMARK    5  A    between atoms: C_18  and  C_19
REMARK    6  A    between atoms: C_19  and  C_20
REMARK                            x       y       z     vdW  Elec       q    Type
REMARK                         _______ _______ _______ _____ _____    ______ ____
ROOT
ATOM      1  C   UNL     1       6.183  -3.389  22.927  0.00  0.00    +0.034 A 
ATOM      2  C   UNL     1       5.052  -3.524  23.758  0.00  0.00    +0.033 A 
ATOM      3  C   UNL     1       4.222  -4.674  23.665  0.00  0.00    +0.005 A 
ATOM      4  C   UNL     1       4.568  -5.655  22.735  0.00  0.00    +0.047 A 
ATOM      5  N   UNL     1       3.630  -6.654  22.812  0.00  0.00    -0.360 N 
ATOM      6  H   UNL     1       3.635  -7.488  22.242  0.00  0.00    +0.165 HD
ATOM      7  C   UNL     1       2.688  -6.338  23.749  0.00  0.00    +0.087 A 
ATOM      8  C   UNL     1       5.683  -5.557  21.907  0.00  0.00    +0.028 A 
ATOM      9  C   UNL     1       3.021  -5.124  24.323  0.00  0.00    -0.022 A 
ATOM     10  C   UNL     1       6.475  -4.410  22.020  0.00  0.00    +0.025 A 
ENDROOT
BRANCH   1  12
ATOM     11  C   UNL     1       8.118  -2.092  23.838  0.00  0.00    +0.248 C 
ATOM     12  N   UNL     1       6.982  -2.216  23.052  0.00  0.00    -0.281 N 
ATOM     13  H   UNL     1       6.654  -1.402  22.550  0.00  0.00    +0.155 HD
ATOM     14  O   UNL     1       8.618  -2.971  24.535  0.00  0.00    -0.270 OA
BRANCH  11  18
ATOM     15  F   UNL     1      11.900   0.901  24.690  0.00  0.00    -0.205 F 
ATOM     16  C   UNL     1      10.628   0.712  24.314  0.00  0.00    +0.126 A 
ATOM     17  C   UNL     1      10.128  -0.587  24.256  0.00  0.00    +0.051 A 
ATOM     18  C   UNL     1       8.804  -0.769  23.875  0.00  0.00    +0.041 A 
ATOM     19  C   UNL     1       8.016   0.358  23.575  0.00  0.00    +0.036 A 
ATOM     20  C   UNL     1       8.501   1.673  23.641  0.00  0.00    +0.033 A 
ATOM     21  C   UNL     1       9.839   1.825  24.006  0.00  0.00    +0.061 A 
BRANCH  20  22
ATOM     22  N   UNL     1       7.666   2.721  23.297  0.00  0.00    -0.325 N 
ATOM     23  C   UNL     1       6.220   2.597  23.595  0.00  0.00    +0.133 C 
ATOM     24  C   UNL     1       5.426   3.460  22.600  0.00  0.00    +0.178 C 
ATOM     25  O   UNL     1       5.867   4.831  22.614  0.00  0.00    -0.377 OA
ATOM     26  C   UNL     1       7.269   4.911  22.304  0.00  0.00    +0.178 C 
ATOM     27  C   UNL     1       8.117   4.121  23.318  0.00  0.00    +0.133 C 
ENDBRANCH  20  22
ENDBRANCH  11  18
ENDBRANCH   1  12
BRANCH   9  28
ATOM     28  C   UNL     1       2.248  -4.402  25.391  0.00  0.00    +0.042 C 
BRANCH  28  29
ATOM     29  C   UNL     1       2.305  -5.091  26.765  0.00  0.00    +0.040 C 
BRANCH  29  30
ATOM     30  C   UNL     1       3.698  -5.211  27.334  0.00  0.00    -0.044 A 
ATOM     31  C   UNL     1       4.530  -4.092  27.429  0.00  0.00    +0.023 A 
ATOM     32  C   UNL     1       5.818  -4.257  27.919  0.00  0.00    +0.111 A 
ATOM     33  N   UNL     1       6.327  -5.443  28.314  0.00  0.00    -0.263 NA
ATOM     34  C   UNL     1       5.513  -6.513  28.206  0.00  0.00    +0.111 A 
ATOM     35  C   UNL     1       4.213  -6.450  27.726  0.00  0.00    +0.023 A 
ENDBRANCH  29  30
ENDBRANCH  28  29
ENDBRANCH   9  28
TORSDOF 6
ENDMDL
MODEL 6
REMARK VINA RESULT:      -7.1      2.518      4.384
REMARK  Name = 
REMARK  6 active torsions:
REMARK  status: ('A' for Active; 'I' for Inactive)
REMARK    1  A    between atoms: C_4  and  N_28
REMARK    2  A    between atoms: C_6  and  C_8
REMARK    3  A    between atoms: N_10  and  C_11
REMARK    4  A    between atoms: C_17  and  C_18
REMARK    5  A    between atoms: C_18  and  C_19
REMARK    6  A    between atoms: C_19  and  C_20
REMARK                            x       y       z     vdW  Elec       q    Type
REMARK                         _______ _______ _______ _____ _____    ______ ____
ROOT
ATOM      1  C   UNL     1       8.520  -1.429  23.443  0.00  0.00    +0.034 A 
ATOM      2  C   UNL     1       8.463  -0.142  24.016  0.00  0.00    +0.033 A 
ATOM      3  C   UNL     1       9.056   0.968  23.356  0.00  0.00    +0.005 A 
ATOM      4  C   UNL     1       9.685   0.739  22.131  0.00  0.00    +0.047 A 
ATOM      5  N   UNL     1      10.190   1.937  21.689  0.00  0.00    -0.360 N 
ATOM      6  H   UNL     1      10.701   2.059  20.826  0.00  0.00    +0.165 HD
ATOM      7  C   UNL     1       9.919   2.921  22.596  0.00  0.00    +0.087 A 
ATOM      8  C   UNL     1       9.750  -0.517  21.533  0.00  0.00    +0.028 A 
ATOM      9  C   UNL     1       9.197   2.373  23.644  0.00  0.00    -0.022 A 
ATOM     10  C   UNL     1       9.161  -1.588  22.212  0.00  0.00    +0.025 A 
ENDROOT
BRANCH   1  12
ATOM     11  C   UNL     1       6.703  -3.105  23.826  0.00  0.00    +0.248 C 
ATOM     12  N   UNL     1       7.916  -2.512  24.144  0.00  0.00    -0.281 N 
ATOM     13  H   UNL     1       8.407  -2.835  24.966  0.00  0.00    +0.155 HD
ATOM     14  O   UNL     1       5.970  -2.800  22.889  0.00  0.00    -0.270 OA
BRANCH  11  18
ATOM     15  F   UNL     1       6.897  -6.085  27.707  0.00  0.00    -0.205 F 
ATOM     16  C   UNL     1       6.302  -5.687  26.575  0.00  0.00    +0.126 A 
ATOM     17  C   UNL     1       6.828  -4.599  25.882  0.00  0.00    +0.051 A 
ATOM     18  C   UNL     1       6.209  -4.204  24.703  0.00  0.00    +0.041 A 
ATOM     19  C   UNL     1       5.085  -4.918  24.246  0.00  0.00    +0.036 A 
ATOM     20  C   UNL     1       4.552  -6.024  24.925  0.00  0.00    +0.033 A 
ATOM     21  C   UNL     1       5.181  -6.387  26.116  0.00  0.00    +0.061 A 
BRANCH  20  22
ATOM     22  N   UNL     1       3.424  -6.649  24.421  0.00  0.00    -0.325 N 
ATOM     23  C   UNL     1       2.677  -7.573  25.305  0.00  0.00    +0.133 C 
ATOM     24  C   UNL     1       1.944  -8.612  24.440  0.00  0.00    +0.178 C 
ATOM     25  O   UNL     1       1.090  -7.987  23.463  0.00  0.00    -0.377 OA
ATOM     26  C   UNL     1       1.855  -7.113  22.614  0.00  0.00    +0.178 C 
ATOM     27  C   UNL     1       2.551  -6.005  23.427  0.00  0.00    +0.133 C 
ENDBRANCH  20  22
ENDBRANCH  11  18
ENDBRANCH   1  12
BRANCH   9  28
ATOM     28  C   UNL     1       8.704   3.103  24.862  0.00  0.00    +0.042 C 
BRANCH  28  29
ATOM     29  C   UNL     1       8.844   4.631  24.763  0.00  0.00    +0.040 C 
BRANCH  29  30
ATOM     30  C   UNL     1       7.795   5.290  23.899  0.00  0.00    -0.044 A 
ATOM     31  C   UNL     1       6.445   4.955  24.035  0.00  0.00    +0.023 A 
ATOM     32  C   UNL     1       5.521   5.554  23.190  0.00  0.00    +0.111 A 
ATOM     33  N   UNL     1       5.844   6.450  22.234  0.00  0.00    -0.263 NA
ATOM     34  C   UNL     1       7.154   6.752  22.111  0.00  0.00    +0.111 A 
ATOM     35  C   UNL     1       8.151   6.205  22.905  0.00  0.00    +0.023 A 
ENDBRANCH  29  30
ENDBRANCH  28  29
ENDBRANCH   9  28
TORSDOF 6
ENDMDL
MODEL 7
REMARK VINA RESULT:      -6.9      2.517      3.556
REMARK  Name = 
REMARK  6 active torsions:
REMARK  status: ('A' for Active; 'I' for Inactive)
REMARK    1  A    between atoms: C_4  and  N_28
REMARK    2  A    between atoms: C_6  and  C_8
REMARK    3  A    between atoms: N_10  and  C_11
REMARK    4  A    between atoms: C_17  and  C_18
REMARK    5  A    between atoms: C_18  and  C_19
REMARK    6  A    between atoms: C_19  and  C_20
REMARK                            x       y       z     vdW  Elec       q    Type
REMARK                         _______ _______ _______ _____ _____    ______ ____
ROOT
ATOM      1  C   UNL     1       6.527   1.654  26.285  0.00  0.00    +0.034 A 
ATOM      2  C   UNL     1       7.521   1.976  25.339  0.00  0.00    +0.033 A 
ATOM      3  C   UNL     1       8.075   3.284  25.292  0.00  0.00    +0.005 A 
ATOM      4  C   UNL     1       7.608   4.224  26.211  0.00  0.00    +0.047 A 
ATOM      5  N   UNL     1       8.268   5.404  25.975  0.00  0.00    -0.360 N 
ATOM      6  H   UNL     1       8.118   6.257  26.495  0.00  0.00    +0.165 HD
ATOM      7  C   UNL     1       9.130   5.255  24.927  0.00  0.00    +0.087 A 
ATOM      8  C   UNL     1       6.636   3.935  27.165  0.00  0.00    +0.028 A 
ATOM      9  C   UNL     1       9.062   3.947  24.478  0.00  0.00    -0.022 A 
ATOM     10  C   UNL     1       6.107   2.641  27.180  0.00  0.00    +0.025 A 
ENDROOT
BRANCH   1  12
ATOM     11  C   UNL     1       6.665  -0.806  26.719  0.00  0.00    +0.248 C 
ATOM     12  N   UNL     1       5.997   0.332  26.290  0.00  0.00    -0.281 N 
ATOM     13  H   UNL     1       5.067   0.227  25.907  0.00  0.00    +0.155 HD
ATOM     14  O   UNL     1       7.807  -0.850  27.169  0.00  0.00    -0.270 OA
BRANCH  11  18
ATOM     15  F   UNL     1       3.802  -4.429  28.349  0.00  0.00    -0.205 F 
ATOM     16  C   UNL     1       4.591  -3.907  27.400  0.00  0.00    +0.126 A 
ATOM     17  C   UNL     1       5.135  -2.640  27.597  0.00  0.00    +0.051 A 
ATOM     18  C   UNL     1       5.961  -2.115  26.611  0.00  0.00    +0.041 A 
ATOM     19  C   UNL     1       6.228  -2.881  25.460  0.00  0.00    +0.036 A 
ATOM     20  C   UNL     1       5.698  -4.164  25.254  0.00  0.00    +0.033 A 
ATOM     21  C   UNL     1       4.856  -4.658  26.250  0.00  0.00    +0.061 A 
BRANCH  20  22
ATOM     22  N   UNL     1       5.986  -4.834  24.078  0.00  0.00    -0.325 N 
ATOM     23  C   UNL     1       7.401  -4.924  23.647  0.00  0.00    +0.133 C 
ATOM     24  C   UNL     1       7.452  -5.068  22.117  0.00  0.00    +0.178 C 
ATOM     25  O   UNL     1       6.674  -6.191  21.660  0.00  0.00    -0.377 OA
ATOM     26  C   UNL     1       5.305  -6.058  22.083  0.00  0.00    +0.178 C 
ATOM     27  C   UNL     1       5.193  -5.984  23.617  0.00  0.00    +0.133 C 
ENDBRANCH  20  22
ENDBRANCH  11  18
ENDBRANCH   1  12
BRANCH   9  28
ATOM     28  C   UNL     1       9.838   3.358  23.333  0.00  0.00    +0.042 C 
BRANCH  28  29
ATOM     29  C   UNL     1      10.727   2.170  23.737  0.00  0.00    +0.040 C 
BRANCH  29  30
ATOM     30  C   UNL     1      10.236   0.835  23.230  0.00  0.00    -0.044 A 
ATOM     31  C   UNL     1      10.246  -0.291  24.057  0.00  0.00    +0.023 A 
ATOM     32  C   UNL     1       9.826  -1.506  23.535  0.00  0.00    +0.111 A 
ATOM     33  N   UNL     1       9.403  -1.674  22.264  0.00  0.00    -0.263 NA
ATOM     34  C   UNL     1       9.410  -0.577  21.478  0.00  0.00    +0.111 A 
ATOM     35  C   UNL     1       9.814   0.679  21.906  0.00  0.00    +0.023 A 
ENDBRANCH  29  30
ENDBRANCH  28  29
ENDBRANCH   9  28
TORSDOF 6
ENDMDL
MODEL 8
REMARK VINA RESULT:      -6.8      2.738      3.945
REMARK  Name = 
REMARK  6 active torsions:
REMARK  status: ('A' for Active; 'I' for Inactive)
REMARK    1  A    between atoms: C_4  and  N_28
REMARK    2  A    between atoms: C_6  and  C_8
REMARK    3  A    between atoms: N_10  and  C_11
REMARK    4  A    between atoms: C_17  and  C_18
REMARK    5  A    between atoms: C_18  and  C_19
REMARK    6  A    between atoms: C_19  and  C_20
REMARK                            x       y       z     vdW  Elec       q    Type
REMARK                         _______ _______ _______ _____ _____    ______ ____
ROOT
ATOM      1  C   UNL     1       7.173   1.903  26.250  0.00  0.00    +0.034 A 
ATOM      2  C   UNL     1       8.187   1.816  25.274  0.00  0.00    +0.033 A 
ATOM      3  C   UNL     1       8.798   2.992  24.762  0.00  0.00    +0.005 A 
ATOM      4  C   UNL     1       8.366   4.222  25.260  0.00  0.00    +0.047 A 
ATOM      5  N   UNL     1       9.078   5.206  24.621  0.00  0.00    -0.360 N 
ATOM      6  H   UNL     1       8.961   6.196  24.787  0.00  0.00    +0.165 HD
ATOM      7  C   UNL     1       9.940   4.649  23.721  0.00  0.00    +0.087 A 
ATOM      8  C   UNL     1       7.375   4.342  26.231  0.00  0.00    +0.028 A 
ATOM      9  C   UNL     1       9.819   3.271  23.784  0.00  0.00    -0.022 A 
ATOM     10  C   UNL     1       6.790   3.165  26.708  0.00  0.00    +0.025 A 
ENDROOT
BRANCH   1  12
ATOM     11  C   UNL     1       5.675  -0.089  26.040  0.00  0.00    +0.248 C 
ATOM     12  N   UNL     1       6.586   0.697  26.729  0.00  0.00    -0.281 N 
ATOM     13  H   UNL     1       6.836   0.427  27.671  0.00  0.00    +0.155 HD
ATOM     14  O   UNL     1       5.241   0.125  24.911  0.00  0.00    -0.270 OA
BRANCH  11  18
ATOM     15  F   UNL     1       3.851  -2.570  29.848  0.00  0.00    -0.205 F 
ATOM     16  C   UNL     1       4.273  -2.535  28.577  0.00  0.00    +0.126 A 
ATOM     17  C   UNL     1       4.690  -1.320  28.038  0.00  0.00    +0.051 A 
ATOM     18  C   UNL     1       5.135  -1.300  26.722  0.00  0.00    +0.041 A 
ATOM     19  C   UNL     1       5.161  -2.500  25.987  0.00  0.00    +0.036 A 
ATOM     20  C   UNL     1       4.757  -3.734  26.521  0.00  0.00    +0.033 A 
ATOM     21  C   UNL     1       4.295  -3.722  27.837  0.00  0.00    +0.061 A 
BRANCH  20  22
ATOM     22  N   UNL     1       4.784  -4.860  25.717  0.00  0.00    -0.325 N 
ATOM     23  C   UNL     1       5.539  -4.799  24.444  0.00  0.00    +0.133 C 
ATOM     24  C   UNL     1       4.929  -5.801  23.450  0.00  0.00    +0.178 C 
ATOM     25  O   UNL     1       4.889  -7.134  23.992  0.00  0.00    -0.377 OA
ATOM     26  C   UNL     1       4.134  -7.155  25.216  0.00  0.00    +0.178 C 
ATOM     27  C   UNL     1       4.749  -6.221  26.275  0.00  0.00    +0.133 C 
ENDBRANCH  20  22
ENDBRANCH  11  18
ENDBRANCH   1  12
BRANCH   9  28
ATOM     28  C   UNL     1      10.577   2.272  22.953  0.00  0.00    +0.042 C 
BRANCH  28  29
ATOM     29  C   UNL     1       9.689   1.481  21.979  0.00  0.00    +0.040 C 
BRANCH  29  30
ATOM     30  C   UNL     1       9.350   0.087  22.452  0.00  0.00    -0.044 A 
ATOM     31  C   UNL     1      10.359  -0.833  22.745  0.00  0.00    +0.023 A 
ATOM     32  C   UNL     1       9.999  -2.117  23.134  0.00  0.00    +0.111 A 
ATOM     33  N   UNL     1       8.723  -2.538  23.249  0.00  0.00    -0.263 NA
ATOM     34  C   UNL     1       7.763  -1.639  22.951  0.00  0.00    +0.111 A 
ATOM     35  C   UNL     1       8.021  -0.336  22.551  0.00  0.00    +0.023 A 
ENDBRANCH  29  30
ENDBRANCH  28  29
ENDBRANCH   9  28
TORSDOF 6
ENDMDL
MODEL 9
REMARK VINA RESULT:      -6.8      2.084      2.532
REMARK  Name = 
REMARK  6 active torsions:
REMARK  status: ('A' for Active; 'I' for Inactive)
REMARK    1  A    between atoms: C_4  and  N_28
REMARK    2  A    between atoms: C_6  and  C_8
REMARK    3  A    between atoms: N_10  and  C_11
REMARK    4  A    between atoms: C_17  and  C_18
REMARK    5  A    between atoms: C_18  and  C_19
REMARK    6  A    between atoms: C_19  and  C_20
REMARK                            x       y       z     vdW  Elec       q    Type
REMARK                         _______ _______ _______ _____ _____    ______ ____
ROOT
ATOM      1  C   UNL     1       7.309   0.574  26.118  0.00  0.00    +0.034 A 
ATOM      2  C   UNL     1       8.321   0.963  25.216  0.00  0.00    +0.033 A 
ATOM      3  C   UNL     1       8.585   2.338  24.978  0.00  0.00    +0.005 A 
ATOM      4  C   UNL     1       7.818   3.279  25.667  0.00  0.00    +0.047 A 
ATOM      5  N   UNL     1       8.235   4.527  25.276  0.00  0.00    -0.360 N 
ATOM      6  H   UNL     1       7.843   5.393  25.616  0.00  0.00    +0.165 HD
ATOM      7  C   UNL     1       9.231   4.416  24.348  0.00  0.00    +0.087 A 
ATOM      8  C   UNL     1       6.820   2.929  26.573  0.00  0.00    +0.028 A 
ATOM      9  C   UNL     1       9.500   3.074  24.142  0.00  0.00    -0.022 A 
ATOM     10  C   UNL     1       6.582   1.566  26.779  0.00  0.00    +0.025 A 
ENDROOT
BRANCH   1  12
ATOM     11  C   UNL     1       6.106  -1.576  25.685  0.00  0.00    +0.248 C 
ATOM     12  N   UNL     1       7.077  -0.817  26.320  0.00  0.00    -0.281 N 
ATOM     13  H   UNL     1       7.653  -1.264  27.021  0.00  0.00    +0.155 HD
ATOM     14  O   UNL     1       5.305  -1.173  24.845  0.00  0.00    -0.270 OA
BRANCH  11  18
ATOM     15  F   UNL     1       7.623  -5.745  27.758  0.00  0.00    -0.205 F 
ATOM     16  C   UNL     1       6.722  -5.066  27.035  0.00  0.00    +0.126 A 
ATOM     17  C   UNL     1       6.920  -3.704  26.817  0.00  0.00    +0.051 A 
ATOM     18  C   UNL     1       5.984  -3.014  26.057  0.00  0.00    +0.041 A 
ATOM     19  C   UNL     1       4.882  -3.711  25.528  0.00  0.00    +0.036 A 
ATOM     20  C   UNL     1       4.675  -5.084  25.728  0.00  0.00    +0.033 A 
ATOM     21  C   UNL     1       5.619  -5.748  26.512  0.00  0.00    +0.061 A 
BRANCH  20  22
ATOM     22  N   UNL     1       3.545  -5.683  25.198  0.00  0.00    -0.325 N 
ATOM     23  C   UNL     1       3.713  -6.628  24.070  0.00  0.00    +0.133 C 
ATOM     24  C   UNL     1       2.423  -6.645  23.234  0.00  0.00    +0.178 C 
ATOM     25  O   UNL     1       1.270  -6.959  24.037  0.00  0.00    -0.377 OA
ATOM     26  C   UNL     1       1.132  -6.010  25.110  0.00  0.00    +0.178 C 
ATOM     27  C   UNL     1       2.371  -6.008  26.023  0.00  0.00    +0.133 C 
ENDBRANCH  20  22
ENDBRANCH  11  18
ENDBRANCH   1  12
BRANCH   9  28
ATOM     28  C   UNL     1      10.519   2.506  23.193  0.00  0.00    +0.042 C 
BRANCH  28  29
ATOM     29  C   UNL     1       9.900   1.757  22.001  0.00  0.00    +0.040 C 
BRANCH  29  30
ATOM     30  C   UNL     1       9.592   0.306  22.282  0.00  0.00    -0.044 A 
ATOM     31  C   UNL     1       8.310  -0.208  22.064  0.00  0.00    +0.023 A 
ATOM     32  C   UNL     1       8.062  -1.537  22.377  0.00  0.00    +0.111 A 
ATOM     33  N   UNL     1       8.989  -2.377  22.883  0.00  0.00    -0.263 NA
ATOM     34  C   UNL     1      10.217  -1.861  23.096  0.00  0.00    +0.111 A 
ATOM     35  C   UNL     1      10.562  -0.546  22.820  0.00  0.00    +0.023 A 
ENDBRANCH  29  30
ENDBRANCH  28  29
ENDBRANCH   9  28
TORSDOF 6
ENDMDL
