MODEL 1
REMARK VINA RESULT:      -6.8      0.000      0.000
REMARK  Name = 
REMARK  10 active torsions:
REMARK  status: ('A' for Active; 'I' for Inactive)
REMARK    1  A    between atoms: C_2  and  N_15
REMARK    2  A    between atoms: C_8  and  S_11
REMARK    3  A    between atoms: S_11  and  N_12
REMARK    4  A    between atoms: C_16  and  C_18
REMARK    5  A    between atoms: C_18  and  C_19
REMARK    6  A    between atoms: C_18  and  C_22
REMARK    7  A    between atoms: C_19  and  C_20
REMARK    8  A    between atoms: C_20  and  C_21
REMARK    9  A    between atoms: C_22  and  C_23
REMARK   10  A    between atoms: C_23  and  C_24
REMARK                            x       y       z     vdW  Elec       q    Type
REMARK                         _______ _______ _______ _____ _____    ______ ____
ROOT
ATOM      1  C   UNL     1       8.395  -3.840  23.805  0.00  0.00    +0.082 C 
ATOM      2  C   UNL     1       8.809  -4.186  25.253  0.00  0.00    +0.058 C 
ATOM      3  C   UNL     1       7.588  -4.825  25.828  0.00  0.00    -0.041 A 
ATOM      4  C   UNL     1       7.418  -5.271  27.128  0.00  0.00    +0.032 A 
ATOM      5  C   UNL     1       6.228  -5.932  27.446  0.00  0.00    +0.105 A 
ATOM      6  C   UNL     1       5.217  -6.117  26.489  0.00  0.00    +0.029 A 
ATOM      7  C   UNL     1       5.402  -5.654  25.185  0.00  0.00    +0.006 A 
ATOM      8  C   UNL     1       6.590  -5.007  24.873  0.00  0.00    -0.042 A 
ATOM      9  C   UNL     1       7.004  -4.475  23.535  0.00  0.00    +0.058 C 
ENDROOT
BRANCH   1  10
ATOM     10  N   UNL     1       8.419  -2.396  23.576  0.00  0.00    -0.312 N 
ATOM     11  H   UNL     1       7.545  -1.887  23.588  0.00  0.00    +0.149 HD
ATOM     12  C   UNL     1       9.547  -1.771  23.089  0.00  0.00    +0.216 C 
ATOM     13  O   UNL     1      10.587  -2.374  22.845  0.00  0.00    -0.276 OA
BRANCH  12  14
ATOM     14  C   UNL     1       9.412  -0.253  22.947  0.00  0.00    +0.075 C 
BRANCH  14  15
ATOM     15  C   UNL     1       9.302   0.138  21.463  0.00  0.00    +0.012 C 
BRANCH  15  16
ATOM     16  C   UNL     1       8.418   1.366  21.231  0.00  0.00    -0.003 C 
ATOM     17  C   UNL     1       7.289   1.418  22.249  0.00  0.00    +0.004 C 
ENDBRANCH  15  16
ENDBRANCH  14  15
BRANCH  14  18
ATOM     18  C   UNL     1      10.641   0.386  23.630  0.00  0.00    +0.012 C 
BRANCH  18  19
ATOM     19  C   UNL     1      10.346   1.709  24.343  0.00  0.00    -0.003 C 
ATOM     20  C   UNL     1      10.806   2.906  23.523  0.00  0.00    +0.004 C 
ENDBRANCH  18  19
ENDBRANCH  14  18
ENDBRANCH  12  14
ENDBRANCH   1  10
BRANCH   5  21
ATOM     21  S   UNL     1       6.015  -6.568  29.079  0.00  0.00    +0.056 S 
ATOM     22  O   UNL     1       5.847  -5.471  30.004  0.00  0.00    -0.153 OA
ATOM     23  O   UNL     1       6.958  -7.637  29.306  0.00  0.00    -0.153 OA
BRANCH  21  24
ATOM     24  N   UNL     1       4.508  -7.297  28.946  0.00  0.00    -0.204 NA
ATOM     25  H   UNL     1       4.578  -8.293  29.154  0.00  0.00    +0.144 HD
ATOM     26  H   UNL     1       4.089  -7.081  28.042  0.00  0.00    +0.144 HD
ENDBRANCH  21  24
ENDBRANCH   5  21
TORSDOF 8
ENDMDL
MODEL 2
REMARK VINA RESULT:      -6.6      3.685      5.755
REMARK  Name = 
REMARK  10 active torsions:
REMARK  status: ('A' for Active; 'I' for Inactive)
REMARK    1  A    between atoms: C_2  and  N_15
REMARK    2  A    between atoms: C_8  and  S_11
REMARK    3  A    between atoms: S_11  and  N_12
REMARK    4  A    between atoms: C_16  and  C_18
REMARK    5  A    between atoms: C_18  and  C_19
REMARK    6  A    between atoms: C_18  and  C_22
REMARK    7  A    between atoms: C_19  and  C_20
REMARK    8  A    between atoms: C_20  and  C_21
REMARK    9  A    between atoms: C_22  and  C_23
REMARK   10  A    between atoms: C_23  and  C_24
REMARK                            x       y       z     vdW  Elec       q    Type
REMARK                         _______ _______ _______ _____ _____    ______ ____
ROOT
ATOM      1  C   UNL     1      10.563   1.504  23.438  0.00  0.00    +0.082 C 
ATOM      2  C   UNL     1      10.608   0.410  24.528  0.00  0.00    +0.058 C 
ATOM      3  C   UNL     1       9.849  -0.724  23.923  0.00  0.00    -0.041 A 
ATOM      4  C   UNL     1       9.552  -1.937  24.521  0.00  0.00    +0.032 A 
ATOM      5  C   UNL     1       8.911  -2.911  23.749  0.00  0.00    +0.105 A 
ATOM      6  C   UNL     1       8.549  -2.665  22.415  0.00  0.00    +0.029 A 
ATOM      7  C   UNL     1       8.850  -1.433  21.830  0.00  0.00    +0.006 A 
ATOM      8  C   UNL     1       9.496  -0.474  22.599  0.00  0.00    -0.042 A 
ATOM      9  C   UNL     1       9.944   0.886  22.157  0.00  0.00    +0.058 C 
ENDROOT
BRANCH   1  10
ATOM     10  N   UNL     1       9.846   2.690  23.905  0.00  0.00    -0.312 N 
ATOM     11  H   UNL     1       8.862   2.610  24.121  0.00  0.00    +0.149 HD
ATOM     12  C   UNL     1      10.405   3.947  23.801  0.00  0.00    +0.216 C 
ATOM     13  O   UNL     1      11.526   4.138  23.342  0.00  0.00    -0.276 OA
BRANCH  12  14
ATOM     14  C   UNL     1       9.536   5.069  24.374  0.00  0.00    +0.075 C 
BRANCH  14  15
ATOM     15  C   UNL     1       8.171   5.102  23.667  0.00  0.00    +0.012 C 
BRANCH  15  16
ATOM     16  C   UNL     1       7.804   6.492  23.138  0.00  0.00    -0.003 C 
ATOM     17  C   UNL     1       7.248   6.400  21.725  0.00  0.00    +0.004 C 
ENDBRANCH  15  16
ENDBRANCH  14  15
BRANCH  14  18
ATOM     18  C   UNL     1      10.316   6.391  24.201  0.00  0.00    +0.012 C 
BRANCH  18  19
ATOM     19  C   UNL     1      10.745   7.045  25.518  0.00  0.00    -0.003 C 
ATOM     20  C   UNL     1      12.260   7.103  25.653  0.00  0.00    +0.004 C 
ENDBRANCH  18  19
ENDBRANCH  14  18
ENDBRANCH  12  14
ENDBRANCH   1  10
BRANCH   5  21
ATOM     21  S   UNL     1       8.579  -4.488  24.469  0.00  0.00    +0.056 S 
ATOM     22  O   UNL     1       8.201  -5.421  23.433  0.00  0.00    -0.153 OA
ATOM     23  O   UNL     1       7.806  -4.314  25.675  0.00  0.00    -0.153 OA
BRANCH  21  24
ATOM     24  N   UNL     1      10.117  -4.946  24.965  0.00  0.00    -0.204 NA
ATOM     25  H   UNL     1      10.292  -5.920  24.720  0.00  0.00    +0.144 HD
ATOM     26  H   UNL     1      10.250  -4.726  25.951  0.00  0.00    +0.144 HD
ENDBRANCH  21  24
ENDBRANCH   5  21
TORSDOF 8
ENDMDL
MODEL 3
REMARK VINA RESULT:      -6.5      1.085      1.579
REMARK  Name = 
REMARK  10 active torsions:
REMARK  status: ('A' for Active; 'I' for Inactive)
REMARK    1  A    between atoms: C_2  and  N_15
REMARK    2  A    between atoms: C_8  and  S_11
REMARK    3  A    between atoms: S_11  and  N_12
REMARK    4  A    between atoms: C_16  and  C_18
REMARK    5  A    between atoms: C_18  and  C_19
REMARK    6  A    between atoms: C_18  and  C_22
REMARK    7  A    between atoms: C_19  and  C_20
REMARK    8  A    between atoms: C_20  and  C_21
REMARK    9  A    between atoms: C_22  and  C_23
REMARK   10  A    between atoms: C_23  and  C_24
REMARK                            x       y       z     vdW  Elec       q    Type
REMARK                         _______ _______ _______ _____ _____    ______ ____
ROOT
ATOM      1  C   UNL     1       8.188  -3.992  23.718  0.00  0.00    +0.082 C 
ATOM      2  C   UNL     1       8.610  -4.208  25.189  0.00  0.00    +0.058 C 
ATOM      3  C   UNL     1       7.446  -4.921  25.791  0.00  0.00    -0.041 A 
ATOM      4  C   UNL     1       7.298  -5.301  27.114  0.00  0.00    +0.032 A 
ATOM      5  C   UNL     1       6.170  -6.049  27.462  0.00  0.00    +0.105 A 
ATOM      6  C   UNL     1       5.194  -6.386  26.509  0.00  0.00    +0.029 A 
ATOM      7  C   UNL     1       5.355  -5.989  25.180  0.00  0.00    +0.006 A 
ATOM      8  C   UNL     1       6.483  -5.255  24.840  0.00  0.00    -0.042 A 
ATOM      9  C   UNL     1       6.867  -4.769  23.475  0.00  0.00    +0.058 C 
ENDROOT
BRANCH   1  10
ATOM     10  N   UNL     1       8.081  -2.569  23.399  0.00  0.00    -0.312 N 
ATOM     11  H   UNL     1       7.161  -2.159  23.306  0.00  0.00    +0.149 HD
ATOM     12  C   UNL     1       9.176  -1.852  22.966  0.00  0.00    +0.216 C 
ATOM     13  O   UNL     1      10.291  -2.350  22.848  0.00  0.00    -0.276 OA
BRANCH  12  14
ATOM     14  C   UNL     1       8.897  -0.368  22.716  0.00  0.00    +0.075 C 
BRANCH  14  15
ATOM     15  C   UNL     1      10.197   0.366  22.346  0.00  0.00    +0.012 C 
BRANCH  15  16
ATOM     16  C   UNL     1       9.990   1.863  22.096  0.00  0.00    -0.003 C 
ATOM     17  C   UNL     1      10.705   2.690  23.153  0.00  0.00    +0.004 C 
ENDBRANCH  15  16
ENDBRANCH  14  15
BRANCH  14  18
ATOM     18  C   UNL     1       8.249   0.202  23.998  0.00  0.00    +0.012 C 
BRANCH  18  19
ATOM     19  C   UNL     1       9.128   0.092  25.247  0.00  0.00    -0.003 C 
ATOM     20  C   UNL     1       8.370  -0.515  26.419  0.00  0.00    +0.004 C 
ENDBRANCH  18  19
ENDBRANCH  14  18
ENDBRANCH  12  14
ENDBRANCH   1  10
BRANCH   5  21
ATOM     21  S   UNL     1       5.991  -6.600  29.129  0.00  0.00    +0.056 S 
ATOM     22  O   UNL     1       5.876  -5.456  30.005  0.00  0.00    -0.153 OA
ATOM     23  O   UNL     1       6.916  -7.679  29.381  0.00  0.00    -0.153 OA
BRANCH  21  24
ATOM     24  N   UNL     1       4.466  -7.298  29.076  0.00  0.00    -0.204 NA
ATOM     25  H   UNL     1       4.026  -7.259  29.996  0.00  0.00    +0.144 HD
ATOM     26  H   UNL     1       4.518  -8.232  28.672  0.00  0.00    +0.144 HD
ENDBRANCH  21  24
ENDBRANCH   5  21
TORSDOF 8
ENDMDL
MODEL 4
REMARK VINA RESULT:      -6.4      1.178      1.923
REMARK  Name = 
REMARK  10 active torsions:
REMARK  status: ('A' for Active; 'I' for Inactive)
REMARK    1  A    between atoms: C_2  and  N_15
REMARK    2  A    between atoms: C_8  and  S_11
REMARK    3  A    between atoms: S_11  and  N_12
REMARK    4  A    between atoms: C_16  and  C_18
REMARK    5  A    between atoms: C_18  and  C_19
REMARK    6  A    between atoms: C_18  and  C_22
REMARK    7  A    between atoms: C_19  and  C_20
REMARK    8  A    between atoms: C_20  and  C_21
REMARK    9  A    between atoms: C_22  and  C_23
REMARK   10  A    between atoms: C_23  and  C_24
REMARK                            x       y       z     vdW  Elec       q    Type
REMARK                         _______ _______ _______ _____ _____    ______ ____
ROOT
ATOM      1  C   UNL     1       9.180  -3.422  24.249  0.00  0.00    +0.082 C 
ATOM      2  C   UNL     1       9.086  -4.024  25.669  0.00  0.00    +0.058 C 
ATOM      3  C   UNL     1       7.695  -4.563  25.735  0.00  0.00    -0.041 A 
ATOM      4  C   UNL     1       7.087  -5.160  26.826  0.00  0.00    +0.032 A 
ATOM      5  C   UNL     1       5.803  -5.689  26.655  0.00  0.00    +0.105 A 
ATOM      6  C   UNL     1       5.132  -5.594  25.425  0.00  0.00    +0.029 A 
ATOM      7  C   UNL     1       5.757  -4.981  24.338  0.00  0.00    +0.006 A 
ATOM      8  C   UNL     1       7.036  -4.468  24.511  0.00  0.00    -0.042 A 
ATOM      9  C   UNL     1       7.895  -3.814  23.472  0.00  0.00    +0.058 C 
ENDROOT
BRANCH   1  10
ATOM     10  N   UNL     1       9.402  -1.978  24.297  0.00  0.00    -0.312 N 
ATOM     11  H   UNL     1       8.828  -1.418  24.914  0.00  0.00    +0.149 HD
ATOM     12  C   UNL     1      10.172  -1.344  23.345  0.00  0.00    +0.216 C 
ATOM     13  O   UNL     1      10.727  -1.946  22.432  0.00  0.00    -0.276 OA
BRANCH  12  14
ATOM     14  C   UNL     1      10.333   0.162  23.569  0.00  0.00    +0.075 C 
BRANCH  14  15
ATOM     15  C   UNL     1       9.369   0.645  24.666  0.00  0.00    +0.012 C 
BRANCH  15  16
ATOM     16  C   UNL     1       9.265   2.171  24.743  0.00  0.00    -0.003 C 
ATOM     17  C   UNL     1       7.912   2.592  25.297  0.00  0.00    +0.004 C 
ENDBRANCH  15  16
ENDBRANCH  14  15
BRANCH  14  18
ATOM     18  C   UNL     1      10.075   0.860  22.215  0.00  0.00    +0.012 C 
BRANCH  18  19
ATOM     19  C   UNL     1       8.697   0.571  21.613  0.00  0.00    -0.003 C 
ATOM     20  C   UNL     1       7.866   1.839  21.471  0.00  0.00    +0.004 C 
ENDBRANCH  18  19
ENDBRANCH  14  18
ENDBRANCH  12  14
ENDBRANCH   1  10
BRANCH   5  21
ATOM     21  S   UNL     1       5.033  -6.513  28.012  0.00  0.00    +0.056 S 
ATOM     22  O   UNL     1       4.390  -5.540  28.864  0.00  0.00    -0.153 OA
ATOM     23  O   UNL     1       5.922  -7.528  28.526  0.00  0.00    -0.153 OA
BRANCH  21  24
ATOM     24  N   UNL     1       3.795  -7.333  27.229  0.00  0.00    -0.204 NA
ATOM     25  H   UNL     1       3.322  -7.963  27.878  0.00  0.00    +0.144 HD
ATOM     26  H   UNL     1       4.146  -7.782  26.384  0.00  0.00    +0.144 HD
ENDBRANCH  21  24
ENDBRANCH   5  21
TORSDOF 8
ENDMDL
MODEL 5
REMARK VINA RESULT:      -6.3      3.310      5.258
REMARK  Name = 
REMARK  10 active torsions:
REMARK  status: ('A' for Active; 'I' for Inactive)
REMARK    1  A    between atoms: C_2  and  N_15
REMARK    2  A    between atoms: C_8  and  S_11
REMARK    3  A    between atoms: S_11  and  N_12
REMARK    4  A    between atoms: C_16  and  C_18
REMARK    5  A    between atoms: C_18  and  C_19
REMARK    6  A    between atoms: C_18  and  C_22
REMARK    7  A    between atoms: C_19  and  C_20
REMARK    8  A    between atoms: C_20  and  C_21
REMARK    9  A    between atoms: C_22  and  C_23
REMARK   10  A    between atoms: C_23  and  C_24
REMARK                            x       y       z     vdW  Elec       q    Type
REMARK                         _______ _______ _______ _____ _____    ______ ____
ROOT
ATOM      1  C   UNL     1      10.077   0.939  23.126  0.00  0.00    +0.082 C 
ATOM      2  C   UNL     1      10.200   0.146  24.447  0.00  0.00    +0.058 C 
ATOM      3  C   UNL     1       9.508  -1.143  24.152  0.00  0.00    -0.041 A 
ATOM      4  C   UNL     1       9.292  -2.190  25.033  0.00  0.00    +0.032 A 
ATOM      5  C   UNL     1       8.705  -3.357  24.535  0.00  0.00    +0.105 A 
ATOM      6  C   UNL     1       8.317  -3.464  23.190  0.00  0.00    +0.029 A 
ATOM      7  C   UNL     1       8.535  -2.396  22.317  0.00  0.00    +0.006 A 
ATOM      8  C   UNL     1       9.127  -1.243  22.815  0.00  0.00    -0.042 A 
ATOM      9  C   UNL     1       9.485  -0.008  22.047  0.00  0.00    +0.058 C 
ENDROOT
BRANCH   1  10
ATOM     10  N   UNL     1       9.292   2.159  23.309  0.00  0.00    -0.312 N 
ATOM     11  H   UNL     1       8.298   2.131  23.122  0.00  0.00    +0.149 HD
ATOM     12  C   UNL     1       9.906   3.383  23.466  0.00  0.00    +0.216 C 
ATOM     13  O   UNL     1      11.125   3.517  23.487  0.00  0.00    -0.276 OA
BRANCH  12  14
ATOM     14  C   UNL     1       8.937   4.548  23.687  0.00  0.00    +0.075 C 
BRANCH  14  15
ATOM     15  C   UNL     1       8.604   4.691  25.182  0.00  0.00    +0.012 C 
BRANCH  15  16
ATOM     16  C   UNL     1       9.057   6.030  25.771  0.00  0.00    -0.003 C 
ATOM     17  C   UNL     1       9.819   6.844  24.736  0.00  0.00    +0.004 C 
ENDBRANCH  15  16
ENDBRANCH  14  15
BRANCH  14  18
ATOM     18  C   UNL     1       7.679   4.270  22.833  0.00  0.00    +0.012 C 
BRANCH  18  19
ATOM     19  C   UNL     1       6.705   5.449  22.750  0.00  0.00    -0.003 C 
ATOM     20  C   UNL     1       7.290   6.610  21.959  0.00  0.00    +0.004 C 
ENDBRANCH  18  19
ENDBRANCH  14  18
ENDBRANCH  12  14
ENDBRANCH   1  10
BRANCH   5  21
ATOM     21  S   UNL     1       8.479  -4.729  25.623  0.00  0.00    +0.056 S 
ATOM     22  O   UNL     1       7.281  -5.445  25.252  0.00  0.00    -0.153 OA
ATOM     23  O   UNL     1       8.748  -4.316  26.980  0.00  0.00    -0.153 OA
BRANCH  21  24
ATOM     24  N   UNL     1       9.764  -5.712  25.173  0.00  0.00    -0.204 NA
ATOM     25  H   UNL     1       9.585  -6.133  24.261  0.00  0.00    +0.144 HD
ATOM     26  H   UNL     1       9.975  -6.379  25.914  0.00  0.00    +0.144 HD
ENDBRANCH  21  24
ENDBRANCH   5  21
TORSDOF 8
ENDMDL
MODEL 6
REMARK VINA RESULT:      -6.3      1.003      1.953
REMARK  Name = 
REMARK  10 active torsions:
REMARK  status: ('A' for Active; 'I' for Inactive)
REMARK    1  A    between atoms: C_2  and  N_15
REMARK    2  A    between atoms: C_8  and  S_11
REMARK    3  A    between atoms: S_11  and  N_12
REMARK    4  A    between atoms: C_16  and  C_18
REMARK    5  A    between atoms: C_18  and  C_19
REMARK    6  A    between atoms: C_18  and  C_22
REMARK    7  A    between atoms: C_19  and  C_20
REMARK    8  A    between atoms: C_20  and  C_21
REMARK    9  A    between atoms: C_22  and  C_23
REMARK   10  A    between atoms: C_23  and  C_24
REMARK                            x       y       z     vdW  Elec       q    Type
REMARK                         _______ _______ _______ _____ _____    ______ ____
ROOT
ATOM      1  C   UNL     1       8.411  -3.384  23.479  0.00  0.00    +0.082 C 
ATOM      2  C   UNL     1       8.507  -3.429  25.021  0.00  0.00    +0.058 C 
ATOM      3  C   UNL     1       7.339  -4.265  25.425  0.00  0.00    -0.041 A 
ATOM      4  C   UNL     1       6.941  -4.566  26.717  0.00  0.00    +0.032 A 
ATOM      5  C   UNL     1       5.870  -5.450  26.885  0.00  0.00    +0.105 A 
ATOM      6  C   UNL     1       5.193  -5.997  25.783  0.00  0.00    +0.029 A 
ATOM      7  C   UNL     1       5.603  -5.676  24.488  0.00  0.00    +0.006 A 
ATOM      8  C   UNL     1       6.673  -4.806  24.327  0.00  0.00    -0.042 A 
ATOM      9  C   UNL     1       7.294  -4.367  23.036  0.00  0.00    +0.058 C 
ENDROOT
BRANCH   1  10
ATOM     10  N   UNL     1       8.196  -2.020  22.999  0.00  0.00    -0.312 N 
ATOM     11  H   UNL     1       7.249  -1.669  22.940  0.00  0.00    +0.149 HD
ATOM     12  C   UNL     1       9.208  -1.314  22.384  0.00  0.00    +0.216 C 
ATOM     13  O   UNL     1      10.336  -1.771  22.228  0.00  0.00    -0.276 OA
BRANCH  12  14
ATOM     14  C   UNL     1       8.823   0.112  21.980  0.00  0.00    +0.075 C 
BRANCH  14  15
ATOM     15  C   UNL     1      10.056   1.030  22.023  0.00  0.00    +0.012 C 
BRANCH  15  16
ATOM     16  C   UNL     1      10.354   1.569  23.426  0.00  0.00    -0.003 C 
ATOM     17  C   UNL     1      10.648   3.061  23.379  0.00  0.00    +0.004 C 
ENDBRANCH  15  16
ENDBRANCH  14  15
BRANCH  14  18
ATOM     18  C   UNL     1       7.712   0.581  22.945  0.00  0.00    +0.012 C 
BRANCH  18  19
ATOM     19  C   UNL     1       6.780   1.645  22.358  0.00  0.00    -0.003 C 
ATOM     20  C   UNL     1       6.812   2.933  23.169  0.00  0.00    +0.004 C 
ENDBRANCH  18  19
ENDBRANCH  14  18
ENDBRANCH  12  14
ENDBRANCH   1  10
BRANCH   5  21
ATOM     21  S   UNL     1       5.385  -5.900  28.522  0.00  0.00    +0.056 S 
ATOM     22  O   UNL     1       4.009  -5.518  28.739  0.00  0.00    -0.153 OA
ATOM     23  O   UNL     1       6.440  -5.560  29.447  0.00  0.00    -0.153 OA
BRANCH  21  24
ATOM     24  N   UNL     1       5.388  -7.575  28.408  0.00  0.00    -0.204 NA
ATOM     25  H   UNL     1       6.335  -7.936  28.528  0.00  0.00    +0.144 HD
ATOM     26  H   UNL     1       4.928  -7.872  27.549  0.00  0.00    +0.144 HD
ENDBRANCH  21  24
ENDBRANCH   5  21
TORSDOF 8
ENDMDL
MODEL 7
REMARK VINA RESULT:      -6.3      2.925      3.981
REMARK  Name = 
REMARK  10 active torsions:
REMARK  status: ('A' for Active; 'I' for Inactive)
REMARK    1  A    between atoms: C_2  and  N_15
REMARK    2  A    between atoms: C_8  and  S_11
REMARK    3  A    between atoms: S_11  and  N_12
REMARK    4  A    between atoms: C_16  and  C_18
REMARK    5  A    between atoms: C_18  and  C_19
REMARK    6  A    between atoms: C_18  and  C_22
REMARK    7  A    between atoms: C_19  and  C_20
REMARK    8  A    between atoms: C_20  and  C_21
REMARK    9  A    between atoms: C_22  and  C_23
REMARK   10  A    between atoms: C_23  and  C_24
REMARK                            x       y       z     vdW  Elec       q    Type
REMARK                         _______ _______ _______ _____ _____    ______ ____
ROOT
ATOM      1  C   UNL     1       8.894  -1.359  24.704  0.00  0.00    +0.082 C 
ATOM      2  C   UNL     1       7.382  -1.495  24.989  0.00  0.00    +0.058 C 
ATOM      3  C   UNL     1       7.045  -2.855  24.475  0.00  0.00    -0.041 A 
ATOM      4  C   UNL     1       5.792  -3.444  24.444  0.00  0.00    +0.032 A 
ATOM      5  C   UNL     1       5.699  -4.770  24.010  0.00  0.00    +0.105 A 
ATOM      6  C   UNL     1       6.834  -5.482  23.588  0.00  0.00    +0.029 A 
ATOM      7  C   UNL     1       8.088  -4.870  23.619  0.00  0.00    +0.006 A 
ATOM      8  C   UNL     1       8.175  -3.556  24.061  0.00  0.00    -0.042 A 
ATOM      9  C   UNL     1       9.419  -2.734  24.211  0.00  0.00    +0.058 C 
ENDROOT
BRANCH   1  10
ATOM     10  N   UNL     1       9.163  -0.273  23.763  0.00  0.00    -0.312 N 
ATOM     11  H   UNL     1       8.682  -0.271  22.872  0.00  0.00    +0.149 HD
ATOM     12  C   UNL     1      10.230   0.580  23.945  0.00  0.00    +0.216 C 
ATOM     13  O   UNL     1      10.991   0.495  24.903  0.00  0.00    -0.276 OA
BRANCH  12  14
ATOM     14  C   UNL     1      10.340   1.683  22.889  0.00  0.00    +0.075 C 
BRANCH  14  15
ATOM     15  C   UNL     1      10.251   3.068  23.552  0.00  0.00    +0.012 C 
BRANCH  15  16
ATOM     16  C   UNL     1      11.499   3.925  23.320  0.00  0.00    -0.003 C 
ATOM     17  C   UNL     1      11.217   5.385  23.641  0.00  0.00    +0.004 C 
ENDBRANCH  15  16
ENDBRANCH  14  15
BRANCH  14  18
ATOM     18  C   UNL     1       9.209   1.453  21.862  0.00  0.00    +0.012 C 
BRANCH  18  19
ATOM     19  C   UNL     1       8.106   2.515  21.896  0.00  0.00    -0.003 C 
ATOM     20  C   UNL     1       6.775   1.931  22.347  0.00  0.00    +0.004 C 
ENDBRANCH  18  19
ENDBRANCH  14  18
ENDBRANCH  12  14
ENDBRANCH   1  10
BRANCH   5  21
ATOM     21  S   UNL     1       4.123  -5.564  24.023  0.00  0.00    +0.056 S 
ATOM     22  O   UNL     1       3.378  -5.175  22.848  0.00  0.00    -0.153 OA
ATOM     23  O   UNL     1       3.563  -5.501  25.352  0.00  0.00    -0.153 OA
BRANCH  21  24
ATOM     24  N   UNL     1       4.567  -7.165  23.781  0.00  0.00    -0.204 NA
ATOM     25  H   UNL     1       5.474  -7.214  23.317  0.00  0.00    +0.144 HD
ATOM     26  H   UNL     1       3.820  -7.671  23.306  0.00  0.00    +0.144 HD
ENDBRANCH  21  24
ENDBRANCH   5  21
TORSDOF 8
ENDMDL
MODEL 8
REMARK VINA RESULT:      -6.1      4.125      6.556
REMARK  Name = 
REMARK  10 active torsions:
REMARK  status: ('A' for Active; 'I' for Inactive)
REMARK    1  A    between atoms: C_2  and  N_15
REMARK    2  A    between atoms: C_8  and  S_11
REMARK    3  A    between atoms: S_11  and  N_12
REMARK    4  A    between atoms: C_16  and  C_18
REMARK    5  A    between atoms: C_18  and  C_19
REMARK    6  A    between atoms: C_18  and  C_22
REMARK    7  A    between atoms: C_19  and  C_20
REMARK    8  A    between atoms: C_20  and  C_21
REMARK    9  A    between atoms: C_22  and  C_23
REMARK   10  A    between atoms: C_23  and  C_24
REMARK                            x       y       z     vdW  Elec       q    Type
REMARK                         _______ _______ _______ _____ _____    ______ ____
ROOT
ATOM      1  C   UNL     1      10.435   2.592  23.207  0.00  0.00    +0.082 C 
ATOM      2  C   UNL     1      10.329   1.600  24.387  0.00  0.00    +0.058 C 
ATOM      3  C   UNL     1       9.847   0.340  23.748  0.00  0.00    -0.041 A 
ATOM      4  C   UNL     1       9.537  -0.849  24.387  0.00  0.00    +0.032 A 
ATOM      5  C   UNL     1       9.193  -1.950  23.597  0.00  0.00    +0.105 A 
ATOM      6  C   UNL     1       9.131  -1.854  22.197  0.00  0.00    +0.029 A 
ATOM      7  C   UNL     1       9.439  -0.646  21.570  0.00  0.00    +0.006 A 
ATOM      8  C   UNL     1       9.791   0.441  22.360  0.00  0.00    -0.042 A 
ATOM      9  C   UNL     1      10.196   1.805  21.890  0.00  0.00    +0.058 C 
ENDROOT
BRANCH   1  10
ATOM     10  N   UNL     1       9.517   3.718  23.375  0.00  0.00    -0.312 N 
ATOM     11  H   UNL     1       8.553   3.606  23.090  0.00  0.00    +0.149 HD
ATOM     12  C   UNL     1       9.986   4.983  23.655  0.00  0.00    +0.216 C 
ATOM     13  O   UNL     1      11.178   5.232  23.801  0.00  0.00    -0.276 OA
BRANCH  12  14
ATOM     14  C   UNL     1       8.888   6.034  23.839  0.00  0.00    +0.075 C 
BRANCH  14  15
ATOM     15  C   UNL     1       8.483   6.130  25.320  0.00  0.00    +0.012 C 
BRANCH  15  16
ATOM     16  C   UNL     1       7.187   5.379  25.637  0.00  0.00    -0.003 C 
ATOM     17  C   UNL     1       7.484   4.068  26.351  0.00  0.00    +0.004 C 
ENDBRANCH  15  16
ENDBRANCH  14  15
BRANCH  14  18
ATOM     18  C   UNL     1       7.703   5.627  22.935  0.00  0.00    +0.012 C 
BRANCH  18  19
ATOM     19  C   UNL     1       7.161   6.762  22.063  0.00  0.00    -0.003 C 
ATOM     20  C   UNL     1       5.693   7.045  22.353  0.00  0.00    +0.004 C 
ENDBRANCH  18  19
ENDBRANCH  14  18
ENDBRANCH  12  14
ENDBRANCH   1  10
BRANCH   5  21
ATOM     21  S   UNL     1       8.856  -3.494  24.384  0.00  0.00    +0.056 S 
ATOM     22  O   UNL     1      10.091  -4.224  24.560  0.00  0.00    -0.153 OA
ATOM     23  O   UNL     1       7.681  -4.089  23.795  0.00  0.00    -0.153 OA
BRANCH  21  24
ATOM     24  N   UNL     1       8.399  -2.981  25.916  0.00  0.00    -0.204 NA
ATOM     25  H   UNL     1       9.217  -2.898  26.520  0.00  0.00    +0.144 HD
ATOM     26  H   UNL     1       7.660  -3.579  26.283  0.00  0.00    +0.144 HD
ENDBRANCH  21  24
ENDBRANCH   5  21
TORSDOF 8
ENDMDL
MODEL 9
REMARK VINA RESULT:      -6.1      4.751      8.943
REMARK  Name = 
REMARK  10 active torsions:
REMARK  status: ('A' for Active; 'I' for Inactive)
REMARK    1  A    between atoms: C_2  and  N_15
REMARK    2  A    between atoms: C_8  and  S_11
REMARK    3  A    between atoms: S_11  and  N_12
REMARK    4  A    between atoms: C_16  and  C_18
REMARK    5  A    between atoms: C_18  and  C_19
REMARK    6  A    between atoms: C_18  and  C_22
REMARK    7  A    between atoms: C_19  and  C_20
REMARK    8  A    between atoms: C_20  and  C_21
REMARK    9  A    between atoms: C_22  and  C_23
REMARK   10  A    between atoms: C_23  and  C_24
REMARK                            x       y       z     vdW  Elec       q    Type
REMARK                         _______ _______ _______ _____ _____    ______ ____
ROOT
ATOM      1  C   UNL     1       9.327   0.132  22.198  0.00  0.00    +0.082 C 
ATOM      2  C   UNL     1       8.278   1.077  21.572  0.00  0.00    +0.058 C 
ATOM      3  C   UNL     1       8.394   2.324  22.384  0.00  0.00    -0.041 A 
ATOM      4  C   UNL     1       7.626   3.470  22.261  0.00  0.00    +0.032 A 
ATOM      5  C   UNL     1       7.956   4.571  23.057  0.00  0.00    +0.105 A 
ATOM      6  C   UNL     1       9.014   4.516  23.978  0.00  0.00    +0.029 A 
ATOM      7  C   UNL     1       9.774   3.350  24.094  0.00  0.00    +0.006 A 
ATOM      8  C   UNL     1       9.447   2.263  23.294  0.00  0.00    -0.042 A 
ATOM      9  C   UNL     1      10.153   0.943  23.232  0.00  0.00    +0.058 C 
ENDROOT
BRANCH   1  10
ATOM     10  N   UNL     1       8.697  -1.055  22.775  0.00  0.00    -0.312 N 
ATOM     11  H   UNL     1       7.773  -0.968  23.178  0.00  0.00    +0.149 HD
ATOM     12  C   UNL     1       9.424  -2.200  23.018  0.00  0.00    +0.216 C 
ATOM     13  O   UNL     1      10.617  -2.299  22.748  0.00  0.00    -0.276 OA
BRANCH  12  14
ATOM     14  C   UNL     1       8.600  -3.359  23.586  0.00  0.00    +0.075 C 
BRANCH  14  15
ATOM     15  C   UNL     1       7.537  -3.807  22.568  0.00  0.00    +0.012 C 
BRANCH  15  16
ATOM     16  C   UNL     1       7.046  -5.238  22.805  0.00  0.00    -0.003 C 
ATOM     17  C   UNL     1       6.697  -5.913  21.487  0.00  0.00    +0.004 C 
ENDBRANCH  15  16
ENDBRANCH  14  15
BRANCH  14  18
ATOM     18  C   UNL     1       7.972  -2.873  24.911  0.00  0.00    +0.012 C 
BRANCH  18  19
ATOM     19  C   UNL     1       8.603  -3.485  26.165  0.00  0.00    -0.003 C 
ATOM     20  C   UNL     1       8.102  -4.901  26.416  0.00  0.00    +0.004 C 
ENDBRANCH  18  19
ENDBRANCH  14  18
ENDBRANCH  12  14
ENDBRANCH   1  10
BRANCH   5  21
ATOM     21  S   UNL     1       7.033   6.064  22.872  0.00  0.00    +0.056 S 
ATOM     22  O   UNL     1       7.639   7.107  23.667  0.00  0.00    -0.153 OA
ATOM     23  O   UNL     1       5.621   5.768  22.928  0.00  0.00    -0.153 OA
BRANCH  21  24
ATOM     24  N   UNL     1       7.363   6.450  21.271  0.00  0.00    -0.204 NA
ATOM     25  H   UNL     1       6.594   6.155  20.670  0.00  0.00    +0.144 HD
ATOM     26  H   UNL     1       8.276   6.086  21.001  0.00  0.00    +0.144 HD
ENDBRANCH  21  24
ENDBRANCH   5  21
TORSDOF 8
ENDMDL
