MODEL 1
REMARK VINA RESULT:      -6.3      0.000      0.000
REMARK  Name = 
REMARK  3 active torsions:
REMARK  status: ('A' for Active; 'I' for Inactive)
REMARK    1  A    between atoms: C_1  and  C_2
REMARK    2  A    between atoms: C_2  and  C_3
REMARK    3  A    between atoms: C_3  and  C_11
REMARK                            x       y       z     vdW  Elec       q    Type
REMARK                         _______ _______ _______ _____ _____    ______ ____
ROOT
ATOM      1  C   UNL     1       8.159  -3.394  25.107  0.00  0.00    +0.072 C 
ATOM      2  C   UNL     1       8.985  -4.664  25.435  0.00  0.00    +0.230 C 
ATOM      3  O   UNL     1      10.139  -4.862  25.063  0.00  0.00    -0.274 OA
ATOM      4  N   UNL     1       8.363  -5.627  26.191  0.00  0.00    -0.256 N 
ATOM      5  H   UNL     1       8.952  -6.427  26.394  0.00  0.00    +0.157 HD
ATOM      6  C   UNL     1       7.437  -5.378  27.172  0.00  0.00    +0.219 C 
ATOM      7  O   UNL     1       7.283  -6.150  28.113  0.00  0.00    -0.275 OA
ATOM      8  C   UNL     1       6.610  -4.130  27.009  0.00  0.00    +0.097 C 
ATOM      9  C   UNL     1       7.459  -3.001  26.438  0.00  0.00    +0.030 C 
ENDROOT
BRANCH   1  10
ATOM     10  C   UNL     1       9.063  -2.267  24.542  0.00  0.00    -0.032 A 
ATOM     11  C   UNL     1       9.556  -2.355  23.222  0.00  0.00    +0.004 A 
ATOM     12  C   UNL     1      10.235  -1.293  22.620  0.00  0.00    +0.000 A 
ATOM     13  C   UNL     1      10.475  -0.129  23.336  0.00  0.00    +0.000 A 
ATOM     14  C   UNL     1      10.065  -0.042  24.662  0.00  0.00    +0.000 A 
ATOM     15  C   UNL     1       9.371  -1.099  25.262  0.00  0.00    +0.004 A 
ENDBRANCH   1  10
BRANCH   1  17
ATOM     16  C   UNL     1       6.042  -2.703  23.762  0.00  0.00    +0.005 C 
ATOM     17  C   UNL     1       7.096  -3.779  24.022  0.00  0.00    +0.017 C 
ENDBRANCH   1  17
TORSDOF 2
ENDMDL
MODEL 2
REMARK VINA RESULT:      -6.2      0.182      1.214
REMARK  Name = 
REMARK  3 active torsions:
REMARK  status: ('A' for Active; 'I' for Inactive)
REMARK    1  A    between atoms: C_1  and  C_2
REMARK    2  A    between atoms: C_2  and  C_3
REMARK    3  A    between atoms: C_3  and  C_11
REMARK                            x       y       z     vdW  Elec       q    Type
REMARK                         _______ _______ _______ _____ _____    ______ ____
ROOT
ATOM      1  C   UNL     1       7.977  -3.411  25.050  0.00  0.00    +0.072 C 
ATOM      2  C   UNL     1       8.879  -4.622  25.397  0.00  0.00    +0.230 C 
ATOM      3  O   UNL     1      10.038  -4.762  25.015  0.00  0.00    -0.274 OA
ATOM      4  N   UNL     1       8.323  -5.601  26.184  0.00  0.00    -0.256 N 
ATOM      5  H   UNL     1       8.960  -6.360  26.398  0.00  0.00    +0.157 HD
ATOM      6  C   UNL     1       7.396  -5.382  27.170  0.00  0.00    +0.219 C 
ATOM      7  O   UNL     1       7.298  -6.139  28.132  0.00  0.00    -0.275 OA
ATOM      8  C   UNL     1       6.496  -4.188  26.989  0.00  0.00    +0.097 C 
ATOM      9  C   UNL     1       7.271  -3.026  26.380  0.00  0.00    +0.030 C 
ENDROOT
BRANCH   1  10
ATOM     10  C   UNL     1       8.807  -2.247  24.446  0.00  0.00    -0.032 A 
ATOM     11  C   UNL     1       9.140  -1.132  25.245  0.00  0.00    +0.004 A 
ATOM     12  C   UNL     1      10.018  -0.143  24.794  0.00  0.00    +0.000 A 
ATOM     13  C   UNL     1      10.555  -0.223  23.517  0.00  0.00    +0.000 A 
ATOM     14  C   UNL     1      10.188  -1.273  22.682  0.00  0.00    +0.000 A 
ATOM     15  C   UNL     1       9.321  -2.272  23.138  0.00  0.00    +0.004 A 
ENDBRANCH   1  10
BRANCH   1  17
ATOM     16  C   UNL     1       5.834  -2.857  23.683  0.00  0.00    +0.005 C 
ATOM     17  C   UNL     1       6.925  -3.882  23.989  0.00  0.00    +0.017 C 
ENDBRANCH   1  17
TORSDOF 2
ENDMDL
MODEL 3
REMARK VINA RESULT:      -5.9      1.817      2.471
REMARK  Name = 
REMARK  3 active torsions:
REMARK  status: ('A' for Active; 'I' for Inactive)
REMARK    1  A    between atoms: C_1  and  C_2
REMARK    2  A    between atoms: C_2  and  C_3
REMARK    3  A    between atoms: C_3  and  C_11
REMARK                            x       y       z     vdW  Elec       q    Type
REMARK                         _______ _______ _______ _____ _____    ______ ____
ROOT
ATOM      1  C   UNL     1       8.790  -1.365  24.298  0.00  0.00    +0.072 C 
ATOM      2  C   UNL     1       9.628  -2.627  23.974  0.00  0.00    +0.230 C 
ATOM      3  O   UNL     1      10.542  -2.668  23.154  0.00  0.00    -0.274 OA
ATOM      4  N   UNL     1       9.307  -3.774  24.658  0.00  0.00    -0.256 N 
ATOM      5  H   UNL     1       9.897  -4.565  24.425  0.00  0.00    +0.157 HD
ATOM      6  C   UNL     1       8.839  -3.814  25.947  0.00  0.00    +0.219 C 
ATOM      7  O   UNL     1       9.029  -4.792  26.664  0.00  0.00    -0.275 OA
ATOM      8  C   UNL     1       8.063  -2.611  26.414  0.00  0.00    +0.097 C 
ATOM      9  C   UNL     1       8.671  -1.334  25.847  0.00  0.00    +0.030 C 
ENDROOT
BRANCH   1  10
ATOM     10  C   UNL     1       9.451  -0.088  23.715  0.00  0.00    -0.032 A 
ATOM     11  C   UNL     1       9.331   0.202  22.339  0.00  0.00    +0.004 A 
ATOM     12  C   UNL     1       9.768   1.416  21.804  0.00  0.00    +0.000 A 
ATOM     13  C   UNL     1      10.374   2.357  22.624  0.00  0.00    +0.000 A 
ATOM     14  C   UNL     1      10.571   2.068  23.971  0.00  0.00    +0.000 A 
ATOM     15  C   UNL     1      10.120   0.859  24.511  0.00  0.00    +0.004 A 
ENDBRANCH   1  10
BRANCH   1  17
ATOM     16  C   UNL     1       6.343  -0.509  24.082  0.00  0.00    +0.005 C 
ATOM     17  C   UNL     1       7.377  -1.544  23.644  0.00  0.00    +0.017 C 
ENDBRANCH   1  17
TORSDOF 2
ENDMDL
MODEL 4
REMARK VINA RESULT:      -5.7      3.227      4.105
REMARK  Name = 
REMARK  3 active torsions:
REMARK  status: ('A' for Active; 'I' for Inactive)
REMARK    1  A    between atoms: C_1  and  C_2
REMARK    2  A    between atoms: C_2  and  C_3
REMARK    3  A    between atoms: C_3  and  C_11
REMARK                            x       y       z     vdW  Elec       q    Type
REMARK                         _______ _______ _______ _____ _____    ______ ____
ROOT
ATOM      1  C   UNL     1       8.147  -1.441  23.436  0.00  0.00    +0.072 C 
ATOM      2  C   UNL     1       6.657  -1.057  23.620  0.00  0.00    +0.230 C 
ATOM      3  O   UNL     1       6.254   0.073  23.884  0.00  0.00    -0.274 OA
ATOM      4  N   UNL     1       5.737  -2.067  23.478  0.00  0.00    -0.256 N 
ATOM      5  H   UNL     1       4.777  -1.761  23.587  0.00  0.00    +0.157 HD
ATOM      6  C   UNL     1       5.867  -3.133  22.624  0.00  0.00    +0.219 C 
ATOM      7  O   UNL     1       4.883  -3.709  22.170  0.00  0.00    -0.275 OA
ATOM      8  C   UNL     1       7.274  -3.566  22.305  0.00  0.00    +0.097 C 
ATOM      9  C   UNL     1       8.187  -2.353  22.179  0.00  0.00    +0.030 C 
ENDROOT
BRANCH   1  10
ATOM     10  C   UNL     1       9.039  -0.179  23.298  0.00  0.00    -0.032 A 
ATOM     11  C   UNL     1       9.229   0.413  22.030  0.00  0.00    +0.004 A 
ATOM     12  C   UNL     1       9.886   1.637  21.884  0.00  0.00    +0.000 A 
ATOM     13  C   UNL     1      10.407   2.282  22.997  0.00  0.00    +0.000 A 
ATOM     14  C   UNL     1      10.298   1.686  24.249  0.00  0.00    +0.000 A 
ATOM     15  C   UNL     1       9.626   0.468  24.400  0.00  0.00    +0.004 A 
ENDBRANCH   1  10
BRANCH   1  17
ATOM     16  C   UNL     1       9.745  -3.219  24.462  0.00  0.00    +0.005 C 
ATOM     17  C   UNL     1       8.598  -2.239  24.707  0.00  0.00    +0.017 C 
ENDBRANCH   1  17
TORSDOF 2
ENDMDL
MODEL 5
REMARK VINA RESULT:      -5.5      2.668      3.483
REMARK  Name = 
REMARK  3 active torsions:
REMARK  status: ('A' for Active; 'I' for Inactive)
REMARK    1  A    between atoms: C_1  and  C_2
REMARK    2  A    between atoms: C_2  and  C_3
REMARK    3  A    between atoms: C_3  and  C_11
REMARK                            x       y       z     vdW  Elec       q    Type
REMARK                         _______ _______ _______ _____ _____    ______ ____
ROOT
ATOM      1  C   UNL     1       7.448  -3.600  23.734  0.00  0.00    +0.072 C 
ATOM      2  C   UNL     1       6.033  -2.988  23.890  0.00  0.00    +0.230 C 
ATOM      3  O   UNL     1       5.804  -1.794  24.071  0.00  0.00    -0.274 OA
ATOM      4  N   UNL     1       4.972  -3.857  23.823  0.00  0.00    -0.256 N 
ATOM      5  H   UNL     1       4.069  -3.405  23.910  0.00  0.00    +0.157 HD
ATOM      6  C   UNL     1       4.933  -4.990  23.050  0.00  0.00    +0.219 C 
ATOM      7  O   UNL     1       3.870  -5.445  22.640  0.00  0.00    -0.275 OA
ATOM      8  C   UNL     1       6.256  -5.649  22.763  0.00  0.00    +0.097 C 
ATOM      9  C   UNL     1       7.338  -4.598  22.547  0.00  0.00    +0.030 C 
ENDROOT
BRANCH   1  10
ATOM     10  C   UNL     1       8.514  -2.498  23.503  0.00  0.00    -0.032 A 
ATOM     11  C   UNL     1       8.831  -2.089  22.190  0.00  0.00    +0.004 A 
ATOM     12  C   UNL     1       9.661  -0.993  21.942  0.00  0.00    +0.000 A 
ATOM     13  C   UNL     1      10.230  -0.301  23.002  0.00  0.00    +0.000 A 
ATOM     14  C   UNL     1       9.993  -0.726  24.306  0.00  0.00    +0.000 A 
ATOM     15  C   UNL     1       9.149  -1.815  24.555  0.00  0.00    +0.004 A 
ENDBRANCH   1  10
BRANCH   1  17
ATOM     16  C   UNL     1       9.032  -5.248  24.976  0.00  0.00    +0.005 C 
ATOM     17  C   UNL     1       7.790  -4.363  25.060  0.00  0.00    +0.017 C 
ENDBRANCH   1  17
TORSDOF 2
ENDMDL
MODEL 6
REMARK VINA RESULT:      -5.4      2.283      5.280
REMARK  Name = 
REMARK  3 active torsions:
REMARK  status: ('A' for Active; 'I' for Inactive)
REMARK    1  A    between atoms: C_1  and  C_2
REMARK    2  A    between atoms: C_2  and  C_3
REMARK    3  A    between atoms: C_3  and  C_11
REMARK                            x       y       z     vdW  Elec       q    Type
REMARK                         _______ _______ _______ _____ _____    ______ ____
ROOT
ATOM      1  C   UNL     1       7.385  -3.558  24.296  0.00  0.00    +0.072 C 
ATOM      2  C   UNL     1       8.876  -3.893  24.554  0.00  0.00    +0.230 C 
ATOM      3  O   UNL     1       9.275  -4.905  25.125  0.00  0.00    -0.274 OA
ATOM      4  N   UNL     1       9.801  -2.980  24.110  0.00  0.00    -0.256 N 
ATOM      5  H   UNL     1      10.760  -3.256  24.285  0.00  0.00    +0.157 HD
ATOM      6  C   UNL     1       9.660  -2.203  22.988  0.00  0.00    +0.219 C 
ATOM      7  O   UNL     1      10.638  -1.796  22.369  0.00  0.00    -0.275 OA
ATOM      8  C   UNL     1       8.250  -1.860  22.585  0.00  0.00    +0.097 C 
ATOM      9  C   UNL     1       7.324  -3.045  22.830  0.00  0.00    +0.030 C 
ENDROOT
BRANCH   1  10
ATOM     10  C   UNL     1       6.480  -4.794  24.543  0.00  0.00    -0.032 A 
ATOM     11  C   UNL     1       6.236  -5.235  25.862  0.00  0.00    +0.004 A 
ATOM     12  C   UNL     1       5.304  -6.237  26.139  0.00  0.00    +0.000 A 
ATOM     13  C   UNL     1       4.620  -6.855  25.102  0.00  0.00    +0.000 A 
ATOM     14  C   UNL     1       4.893  -6.491  23.787  0.00  0.00    +0.000 A 
ATOM     15  C   UNL     1       5.816  -5.476  23.509  0.00  0.00    +0.004 A 
ENDBRANCH   1  10
BRANCH   1  17
ATOM     16  C   UNL     1       5.590  -1.820  25.021  0.00  0.00    +0.005 C 
ATOM     17  C   UNL     1       6.968  -2.422  25.291  0.00  0.00    +0.017 C 
ENDBRANCH   1  17
TORSDOF 2
ENDMDL
MODEL 7
REMARK VINA RESULT:      -5.4      2.766      4.939
REMARK  Name = 
REMARK  3 active torsions:
REMARK  status: ('A' for Active; 'I' for Inactive)
REMARK    1  A    between atoms: C_1  and  C_2
REMARK    2  A    between atoms: C_2  and  C_3
REMARK    3  A    between atoms: C_3  and  C_11
REMARK                            x       y       z     vdW  Elec       q    Type
REMARK                         _______ _______ _______ _____ _____    ______ ____
ROOT
ATOM      1  C   UNL     1       8.263  -3.213  24.346  0.00  0.00    +0.072 C 
ATOM      2  C   UNL     1       8.874  -2.250  23.298  0.00  0.00    +0.230 C 
ATOM      3  O   UNL     1       8.745  -2.367  22.082  0.00  0.00    -0.274 OA
ATOM      4  N   UNL     1       9.614  -1.199  23.782  0.00  0.00    -0.256 N 
ATOM      5  H   UNL     1       9.974  -0.587  23.058  0.00  0.00    +0.157 HD
ATOM      6  C   UNL     1       9.371  -0.547  24.964  0.00  0.00    +0.219 C 
ATOM      7  O   UNL     1       9.699   0.625  25.124  0.00  0.00    -0.275 OA
ATOM      8  C   UNL     1       8.712  -1.355  26.051  0.00  0.00    +0.097 C 
ATOM      9  C   UNL     1       7.673  -2.298  25.455  0.00  0.00    +0.030 C 
ENDROOT
BRANCH   1  10
ATOM     10  C   UNL     1       7.202  -4.144  23.702  0.00  0.00    -0.032 A 
ATOM     11  C   UNL     1       5.836  -3.791  23.746  0.00  0.00    +0.004 A 
ATOM     12  C   UNL     1       4.869  -4.512  23.042  0.00  0.00    +0.000 A 
ATOM     13  C   UNL     1       5.236  -5.631  22.306  0.00  0.00    +0.000 A 
ATOM     14  C   UNL     1       6.565  -6.044  22.304  0.00  0.00    +0.000 A 
ATOM     15  C   UNL     1       7.537  -5.313  22.996  0.00  0.00    +0.004 A 
ENDBRANCH   1  10
BRANCH   1  17
ATOM     16  C   UNL     1       9.064  -4.851  26.202  0.00  0.00    +0.005 C 
ATOM     17  C   UNL     1       9.422  -4.095  24.923  0.00  0.00    +0.017 C 
ENDBRANCH   1  17
TORSDOF 2
ENDMDL
MODEL 8
REMARK VINA RESULT:      -5.4      3.093      5.157
REMARK  Name = 
REMARK  3 active torsions:
REMARK  status: ('A' for Active; 'I' for Inactive)
REMARK    1  A    between atoms: C_1  and  C_2
REMARK    2  A    between atoms: C_2  and  C_3
REMARK    3  A    between atoms: C_3  and  C_11
REMARK                            x       y       z     vdW  Elec       q    Type
REMARK                         _______ _______ _______ _____ _____    ______ ____
ROOT
ATOM      1  C   UNL     1       8.617  -1.535  24.017  0.00  0.00    +0.072 C 
ATOM      2  C   UNL     1       9.998  -1.246  23.375  0.00  0.00    +0.230 C 
ATOM      3  O   UNL     1      10.566  -1.987  22.578  0.00  0.00    -0.274 OA
ATOM      4  N   UNL     1      10.616  -0.075  23.741  0.00  0.00    -0.256 N 
ATOM      5  H   UNL     1      11.505   0.077  23.278  0.00  0.00    +0.157 HD
ATOM      6  C   UNL     1       9.965   1.092  24.051  0.00  0.00    +0.219 C 
ATOM      7  O   UNL     1      10.503   2.184  23.890  0.00  0.00    -0.275 OA
ATOM      8  C   UNL     1       8.578   0.953  24.622  0.00  0.00    +0.097 C 
ATOM      9  C   UNL     1       7.837  -0.192  23.944  0.00  0.00    +0.030 C 
ENDROOT
BRANCH   1  10
ATOM     10  C   UNL     1       7.892  -2.697  23.289  0.00  0.00    -0.032 A 
ATOM     11  C   UNL     1       8.174  -4.034  23.643  0.00  0.00    +0.004 A 
ATOM     12  C   UNL     1       7.431  -5.101  23.131  0.00  0.00    +0.000 A 
ATOM     13  C   UNL     1       6.413  -4.862  22.219  0.00  0.00    +0.000 A 
ATOM     14  C   UNL     1       6.161  -3.560  21.797  0.00  0.00    +0.000 A 
ATOM     15  C   UNL     1       6.894  -2.490  22.321  0.00  0.00    +0.004 A 
ENDBRANCH   1  10
BRANCH   1  17
ATOM     16  C   UNL     1       7.595  -1.970  26.369  0.00  0.00    +0.005 C 
ATOM     17  C   UNL     1       8.857  -1.947  25.509  0.00  0.00    +0.017 C 
ENDBRANCH   1  17
TORSDOF 2
ENDMDL
MODEL 9
REMARK VINA RESULT:      -5.3      3.005      5.275
REMARK  Name = 
REMARK  3 active torsions:
REMARK  status: ('A' for Active; 'I' for Inactive)
REMARK    1  A    between atoms: C_1  and  C_2
REMARK    2  A    between atoms: C_2  and  C_3
REMARK    3  A    between atoms: C_3  and  C_11
REMARK                            x       y       z     vdW  Elec       q    Type
REMARK                         _______ _______ _______ _____ _____    ______ ____
ROOT
ATOM      1  C   UNL     1       8.306  -1.641  23.640  0.00  0.00    +0.072 C 
ATOM      2  C   UNL     1       8.700  -0.321  24.350  0.00  0.00    +0.230 C 
ATOM      3  O   UNL     1       8.773  -0.178  25.568  0.00  0.00    -0.274 OA
ATOM      4  N   UNL     1       8.980   0.755  23.544  0.00  0.00    -0.256 N 
ATOM      5  H   UNL     1       9.252   1.587  24.055  0.00  0.00    +0.157 HD
ATOM      6  C   UNL     1       9.556   0.676  22.301  0.00  0.00    +0.219 C 
ATOM      7  O   UNL     1      10.217   1.604  21.845  0.00  0.00    -0.275 OA
ATOM      8  C   UNL     1       9.308  -0.593  21.528  0.00  0.00    +0.097 C 
ATOM      9  C   UNL     1       9.312  -1.795  22.465  0.00  0.00    +0.030 C 
ENDROOT
BRANCH   1  10
ATOM     10  C   UNL     1       8.337  -2.839  24.625  0.00  0.00    -0.032 A 
ATOM     11  C   UNL     1       9.390  -3.777  24.560  0.00  0.00    +0.004 A 
ATOM     12  C   UNL     1       9.545  -4.774  25.526  0.00  0.00    +0.000 A 
ATOM     13  C   UNL     1       8.627  -4.885  26.561  0.00  0.00    +0.000 A 
ATOM     14  C   UNL     1       7.538  -4.020  26.609  0.00  0.00    +0.000 A 
ATOM     15  C   UNL     1       7.390  -3.011  25.650  0.00  0.00    +0.004 A 
ENDBRANCH   1  10
BRANCH   1  17
ATOM     16  C   UNL     1       6.313  -2.693  22.341  0.00  0.00    +0.005 C 
ATOM     17  C   UNL     1       6.847  -1.475  23.093  0.00  0.00    +0.017 C 
ENDBRANCH   1  17
TORSDOF 2
ENDMDL
