MODEL 1
REMARK VINA RESULT:      -6.9      0.000      0.000
REMARK  Name = 
REMARK  5 active torsions:
REMARK  status: ('A' for Active; 'I' for Inactive)
REMARK    1  A    between atoms: C_1  and  N_2
REMARK    2  A    between atoms: C_4  and  C_5
REMARK    3  A    between atoms: C_5  and  C_6
REMARK    4  A    between atoms: C_6  and  O_7
REMARK    5  A    between atoms: C_11  and  C_19
REMARK                            x       y       z     vdW  Elec       q    Type
REMARK                         _______ _______ _______ _____ _____    ______ ____
ROOT
ATOM      1  C   UNL     1       3.954  -0.510  27.250  0.00  0.00    +0.149 C 
ATOM      2  N   UNL     1       4.511  -1.834  27.418  0.00  0.00    -0.349 N 
ATOM      3  C   UNL     1       5.565  -2.347  26.691  0.00  0.00    +0.050 A 
ATOM      4  C   UNL     1       6.272  -1.858  25.592  0.00  0.00    +0.035 A 
ATOM      5  C   UNL     1       7.470  -2.488  25.179  0.00  0.00    -0.001 A 
ATOM      6  C   UNL     1       7.759  -3.708  25.849  0.00  0.00    +0.060 A 
ATOM      7  C   UNL     1       8.888  -4.599  25.692  0.00  0.00    +0.260 A 
ATOM      8  O   UNL     1       9.970  -4.521  25.122  0.00  0.00    -0.267 OA
ATOM      9  N   UNL     1       8.553  -5.700  26.428  0.00  0.00    -0.289 N 
ATOM     10  H   UNL     1       9.186  -6.473  26.528  0.00  0.00    +0.172 HD
ATOM     11  C   UNL     1       7.483  -5.561  27.257  0.00  0.00    +0.260 A 
ATOM     12  O   UNL     1       7.197  -6.390  28.109  0.00  0.00    -0.267 OA
ATOM     13  C   UNL     1       6.938  -4.300  26.867  0.00  0.00    +0.062 A 
ATOM     14  C   UNL     1       5.839  -3.534  27.311  0.00  0.00    +0.016 A 
ATOM     15  C   UNL     1       4.966  -3.845  28.358  0.00  0.00    -0.019 A 
ATOM     16  C   UNL     1       4.141  -2.723  28.401  0.00  0.00    +0.090 A 
ENDROOT
BRANCH   5  17
ATOM     17  C   UNL     1       8.334  -1.899  24.110  0.00  0.00    +0.001 A 
ATOM     18  C   UNL     1       8.205  -2.199  22.724  0.00  0.00    +0.049 A 
ATOM     19 CL   UNL     1       6.969  -3.227  22.058  0.00  0.00    -0.083 Cl
ATOM     20  C   UNL     1       9.060  -1.638  21.758  0.00  0.00    +0.020 A 
ATOM     21  C   UNL     1      10.021  -0.705  22.118  0.00  0.00    +0.001 A 
ATOM     22  C   UNL     1      10.173  -0.381  23.456  0.00  0.00    +0.001 A 
ATOM     23  C   UNL     1       9.381  -1.008  24.431  0.00  0.00    +0.010 A 
ENDBRANCH   5  17
BRANCH  15  24
ATOM     24  C   UNL     1       4.825  -5.015  29.284  0.00  0.00    +0.065 C 
BRANCH  24  25
ATOM     25  C   UNL     1       3.896  -6.106  28.750  0.00  0.00    +0.160 C 
BRANCH  25  26
ATOM     26  O   UNL     1       4.499  -7.398  28.855  0.00  0.00    -0.395 OA
ATOM     27  H   UNL     1       4.524  -7.763  27.952  0.00  0.00    +0.209 HD
ENDBRANCH  25  26
ENDBRANCH  24  25
ENDBRANCH  15  24
TORSDOF 4
ENDMDL
MODEL 2
REMARK VINA RESULT:      -6.7      2.890      3.991
REMARK  Name = 
REMARK  5 active torsions:
REMARK  status: ('A' for Active; 'I' for Inactive)
REMARK    1  A    between atoms: C_1  and  N_2
REMARK    2  A    between atoms: C_4  and  C_5
REMARK    3  A    between atoms: C_5  and  C_6
REMARK    4  A    between atoms: C_6  and  O_7
REMARK    5  A    between atoms: C_11  and  C_19
REMARK                            x       y       z     vdW  Elec       q    Type
REMARK                         _______ _______ _______ _____ _____    ______ ____
ROOT
ATOM      1  C   UNL     1       6.098  -5.508  20.868  0.00  0.00    +0.149 C 
ATOM      2  N   UNL     1       6.147  -5.312  22.301  0.00  0.00    -0.349 N 
ATOM      3  C   UNL     1       6.624  -4.181  22.929  0.00  0.00    +0.050 A 
ATOM      4  C   UNL     1       7.263  -3.039  22.445  0.00  0.00    +0.035 A 
ATOM      5  C   UNL     1       7.443  -1.914  23.285  0.00  0.00    -0.001 A 
ATOM      6  C   UNL     1       7.091  -2.129  24.645  0.00  0.00    +0.060 A 
ATOM      7  C   UNL     1       7.134  -1.211  25.763  0.00  0.00    +0.260 A 
ATOM      8  O   UNL     1       7.292  -0.002  25.875  0.00  0.00    -0.267 OA
ATOM      9  N   UNL     1       6.881  -1.996  26.852  0.00  0.00    -0.289 N 
ATOM     10  H   UNL     1       6.812  -1.602  27.774  0.00  0.00    +0.172 HD
ATOM     11  C   UNL     1       6.422  -3.249  26.592  0.00  0.00    +0.260 A 
ATOM     12  O   UNL     1       5.972  -3.982  27.462  0.00  0.00    -0.267 OA
ATOM     13  C   UNL     1       6.589  -3.364  25.178  0.00  0.00    +0.062 A 
ATOM     14  C   UNL     1       6.311  -4.385  24.243  0.00  0.00    +0.016 A 
ATOM     15  C   UNL     1       5.721  -5.625  24.504  0.00  0.00    -0.019 A 
ATOM     16  C   UNL     1       5.621  -6.180  23.230  0.00  0.00    +0.090 A 
ENDROOT
BRANCH   5  17
ATOM     17  C   UNL     1       7.979  -0.622  22.757  0.00  0.00    +0.001 A 
ATOM     18  C   UNL     1       9.348  -0.396  22.439  0.00  0.00    +0.049 A 
ATOM     19 CL   UNL     1      10.587  -1.612  22.536  0.00  0.00    -0.083 Cl
ATOM     20  C   UNL     1       9.807   0.848  21.968  0.00  0.00    +0.020 A 
ATOM     21  C   UNL     1       8.920   1.885  21.724  0.00  0.00    +0.001 A 
ATOM     22  C   UNL     1       7.577   1.701  22.013  0.00  0.00    +0.001 A 
ATOM     23  C   UNL     1       7.132   0.492  22.568  0.00  0.00    +0.010 A 
ENDBRANCH   5  17
BRANCH  15  24
ATOM     24  C   UNL     1       5.255  -6.315  25.749  0.00  0.00    +0.065 C 
BRANCH  24  25
ATOM     25  C   UNL     1       3.768  -6.671  25.729  0.00  0.00    +0.160 C 
BRANCH  25  26
ATOM     26  O   UNL     1       3.568  -8.049  25.408  0.00  0.00    -0.395 OA
ATOM     27  H   UNL     1       2.855  -8.367  25.991  0.00  0.00    +0.209 HD
ENDBRANCH  25  26
ENDBRANCH  24  25
ENDBRANCH  15  24
TORSDOF 4
ENDMDL
MODEL 3
REMARK VINA RESULT:      -6.6      3.857      7.042
REMARK  Name = 
REMARK  5 active torsions:
REMARK  status: ('A' for Active; 'I' for Inactive)
REMARK    1  A    between atoms: C_1  and  N_2
REMARK    2  A    between atoms: C_4  and  C_5
REMARK    3  A    between atoms: C_5  and  C_6
REMARK    4  A    between atoms: C_6  and  O_7
REMARK    5  A    between atoms: C_11  and  C_19
REMARK                            x       y       z     vdW  Elec       q    Type
REMARK                         _______ _______ _______ _____ _____    ______ ____
ROOT
ATOM      1  C   UNL     1       6.570   2.495  27.363  0.00  0.00    +0.149 C 
ATOM      2  N   UNL     1       7.449   2.450  26.215  0.00  0.00    -0.349 N 
ATOM      3  C   UNL     1       7.902   1.295  25.611  0.00  0.00    +0.050 A 
ATOM      4  C   UNL     1       7.780  -0.051  25.953  0.00  0.00    +0.035 A 
ATOM      5  C   UNL     1       8.148  -1.057  25.028  0.00  0.00    -0.001 A 
ATOM      6  C   UNL     1       8.790  -0.575  23.855  0.00  0.00    +0.060 A 
ATOM      7  C   UNL     1       9.283  -1.308  22.708  0.00  0.00    +0.260 A 
ATOM      8  O   UNL     1       9.159  -2.459  22.307  0.00  0.00    -0.267 OA
ATOM      9  N   UNL     1       9.975  -0.378  21.987  0.00  0.00    -0.289 N 
ATOM     10  H   UNL     1      10.397  -0.610  21.105  0.00  0.00    +0.172 HD
ATOM     11  C   UNL     1       9.796   0.919  22.355  0.00  0.00    +0.260 A 
ATOM     12  O   UNL     1      10.193   1.858  21.680  0.00  0.00    -0.267 OA
ATOM     13  C   UNL     1       9.068   0.806  23.579  0.00  0.00    +0.062 A 
ATOM     14  C   UNL     1       8.542   1.746  24.491  0.00  0.00    +0.016 A 
ATOM     15  C   UNL     1       8.586   3.139  24.381  0.00  0.00    -0.019 A 
ATOM     16  C   UNL     1       7.861   3.549  25.497  0.00  0.00    +0.090 A 
ENDROOT
BRANCH   5  17
ATOM     17  C   UNL     1       7.883  -2.503  25.299  0.00  0.00    +0.001 A 
ATOM     18  C   UNL     1       6.807  -3.239  24.726  0.00  0.00    +0.049 A 
ATOM     19 CL   UNL     1       5.693  -2.590  23.559  0.00  0.00    -0.083 Cl
ATOM     20  C   UNL     1       6.584  -4.593  25.033  0.00  0.00    +0.020 A 
ATOM     21  C   UNL     1       7.459  -5.287  25.857  0.00  0.00    +0.001 A 
ATOM     22  C   UNL     1       8.523  -4.608  26.429  0.00  0.00    +0.001 A 
ATOM     23  C   UNL     1       8.693  -3.235  26.195  0.00  0.00    +0.010 A 
ENDBRANCH   5  17
BRANCH  15  24
ATOM     24  C   UNL     1       9.195   4.087  23.392  0.00  0.00    +0.065 C 
BRANCH  24  25
ATOM     25  C   UNL     1      10.567   4.612  23.817  0.00  0.00    +0.160 C 
BRANCH  25  26
ATOM     26  O   UNL     1      11.601   4.108  22.969  0.00  0.00    -0.395 OA
ATOM     27  H   UNL     1      11.759   3.187  23.245  0.00  0.00    +0.209 HD
ENDBRANCH  25  26
ENDBRANCH  24  25
ENDBRANCH  15  24
TORSDOF 4
ENDMDL
MODEL 4
REMARK VINA RESULT:      -6.4      3.494      5.057
REMARK  Name = 
REMARK  5 active torsions:
REMARK  status: ('A' for Active; 'I' for Inactive)
REMARK    1  A    between atoms: C_1  and  N_2
REMARK    2  A    between atoms: C_4  and  C_5
REMARK    3  A    between atoms: C_5  and  C_6
REMARK    4  A    between atoms: C_6  and  O_7
REMARK    5  A    between atoms: C_11  and  C_19
REMARK                            x       y       z     vdW  Elec       q    Type
REMARK                         _______ _______ _______ _____ _____    ______ ____
ROOT
ATOM      1  C   UNL     1       4.233  -1.960  26.087  0.00  0.00    +0.149 C 
ATOM      2  N   UNL     1       5.473  -2.274  25.411  0.00  0.00    -0.349 N 
ATOM      3  C   UNL     1       6.380  -1.343  24.952  0.00  0.00    +0.050 A 
ATOM      4  C   UNL     1       6.339   0.050  24.880  0.00  0.00    +0.035 A 
ATOM      5  C   UNL     1       7.512   0.781  24.571  0.00  0.00    -0.001 A 
ATOM      6  C   UNL     1       8.622  -0.017  24.184  0.00  0.00    +0.060 A 
ATOM      7  C   UNL     1       9.963   0.387  23.818  0.00  0.00    +0.260 A 
ATOM      8  O   UNL     1      10.593   1.435  23.891  0.00  0.00    -0.267 OA
ATOM      9  N   UNL     1      10.543  -0.757  23.350  0.00  0.00    -0.289 N 
ATOM     10  H   UNL     1      11.504  -0.773  23.059  0.00  0.00    +0.172 HD
ATOM     11  C   UNL     1       9.868  -1.912  23.595  0.00  0.00    +0.260 A 
ATOM     12  O   UNL     1      10.360  -3.016  23.411  0.00  0.00    -0.267 OA
ATOM     13  C   UNL     1       8.612  -1.449  24.095  0.00  0.00    +0.062 A 
ATOM     14  C   UNL     1       7.446  -2.099  24.554  0.00  0.00    +0.016 A 
ATOM     15  C   UNL     1       7.242  -3.477  24.668  0.00  0.00    -0.019 A 
ATOM     16  C   UNL     1       5.971  -3.544  25.235  0.00  0.00    +0.090 A 
ENDROOT
BRANCH   5  17
ATOM     17  C   UNL     1       7.542   2.274  24.642  0.00  0.00    +0.001 A 
ATOM     18  C   UNL     1       7.563   3.127  23.503  0.00  0.00    +0.049 A 
ATOM     19 CL   UNL     1       7.468   2.564  21.860  0.00  0.00    -0.083 Cl
ATOM     20  C   UNL     1       7.617   4.528  23.622  0.00  0.00    +0.020 A 
ATOM     21  C   UNL     1       7.577   5.136  24.868  0.00  0.00    +0.001 A 
ATOM     22  C   UNL     1       7.549   4.340  26.002  0.00  0.00    +0.001 A 
ATOM     23  C   UNL     1       7.586   2.942  25.886  0.00  0.00    +0.010 A 
ENDBRANCH   5  17
BRANCH  15  24
ATOM     24  C   UNL     1       8.064  -4.684  24.329  0.00  0.00    +0.065 C 
BRANCH  24  25
ATOM     25  C   UNL     1       8.810  -5.269  25.529  0.00  0.00    +0.160 C 
BRANCH  25  26
ATOM     26  O   UNL     1      10.195  -5.463  25.234  0.00  0.00    -0.395 OA
ATOM     27  H   UNL     1      10.443  -6.319  25.627  0.00  0.00    +0.209 HD
ENDBRANCH  25  26
ENDBRANCH  24  25
ENDBRANCH  15  24
TORSDOF 4
ENDMDL
MODEL 5
REMARK VINA RESULT:      -6.4      3.062      3.582
REMARK  Name = 
REMARK  5 active torsions:
REMARK  status: ('A' for Active; 'I' for Inactive)
REMARK    1  A    between atoms: C_1  and  N_2
REMARK    2  A    between atoms: C_4  and  C_5
REMARK    3  A    between atoms: C_5  and  C_6
REMARK    4  A    between atoms: C_6  and  O_7
REMARK    5  A    between atoms: C_11  and  C_19
REMARK                            x       y       z     vdW  Elec       q    Type
REMARK                         _______ _______ _______ _____ _____    ______ ____
ROOT
ATOM      1  C   UNL     1       4.443  -1.710  27.977  0.00  0.00    +0.149 C 
ATOM      2  N   UNL     1       4.453  -2.387  26.699  0.00  0.00    -0.349 N 
ATOM      3  C   UNL     1       5.305  -2.093  25.655  0.00  0.00    +0.050 A 
ATOM      4  C   UNL     1       6.240  -1.075  25.466  0.00  0.00    +0.035 A 
ATOM      5  C   UNL     1       7.153  -1.138  24.386  0.00  0.00    -0.001 A 
ATOM      6  C   UNL     1       6.908  -2.192  23.465  0.00  0.00    +0.060 A 
ATOM      7  C   UNL     1       7.638  -2.559  22.270  0.00  0.00    +0.260 A 
ATOM      8  O   UNL     1       8.719  -2.237  21.793  0.00  0.00    -0.267 OA
ATOM      9  N   UNL     1       6.854  -3.505  21.675  0.00  0.00    -0.289 N 
ATOM     10  H   UNL     1       7.145  -3.968  20.832  0.00  0.00    +0.172 HD
ATOM     11  C   UNL     1       5.841  -4.005  22.432  0.00  0.00    +0.260 A 
ATOM     12  O   UNL     1       5.192  -4.987  22.101  0.00  0.00    -0.267 OA
ATOM     13  C   UNL     1       5.838  -3.143  23.571  0.00  0.00    +0.062 A 
ATOM     14  C   UNL     1       5.063  -3.088  24.750  0.00  0.00    +0.016 A 
ATOM     15  C   UNL     1       4.046  -3.969  25.128  0.00  0.00    -0.019 A 
ATOM     16  C   UNL     1       3.694  -3.492  26.389  0.00  0.00    +0.090 A 
ENDROOT
BRANCH   5  17
ATOM     17  C   UNL     1       8.267  -0.150  24.247  0.00  0.00    +0.001 A 
ATOM     18  C   UNL     1       8.187   1.037  23.466  0.00  0.00    +0.049 A 
ATOM     19 CL   UNL     1       6.755   1.561  22.628  0.00  0.00    -0.083 Cl
ATOM     20  C   UNL     1       9.273   1.924  23.345  0.00  0.00    +0.020 A 
ATOM     21  C   UNL     1      10.447   1.706  24.050  0.00  0.00    +0.001 A 
ATOM     22  C   UNL     1      10.561   0.565  24.828  0.00  0.00    +0.001 A 
ATOM     23  C   UNL     1       9.512  -0.365  24.877  0.00  0.00    +0.010 A 
ENDBRANCH   5  17
BRANCH  15  24
ATOM     24  C   UNL     1       3.399  -5.154  24.479  0.00  0.00    +0.065 C 
BRANCH  24  25
ATOM     25  C   UNL     1       4.004  -6.491  24.910  0.00  0.00    +0.160 C 
BRANCH  25  26
ATOM     26  O   UNL     1       4.089  -7.401  23.811  0.00  0.00    -0.395 OA
ATOM     27  H   UNL     1       3.254  -7.903  23.805  0.00  0.00    +0.209 HD
ENDBRANCH  25  26
ENDBRANCH  24  25
ENDBRANCH  15  24
TORSDOF 4
ENDMDL
MODEL 6
REMARK VINA RESULT:      -6.3      4.499      6.413
REMARK  Name = 
REMARK  5 active torsions:
REMARK  status: ('A' for Active; 'I' for Inactive)
REMARK    1  A    between atoms: C_1  and  N_2
REMARK    2  A    between atoms: C_4  and  C_5
REMARK    3  A    between atoms: C_5  and  C_6
REMARK    4  A    between atoms: C_6  and  O_7
REMARK    5  A    between atoms: C_11  and  C_19
REMARK                            x       y       z     vdW  Elec       q    Type
REMARK                         _______ _______ _______ _____ _____    ______ ____
ROOT
ATOM      1  C   UNL     1      10.139  -1.173  21.820  0.00  0.00    +0.149 C 
ATOM      2  N   UNL     1       9.660  -1.065  23.181  0.00  0.00    -0.349 N 
ATOM      3  C   UNL     1       9.246   0.104  23.783  0.00  0.00    +0.050 A 
ATOM      4  C   UNL     1       9.276   1.435  23.365  0.00  0.00    +0.035 A 
ATOM      5  C   UNL     1       8.569   2.424  24.091  0.00  0.00    -0.001 A 
ATOM      6  C   UNL     1       8.015   1.974  25.319  0.00  0.00    +0.060 A 
ATOM      7  C   UNL     1       7.231   2.700  26.297  0.00  0.00    +0.260 A 
ATOM      8  O   UNL     1       6.672   3.789  26.310  0.00  0.00    -0.267 OA
ATOM      9  N   UNL     1       7.141   1.844  27.357  0.00  0.00    -0.289 N 
ATOM     10  H   UNL     1       6.608   2.082  28.175  0.00  0.00    +0.172 HD
ATOM     11  C   UNL     1       7.529   0.562  27.125  0.00  0.00    +0.260 A 
ATOM     12  O   UNL     1       7.318  -0.346  27.917  0.00  0.00    -0.267 OA
ATOM     13  C   UNL     1       8.130   0.638  25.832  0.00  0.00    +0.062 A 
ATOM     14  C   UNL     1       8.730  -0.312  24.978  0.00  0.00    +0.016 A 
ATOM     15  C   UNL     1       8.857  -1.686  25.206  0.00  0.00    -0.019 A 
ATOM     16  C   UNL     1       9.444  -2.131  24.024  0.00  0.00    +0.090 A 
ENDROOT
BRANCH   5  17
ATOM     17  C   UNL     1       8.448   3.826  23.585  0.00  0.00    +0.001 A 
ATOM     18  C   UNL     1       7.412   4.275  22.719  0.00  0.00    +0.049 A 
ATOM     19 CL   UNL     1       6.083   3.285  22.190  0.00  0.00    -0.083 Cl
ATOM     20  C   UNL     1       7.356   5.600  22.249  0.00  0.00    +0.020 A 
ATOM     21  C   UNL     1       8.277   6.544  22.678  0.00  0.00    +0.001 A 
ATOM     22  C   UNL     1       9.297   6.148  23.528  0.00  0.00    +0.001 A 
ATOM     23  C   UNL     1       9.407   4.806  23.924  0.00  0.00    +0.010 A 
ENDBRANCH   5  17
BRANCH  15  24
ATOM     24  C   UNL     1       8.502  -2.589  26.348  0.00  0.00    +0.065 C 
BRANCH  24  25
ATOM     25  C   UNL     1       8.622  -4.075  26.010  0.00  0.00    +0.160 C 
BRANCH  25  26
ATOM     26  O   UNL     1       9.303  -4.790  27.044  0.00  0.00    -0.395 OA
ATOM     27  H   UNL     1       8.841  -5.642  27.139  0.00  0.00    +0.209 HD
ENDBRANCH  25  26
ENDBRANCH  24  25
ENDBRANCH  15  24
TORSDOF 4
ENDMDL
MODEL 7
REMARK VINA RESULT:      -6.3      2.974      3.524
REMARK  Name = 
REMARK  5 active torsions:
REMARK  status: ('A' for Active; 'I' for Inactive)
REMARK    1  A    between atoms: C_1  and  N_2
REMARK    2  A    between atoms: C_4  and  C_5
REMARK    3  A    between atoms: C_5  and  C_6
REMARK    4  A    between atoms: C_6  and  O_7
REMARK    5  A    between atoms: C_11  and  C_19
REMARK                            x       y       z     vdW  Elec       q    Type
REMARK                         _______ _______ _______ _____ _____    ______ ____
ROOT
ATOM      1  C   UNL     1       4.461  -1.586  27.870  0.00  0.00    +0.149 C 
ATOM      2  N   UNL     1       4.874  -2.516  26.842  0.00  0.00    -0.349 N 
ATOM      3  C   UNL     1       5.585  -2.179  25.709  0.00  0.00    +0.050 A 
ATOM      4  C   UNL     1       5.977  -0.949  25.180  0.00  0.00    +0.035 A 
ATOM      5  C   UNL     1       6.904  -0.897  24.112  0.00  0.00    -0.001 A 
ATOM      6  C   UNL     1       7.230  -2.161  23.549  0.00  0.00    +0.060 A 
ATOM      7  C   UNL     1       8.139  -2.481  22.469  0.00  0.00    +0.260 A 
ATOM      8  O   UNL     1       8.996  -1.857  21.855  0.00  0.00    -0.267 OA
ATOM      9  N   UNL     1       7.910  -3.804  22.218  0.00  0.00    -0.289 N 
ATOM     10  H   UNL     1       8.444  -4.303  21.529  0.00  0.00    +0.172 HD
ATOM     11  C   UNL     1       7.171  -4.469  23.146  0.00  0.00    +0.260 A 
ATOM     12  O   UNL     1       7.058  -5.686  23.151  0.00  0.00    -0.267 OA
ATOM     13  C   UNL     1       6.693  -3.418  23.987  0.00  0.00    +0.062 A 
ATOM     14  C   UNL     1       5.885  -3.387  25.144  0.00  0.00    +0.016 A 
ATOM     15  C   UNL     1       5.342  -4.483  25.820  0.00  0.00    -0.019 A 
ATOM     16  C   UNL     1       4.715  -3.881  26.909  0.00  0.00    +0.090 A 
ENDROOT
BRANCH   5  17
ATOM     17  C   UNL     1       7.466   0.401  23.628  0.00  0.00    +0.001 A 
ATOM     18  C   UNL     1       8.722   0.930  24.039  0.00  0.00    +0.049 A 
ATOM     19 CL   UNL     1       9.830   0.106  25.098  0.00  0.00    -0.083 Cl
ATOM     20  C   UNL     1       9.196   2.171  23.575  0.00  0.00    +0.020 A 
ATOM     21  C   UNL     1       8.482   2.894  22.631  0.00  0.00    +0.001 A 
ATOM     22  C   UNL     1       7.257   2.409  22.200  0.00  0.00    +0.001 A 
ATOM     23  C   UNL     1       6.742   1.217  22.731  0.00  0.00    +0.010 A 
ENDBRANCH   5  17
BRANCH  15  24
ATOM     24  C   UNL     1       5.347  -5.962  25.578  0.00  0.00    +0.065 C 
BRANCH  24  25
ATOM     25  C   UNL     1       4.159  -6.448  24.746  0.00  0.00    +0.160 C 
BRANCH  25  26
ATOM     26  O   UNL     1       4.571  -7.393  23.756  0.00  0.00    -0.395 OA
ATOM     27  H   UNL     1       4.546  -8.268  24.184  0.00  0.00    +0.209 HD
ENDBRANCH  25  26
ENDBRANCH  24  25
ENDBRANCH  15  24
TORSDOF 4
ENDMDL
MODEL 8
REMARK VINA RESULT:      -6.0      3.817      6.170
REMARK  Name = 
REMARK  5 active torsions:
REMARK  status: ('A' for Active; 'I' for Inactive)
REMARK    1  A    between atoms: C_1  and  N_2
REMARK    2  A    between atoms: C_4  and  C_5
REMARK    3  A    between atoms: C_5  and  C_6
REMARK    4  A    between atoms: C_6  and  O_7
REMARK    5  A    between atoms: C_11  and  C_19
REMARK                            x       y       z     vdW  Elec       q    Type
REMARK                         _______ _______ _______ _____ _____    ______ ____
ROOT
ATOM      1  C   UNL     1       9.585   1.437  21.914  0.00  0.00    +0.149 C 
ATOM      2  N   UNL     1       8.477   1.447  22.843  0.00  0.00    -0.349 N 
ATOM      3  C   UNL     1       7.693   0.355  23.151  0.00  0.00    +0.050 A 
ATOM      4  C   UNL     1       7.637  -0.936  22.626  0.00  0.00    +0.035 A 
ATOM      5  C   UNL     1       6.889  -1.941  23.285  0.00  0.00    -0.001 A 
ATOM      6  C   UNL     1       6.099  -1.474  24.371  0.00  0.00    +0.060 A 
ATOM      7  C   UNL     1       5.232  -2.213  25.263  0.00  0.00    +0.260 A 
ATOM      8  O   UNL     1       5.046  -3.403  25.489  0.00  0.00    -0.267 OA
ATOM      9  N   UNL     1       4.579  -1.247  25.974  0.00  0.00    -0.289 N 
ATOM     10  H   UNL     1       3.933  -1.485  26.706  0.00  0.00    +0.172 HD
ATOM     11  C   UNL     1       5.074   0.015  25.863  0.00  0.00    +0.260 A 
ATOM     12  O   UNL     1       4.716   0.931  26.589  0.00  0.00    -0.267 OA
ATOM     13  C   UNL     1       6.027  -0.108  24.805  0.00  0.00    +0.062 A 
ATOM     14  C   UNL     1       6.910   0.798  24.180  0.00  0.00    +0.016 A 
ATOM     15  C   UNL     1       7.102   2.145  24.503  0.00  0.00    -0.019 A 
ATOM     16  C   UNL     1       8.124   2.517  23.633  0.00  0.00    +0.090 A 
ENDROOT
BRANCH   5  17
ATOM     17  C   UNL     1       6.936  -3.367  22.841  0.00  0.00    +0.001 A 
ATOM     18  C   UNL     1       7.734  -4.370  23.460  0.00  0.00    +0.049 A 
ATOM     19 CL   UNL     1       8.707  -4.107  24.878  0.00  0.00    -0.083 Cl
ATOM     20  C   UNL     1       7.764  -5.695  22.989  0.00  0.00    +0.020 A 
ATOM     21  C   UNL     1       6.950  -6.092  21.938  0.00  0.00    +0.001 A 
ATOM     22  C   UNL     1       6.152  -5.147  21.313  0.00  0.00    +0.001 A 
ATOM     23  C   UNL     1       6.190  -3.806  21.725  0.00  0.00    +0.010 A 
ENDBRANCH   5  17
BRANCH  15  24
ATOM     24  C   UNL     1       6.472   3.078  25.492  0.00  0.00    +0.065 C 
BRANCH  24  25
ATOM     25  C   UNL     1       7.292   3.256  26.770  0.00  0.00    +0.160 C 
BRANCH  25  26
ATOM     26  O   UNL     1       7.478   2.011  27.445  0.00  0.00    -0.395 OA
ATOM     27  H   UNL     1       6.908   2.038  28.235  0.00  0.00    +0.209 HD
ENDBRANCH  25  26
ENDBRANCH  24  25
ENDBRANCH  15  24
TORSDOF 4
ENDMDL
MODEL 9
REMARK VINA RESULT:      -5.9      2.959      3.197
REMARK  Name = 
REMARK  5 active torsions:
REMARK  status: ('A' for Active; 'I' for Inactive)
REMARK    1  A    between atoms: C_1  and  N_2
REMARK    2  A    between atoms: C_4  and  C_5
REMARK    3  A    between atoms: C_5  and  C_6
REMARK    4  A    between atoms: C_6  and  O_7
REMARK    5  A    between atoms: C_11  and  C_19
REMARK                            x       y       z     vdW  Elec       q    Type
REMARK                         _______ _______ _______ _____ _____    ______ ____
ROOT
ATOM      1  C   UNL     1       3.312  -1.320  27.033  0.00  0.00    +0.149 C 
ATOM      2  N   UNL     1       3.209  -2.573  26.318  0.00  0.00    -0.349 N 
ATOM      3  C   UNL     1       4.135  -3.043  25.410  0.00  0.00    +0.050 A 
ATOM      4  C   UNL     1       5.275  -2.467  24.850  0.00  0.00    +0.035 A 
ATOM      5  C   UNL     1       6.183  -3.260  24.108  0.00  0.00    -0.001 A 
ATOM      6  C   UNL     1       5.738  -4.586  23.854  0.00  0.00    +0.060 A 
ATOM      7  C   UNL     1       6.403  -5.661  23.148  0.00  0.00    +0.260 A 
ATOM      8  O   UNL     1       7.542  -5.839  22.733  0.00  0.00    -0.267 OA
ATOM      9  N   UNL     1       5.448  -6.629  23.033  0.00  0.00    -0.289 N 
ATOM     10  H   UNL     1       5.654  -7.518  22.611  0.00  0.00    +0.172 HD
ATOM     11  C   UNL     1       4.328  -6.457  23.786  0.00  0.00    +0.260 A 
ATOM     12  O   UNL     1       3.489  -7.334  23.931  0.00  0.00    -0.267 OA
ATOM     13  C   UNL     1       4.482  -5.129  24.288  0.00  0.00    +0.062 A 
ATOM     14  C   UNL     1       3.706  -4.312  25.138  0.00  0.00    +0.016 A 
ATOM     15  C   UNL     1       2.509  -4.658  25.772  0.00  0.00    -0.019 A 
ATOM     16  C   UNL     1       2.234  -3.521  26.530  0.00  0.00    +0.090 A 
ENDROOT
BRANCH   5  17
ATOM     17  C   UNL     1       7.490  -2.713  23.632  0.00  0.00    +0.001 A 
ATOM     18  C   UNL     1       8.737  -2.947  24.278  0.00  0.00    +0.049 A 
ATOM     19 CL   UNL     1       8.939  -3.974  25.667  0.00  0.00    -0.083 Cl
ATOM     20  C   UNL     1       9.937  -2.387  23.805  0.00  0.00    +0.020 A 
ATOM     21  C   UNL     1       9.959  -1.641  22.636  0.00  0.00    +0.001 A 
ATOM     22  C   UNL     1       8.767  -1.397  21.973  0.00  0.00    +0.001 A 
ATOM     23  C   UNL     1       7.557  -1.879  22.494  0.00  0.00    +0.010 A 
ENDBRANCH   5  17
BRANCH  15  24
ATOM     24  C   UNL     1       1.636  -5.876  25.757  0.00  0.00    +0.065 C 
BRANCH  24  25
ATOM     25  C   UNL     1       1.869  -6.807  26.948  0.00  0.00    +0.160 C 
BRANCH  25  26
ATOM     26  O   UNL     1       2.270  -8.109  26.518  0.00  0.00    -0.395 OA
ATOM     27  H   UNL     1       2.354  -8.651  27.324  0.00  0.00    +0.209 HD
ENDBRANCH  25  26
ENDBRANCH  24  25
ENDBRANCH  15  24
TORSDOF 4
ENDMDL
