MODEL 1
REMARK VINA RESULT:      -6.1      0.000      0.000
REMARK  Name = 
REMARK  6 active torsions:
REMARK  status: ('A' for Active; 'I' for Inactive)
REMARK    1  A    between atoms: C_2  and  C_3
REMARK    2  A    between atoms: C_3  and  C_4
REMARK    3  A    between atoms: C_6  and  O_8
REMARK    4  A    between atoms: O_8  and  C_9
REMARK    5  A    between atoms: C_9  and  C_10
REMARK    6  A    between atoms: C_9  and  C_11
REMARK                            x       y       z     vdW  Elec       q    Type
REMARK                         _______ _______ _______ _____ _____    ______ ____
ROOT
ATOM      1  C   UNL     1       8.651  -2.853  25.476  0.00  0.00    +0.170 C 
ATOM      2  C   UNL     1       8.574  -4.305  25.967  0.00  0.00    +0.238 C 
ATOM      3  O   UNL     1       9.069  -4.680  27.029  0.00  0.00    -0.273 OA
ATOM      4  N   UNL     1       7.707  -5.120  25.282  0.00  0.00    -0.282 N 
ATOM      5  H   UNL     1       7.511  -6.022  25.696  0.00  0.00    +0.155 HD
ATOM      6  C   UNL     1       7.163  -4.766  24.044  0.00  0.00    +0.055 A 
ATOM      7  C   UNL     1       7.635  -3.632  23.360  0.00  0.00    +0.064 A 
ATOM      8  C   UNL     1       7.132  -3.355  22.085  0.00  0.00    +0.063 A 
ATOM      9  C   UNL     1       6.158  -4.178  21.530  0.00  0.00    +0.125 A 
ATOM     10  C   UNL     1       5.675  -5.289  22.214  0.00  0.00    +0.040 A 
ATOM     11  F   UNL     1       5.664  -3.890  20.319  0.00  0.00    -0.205 F 
ATOM     12  C   UNL     1       6.188  -5.595  23.472  0.00  0.00    +0.028 A 
ATOM     13  N   UNL     1       8.603  -2.790  24.000  0.00  0.00    -0.224 N 
ATOM     14  C   UNL     1       9.513  -2.036  23.262  0.00  0.00    +0.408 C 
ATOM     15  O   UNL     1       9.706  -2.162  22.058  0.00  0.00    -0.226 OA
ENDROOT
BRANCH   1  16
ATOM     16  C   UNL     1       7.476  -2.095  26.137  0.00  0.00    +0.029 C 
ATOM     17  C   UNL     1       7.881  -0.819  26.855  0.00  0.00    +0.006 C 
ENDBRANCH   1  16
BRANCH  14  18
ATOM     18  O   UNL     1      10.199  -1.127  24.019  0.00  0.00    -0.447 OA
BRANCH  18  19
ATOM     19  C   UNL     1      10.144   0.237  23.547  0.00  0.00    +0.172 C 
ATOM     20  C   UNL     1      11.047   1.077  24.444  0.00  0.00    +0.052 C 
ATOM     21  C   UNL     1       8.714   0.771  23.599  0.00  0.00    +0.052 C 
ENDBRANCH  18  19
ENDBRANCH  14  18
TORSDOF 3
ENDMDL
MODEL 2
REMARK VINA RESULT:      -6.0      2.863      5.561
REMARK  Name = 
REMARK  6 active torsions:
REMARK  status: ('A' for Active; 'I' for Inactive)
REMARK    1  A    between atoms: C_2  and  C_3
REMARK    2  A    between atoms: C_3  and  C_4
REMARK    3  A    between atoms: C_6  and  O_8
REMARK    4  A    between atoms: O_8  and  C_9
REMARK    5  A    between atoms: C_9  and  C_10
REMARK    6  A    between atoms: C_9  and  C_11
REMARK                            x       y       z     vdW  Elec       q    Type
REMARK                         _______ _______ _______ _____ _____    ______ ____
ROOT
ATOM      1  C   UNL     1       6.369  -5.228  24.218  0.00  0.00    +0.170 C 
ATOM      2  C   UNL     1       6.872  -5.358  22.773  0.00  0.00    +0.238 C 
ATOM      3  O   UNL     1       6.494  -6.246  22.010  0.00  0.00    -0.273 OA
ATOM      4  N   UNL     1       7.579  -4.286  22.290  0.00  0.00    -0.282 N 
ATOM      5  H   UNL     1       7.764  -4.276  21.295  0.00  0.00    +0.155 HD
ATOM      6  C   UNL     1       8.081  -3.281  23.121  0.00  0.00    +0.055 A 
ATOM      7  C   UNL     1       8.040  -3.431  24.519  0.00  0.00    +0.064 A 
ATOM      8  C   UNL     1       8.630  -2.448  25.320  0.00  0.00    +0.063 A 
ATOM      9  C   UNL     1       9.213  -1.331  24.732  0.00  0.00    +0.125 A 
ATOM     10  C   UNL     1       9.236  -1.172  23.350  0.00  0.00    +0.040 A 
ATOM     11  F   UNL     1       9.752  -0.383  25.509  0.00  0.00    -0.205 F 
ATOM     12  C   UNL     1       8.680  -2.156  22.537  0.00  0.00    +0.028 A 
ATOM     13  N   UNL     1       7.383  -4.578  25.074  0.00  0.00    -0.224 N 
ATOM     14  C   UNL     1       7.755  -5.104  26.309  0.00  0.00    +0.408 C 
ATOM     15  O   UNL     1       8.766  -4.784  26.924  0.00  0.00    -0.226 OA
ENDROOT
BRANCH   1  16
ATOM     16  C   UNL     1       5.045  -4.431  24.159  0.00  0.00    +0.029 C 
ATOM     17  C   UNL     1       3.831  -5.197  24.653  0.00  0.00    +0.006 C 
ENDBRANCH   1  16
BRANCH  14  18
ATOM     18  O   UNL     1       6.879  -6.041  26.782  0.00  0.00    -0.447 OA
BRANCH  18  19
ATOM     19  C   UNL     1       6.237  -5.711  28.033  0.00  0.00    +0.172 C 
ATOM     20  C   UNL     1       5.264  -6.837  28.368  0.00  0.00    +0.052 C 
ATOM     21  C   UNL     1       5.484  -4.387  27.922  0.00  0.00    +0.052 C 
ENDBRANCH  18  19
ENDBRANCH  14  18
TORSDOF 3
ENDMDL
MODEL 3
REMARK VINA RESULT:      -6.0      1.803      2.247
REMARK  Name = 
REMARK  6 active torsions:
REMARK  status: ('A' for Active; 'I' for Inactive)
REMARK    1  A    between atoms: C_2  and  C_3
REMARK    2  A    between atoms: C_3  and  C_4
REMARK    3  A    between atoms: C_6  and  O_8
REMARK    4  A    between atoms: O_8  and  C_9
REMARK    5  A    between atoms: C_9  and  C_10
REMARK    6  A    between atoms: C_9  and  C_11
REMARK                            x       y       z     vdW  Elec       q    Type
REMARK                         _______ _______ _______ _____ _____    ______ ____
ROOT
ATOM      1  C   UNL     1       8.790  -0.439  25.093  0.00  0.00    +0.170 C 
ATOM      2  C   UNL     1       8.699  -1.268  26.382  0.00  0.00    +0.238 C 
ATOM      3  O   UNL     1       8.972  -0.811  27.492  0.00  0.00    -0.273 OA
ATOM      4  N   UNL     1       8.057  -2.475  26.270  0.00  0.00    -0.282 N 
ATOM      5  H   UNL     1       7.832  -2.951  27.134  0.00  0.00    +0.155 HD
ATOM      6  C   UNL     1       7.777  -3.064  25.034  0.00  0.00    +0.055 A 
ATOM      7  C   UNL     1       8.315  -2.524  23.852  0.00  0.00    +0.064 A 
ATOM      8  C   UNL     1       8.087  -3.188  22.643  0.00  0.00    +0.063 A 
ATOM      9  C   UNL     1       7.313  -4.343  22.620  0.00  0.00    +0.125 A 
ATOM     10  C   UNL     1       6.763  -4.866  23.784  0.00  0.00    +0.040 A 
ATOM     11  F   UNL     1       7.079  -4.956  21.452  0.00  0.00    -0.205 F 
ATOM     12  C   UNL     1       7.005  -4.234  25.002  0.00  0.00    +0.028 A 
ATOM     13  N   UNL     1       9.064  -1.304  23.926  0.00  0.00    -0.224 N 
ATOM     14  C   UNL     1      10.064  -1.006  23.004  0.00  0.00    +0.408 C 
ATOM     15  O   UNL     1      10.523  -1.805  22.195  0.00  0.00    -0.226 OA
ENDROOT
BRANCH   1  16
ATOM     16  C   UNL     1       7.454   0.328  24.960  0.00  0.00    +0.029 C 
ATOM     17  C   UNL     1       7.576   1.831  25.135  0.00  0.00    +0.006 C 
ENDBRANCH   1  16
BRANCH  14  18
ATOM     18  O   UNL     1      10.508   0.284  23.088  0.00  0.00    -0.447 OA
BRANCH  18  19
ATOM     19  C   UNL     1      10.108   1.147  22.001  0.00  0.00    +0.172 C 
ATOM     20  C   UNL     1      10.169   2.586  22.502  0.00  0.00    +0.052 C 
ATOM     21  C   UNL     1       8.691   0.815  21.539  0.00  0.00    +0.052 C 
ENDBRANCH  18  19
ENDBRANCH  14  18
TORSDOF 3
ENDMDL
MODEL 4
REMARK VINA RESULT:      -5.9      2.483      3.308
REMARK  Name = 
REMARK  6 active torsions:
REMARK  status: ('A' for Active; 'I' for Inactive)
REMARK    1  A    between atoms: C_2  and  C_3
REMARK    2  A    between atoms: C_3  and  C_4
REMARK    3  A    between atoms: C_6  and  O_8
REMARK    4  A    between atoms: O_8  and  C_9
REMARK    5  A    between atoms: C_9  and  C_10
REMARK    6  A    between atoms: C_9  and  C_11
REMARK                            x       y       z     vdW  Elec       q    Type
REMARK                         _______ _______ _______ _____ _____    ______ ____
ROOT
ATOM      1  C   UNL     1       7.002  -4.399  25.564  0.00  0.00    +0.170 C 
ATOM      2  C   UNL     1       7.015  -5.552  26.578  0.00  0.00    +0.238 C 
ATOM      3  O   UNL     1       7.833  -5.627  27.496  0.00  0.00    -0.273 OA
ATOM      4  N   UNL     1       5.914  -6.370  26.565  0.00  0.00    -0.282 N 
ATOM      5  H   UNL     1       5.823  -7.020  27.335  0.00  0.00    +0.155 HD
ATOM      6  C   UNL     1       4.988  -6.365  25.519  0.00  0.00    +0.055 A 
ATOM      7  C   UNL     1       5.254  -5.647  24.339  0.00  0.00    +0.064 A 
ATOM      8  C   UNL     1       4.348  -5.734  23.278  0.00  0.00    +0.063 A 
ATOM      9  C   UNL     1       3.191  -6.495  23.413  0.00  0.00    +0.125 A 
ATOM     10  C   UNL     1       2.916  -7.189  24.586  0.00  0.00    +0.040 A 
ATOM     11  F   UNL     1       2.317  -6.550  22.400  0.00  0.00    -0.205 F 
ATOM     12  C   UNL     1       3.824  -7.136  25.642  0.00  0.00    +0.028 A 
ATOM     13  N   UNL     1       6.436  -4.838  24.272  0.00  0.00    -0.224 N 
ATOM     14  C   UNL     1       7.068  -4.572  23.059  0.00  0.00    +0.408 C 
ATOM     15  O   UNL     1       6.811  -5.138  22.003  0.00  0.00    -0.226 OA
ENDROOT
BRANCH   1  16
ATOM     16  C   UNL     1       6.189  -3.250  26.205  0.00  0.00    +0.029 C 
ATOM     17  C   UNL     1       7.022  -2.052  26.625  0.00  0.00    +0.006 C 
ENDBRANCH   1  16
BRANCH  14  18
ATOM     18  O   UNL     1       8.032  -3.608  23.155  0.00  0.00    -0.447 OA
BRANCH  18  19
ATOM     19  C   UNL     1       7.834  -2.450  22.313  0.00  0.00    +0.172 C 
ATOM     20  C   UNL     1       9.183  -1.759  22.147  0.00  0.00    +0.052 C 
ATOM     21  C   UNL     1       6.828  -1.489  22.943  0.00  0.00    +0.052 C 
ENDBRANCH  18  19
ENDBRANCH  14  18
TORSDOF 3
ENDMDL
MODEL 5
REMARK VINA RESULT:      -5.9      2.800      5.220
REMARK  Name = 
REMARK  6 active torsions:
REMARK  status: ('A' for Active; 'I' for Inactive)
REMARK    1  A    between atoms: C_2  and  C_3
REMARK    2  A    between atoms: C_3  and  C_4
REMARK    3  A    between atoms: C_6  and  O_8
REMARK    4  A    between atoms: O_8  and  C_9
REMARK    5  A    between atoms: C_9  and  C_10
REMARK    6  A    between atoms: C_9  and  C_11
REMARK                            x       y       z     vdW  Elec       q    Type
REMARK                         _______ _______ _______ _____ _____    ______ ____
ROOT
ATOM      1  C   UNL     1       7.889  -3.300  23.940  0.00  0.00    +0.170 C 
ATOM      2  C   UNL     1       9.418  -3.209  24.039  0.00  0.00    +0.238 C 
ATOM      3  O   UNL     1      10.115  -4.119  24.486  0.00  0.00    -0.273 OA
ATOM      4  N   UNL     1       9.997  -2.158  23.374  0.00  0.00    -0.282 N 
ATOM      5  H   UNL     1      11.004  -2.180  23.279  0.00  0.00    +0.155 HD
ATOM      6  C   UNL     1       9.257  -1.071  22.899  0.00  0.00    +0.055 A 
ATOM      7  C   UNL     1       7.904  -0.924  23.253  0.00  0.00    +0.064 A 
ATOM      8  C   UNL     1       7.217   0.219  22.834  0.00  0.00    +0.063 A 
ATOM      9  C   UNL     1       7.864   1.169  22.052  0.00  0.00    +0.125 A 
ATOM     10  C   UNL     1       9.196   1.015  21.682  0.00  0.00    +0.040 A 
ATOM     11  F   UNL     1       7.189   2.248  21.633  0.00  0.00    -0.205 F 
ATOM     12  C   UNL     1       9.903  -0.103  22.117  0.00  0.00    +0.028 A 
ATOM     13  N   UNL     1       7.272  -1.959  24.019  0.00  0.00    -0.224 N 
ATOM     14  C   UNL     1       6.202  -1.686  24.868  0.00  0.00    +0.408 C 
ATOM     15  O   UNL     1       5.838  -0.560  25.187  0.00  0.00    -0.226 OA
ENDROOT
BRANCH   1  16
ATOM     16  C   UNL     1       7.570  -4.018  22.608  0.00  0.00    +0.029 C 
ATOM     17  C   UNL     1       7.406  -5.523  22.733  0.00  0.00    +0.006 C 
ENDBRANCH   1  16
BRANCH  14  18
ATOM     18  O   UNL     1       5.584  -2.813  25.335  0.00  0.00    -0.447 OA
BRANCH  18  19
ATOM     19  C   UNL     1       4.236  -3.020  24.859  0.00  0.00    +0.172 C 
ATOM     20  C   UNL     1       3.309  -3.020  26.070  0.00  0.00    +0.052 C 
ATOM     21  C   UNL     1       4.123  -4.349  24.115  0.00  0.00    +0.052 C 
ENDBRANCH  18  19
ENDBRANCH  14  18
TORSDOF 3
ENDMDL
MODEL 6
REMARK VINA RESULT:      -5.8      2.389      5.121
REMARK  Name = 
REMARK  6 active torsions:
REMARK  status: ('A' for Active; 'I' for Inactive)
REMARK    1  A    between atoms: C_2  and  C_3
REMARK    2  A    between atoms: C_3  and  C_4
REMARK    3  A    between atoms: C_6  and  O_8
REMARK    4  A    between atoms: O_8  and  C_9
REMARK    5  A    between atoms: C_9  and  C_10
REMARK    6  A    between atoms: C_9  and  C_11
REMARK                            x       y       z     vdW  Elec       q    Type
REMARK                         _______ _______ _______ _____ _____    ______ ____
ROOT
ATOM      1  C   UNL     1       7.468  -4.112  25.589  0.00  0.00    +0.170 C 
ATOM      2  C   UNL     1       6.770  -3.180  26.588  0.00  0.00    +0.238 C 
ATOM      3  O   UNL     1       5.886  -3.561  27.355  0.00  0.00    -0.273 OA
ATOM      4  N   UNL     1       7.352  -1.950  26.763  0.00  0.00    -0.282 N 
ATOM      5  H   UNL     1       7.015  -1.394  27.538  0.00  0.00    +0.155 HD
ATOM      6  C   UNL     1       8.318  -1.445  25.887  0.00  0.00    +0.055 A 
ATOM      7  C   UNL     1       8.595  -2.108  24.678  0.00  0.00    +0.064 A 
ATOM      8  C   UNL     1       9.502  -1.531  23.785  0.00  0.00    +0.063 A 
ATOM      9  C   UNL     1      10.137  -0.338  24.115  0.00  0.00    +0.125 A 
ATOM     10  C   UNL     1       9.880   0.308  25.319  0.00  0.00    +0.040 A 
ATOM     11  F   UNL     1      11.024   0.193  23.264  0.00  0.00    -0.205 F 
ATOM     12  C   UNL     1       8.957  -0.239  26.207  0.00  0.00    +0.028 A 
ATOM     13  N   UNL     1       7.949  -3.360  24.411  0.00  0.00    -0.224 N 
ATOM     14  C   UNL     1       7.701  -3.788  23.109  0.00  0.00    +0.408 C 
ATOM     15  O   UNL     1       7.818  -3.084  22.112  0.00  0.00    -0.226 OA
ENDROOT
BRANCH   1  16
ATOM     16  C   UNL     1       8.617  -4.808  26.355  0.00  0.00    +0.029 C 
ATOM     17  C   UNL     1       9.785  -5.231  25.481  0.00  0.00    +0.006 C 
ENDBRANCH   1  16
BRANCH  14  18
ATOM     18  O   UNL     1       7.294  -5.091  23.038  0.00  0.00    -0.447 OA
BRANCH  18  19
ATOM     19  C   UNL     1       5.996  -5.301  22.439  0.00  0.00    +0.172 C 
ATOM     20  C   UNL     1       5.198  -6.213  23.365  0.00  0.00    +0.052 C 
ATOM     21  C   UNL     1       6.133  -5.946  21.062  0.00  0.00    +0.052 C 
ENDBRANCH  18  19
ENDBRANCH  14  18
TORSDOF 3
ENDMDL
MODEL 7
REMARK VINA RESULT:      -5.8      3.122      4.288
REMARK  Name = 
REMARK  6 active torsions:
REMARK  status: ('A' for Active; 'I' for Inactive)
REMARK    1  A    between atoms: C_2  and  C_3
REMARK    2  A    between atoms: C_3  and  C_4
REMARK    3  A    between atoms: C_6  and  O_8
REMARK    4  A    between atoms: O_8  and  C_9
REMARK    5  A    between atoms: C_9  and  C_10
REMARK    6  A    between atoms: C_9  and  C_11
REMARK                            x       y       z     vdW  Elec       q    Type
REMARK                         _______ _______ _______ _____ _____    ______ ____
ROOT
ATOM      1  C   UNL     1       8.995  -0.845  24.010  0.00  0.00    +0.170 C 
ATOM      2  C   UNL     1       9.799  -1.980  23.360  0.00  0.00    +0.238 C 
ATOM      3  O   UNL     1      10.577  -1.799  22.424  0.00  0.00    -0.273 OA
ATOM      4  N   UNL     1       9.797  -3.174  24.036  0.00  0.00    -0.282 N 
ATOM      5  H   UNL     1      10.456  -3.874  23.722  0.00  0.00    +0.155 HD
ATOM      6  C   UNL     1       8.895  -3.451  25.067  0.00  0.00    +0.055 A 
ATOM      7  C   UNL     1       7.823  -2.579  25.326  0.00  0.00    +0.064 A 
ATOM      8  C   UNL     1       6.889  -2.929  26.306  0.00  0.00    +0.063 A 
ATOM      9  C   UNL     1       7.049  -4.108  27.027  0.00  0.00    +0.125 A 
ATOM     10  C   UNL     1       8.120  -4.962  26.786  0.00  0.00    +0.040 A 
ATOM     11  F   UNL     1       6.163  -4.422  27.981  0.00  0.00    -0.205 F 
ATOM     12  C   UNL     1       9.043  -4.642  25.793  0.00  0.00    +0.028 A 
ATOM     13  N   UNL     1       7.734  -1.353  24.588  0.00  0.00    -0.224 N 
ATOM     14  C   UNL     1       6.509  -0.735  24.347  0.00  0.00    +0.408 C 
ATOM     15  O   UNL     1       5.417  -1.254  24.553  0.00  0.00    -0.226 OA
ENDROOT
BRANCH   1  16
ATOM     16  C   UNL     1       9.915  -0.200  25.073  0.00  0.00    +0.029 C 
ATOM     17  C   UNL     1      10.833   0.883  24.532  0.00  0.00    +0.006 C 
ENDBRANCH   1  16
BRANCH  14  18
ATOM     18  O   UNL     1       6.632   0.527  23.835  0.00  0.00    -0.447 OA
BRANCH  18  19
ATOM     19  C   UNL     1       6.307   1.598  24.748  0.00  0.00    +0.172 C 
ATOM     20  C   UNL     1       5.045   2.281  24.234  0.00  0.00    +0.052 C 
ATOM     21  C   UNL     1       7.452   2.606  24.829  0.00  0.00    +0.052 C 
ENDBRANCH  18  19
ENDBRANCH  14  18
TORSDOF 3
ENDMDL
MODEL 8
REMARK VINA RESULT:      -5.7      2.770      5.138
REMARK  Name = 
REMARK  6 active torsions:
REMARK  status: ('A' for Active; 'I' for Inactive)
REMARK    1  A    between atoms: C_2  and  C_3
REMARK    2  A    between atoms: C_3  and  C_4
REMARK    3  A    between atoms: C_6  and  O_8
REMARK    4  A    between atoms: O_8  and  C_9
REMARK    5  A    between atoms: C_9  and  C_10
REMARK    6  A    between atoms: C_9  and  C_11
REMARK                            x       y       z     vdW  Elec       q    Type
REMARK                         _______ _______ _______ _____ _____    ______ ____
ROOT
ATOM      1  C   UNL     1       7.195  -1.231  25.291  0.00  0.00    +0.170 C 
ATOM      2  C   UNL     1       5.850  -0.735  24.742  0.00  0.00    +0.238 C 
ATOM      3  O   UNL     1       4.766  -1.135  25.165  0.00  0.00    -0.273 OA
ATOM      4  N   UNL     1       5.910   0.364  23.923  0.00  0.00    -0.282 N 
ATOM      5  H   UNL     1       5.030   0.810  23.697  0.00  0.00    +0.155 HD
ATOM      6  C   UNL     1       7.108   0.824  23.369  0.00  0.00    +0.055 A 
ATOM      7  C   UNL     1       8.282   0.057  23.481  0.00  0.00    +0.064 A 
ATOM      8  C   UNL     1       9.442   0.502  22.841  0.00  0.00    +0.063 A 
ATOM      9  C   UNL     1       9.430   1.701  22.137  0.00  0.00    +0.125 A 
ATOM     10  C   UNL     1       8.276   2.472  22.043  0.00  0.00    +0.040 A 
ATOM     11  F   UNL     1      10.553   2.132  21.550  0.00  0.00    -0.205 F 
ATOM     12  C   UNL     1       7.104   2.027  22.650  0.00  0.00    +0.028 A 
ATOM     13  N   UNL     1       8.251  -1.147  24.260  0.00  0.00    -0.224 N 
ATOM     14  C   UNL     1       9.106  -2.212  23.988  0.00  0.00    +0.408 C 
ATOM     15  O   UNL     1       9.796  -2.309  22.979  0.00  0.00    -0.226 OA
ENDROOT
BRANCH   1  16
ATOM     16  C   UNL     1       7.514  -0.370  26.535  0.00  0.00    +0.029 C 
ATOM     17  C   UNL     1       8.863  -0.663  27.170  0.00  0.00    +0.006 C 
ENDBRANCH   1  16
BRANCH  14  18
ATOM     18  O   UNL     1       9.099  -3.172  24.962  0.00  0.00    -0.447 OA
BRANCH  18  19
ATOM     19  C   UNL     1       8.849  -4.518  24.501  0.00  0.00    +0.172 C 
ATOM     20  C   UNL     1       7.339  -4.709  24.419  0.00  0.00    +0.052 C 
ATOM     21  C   UNL     1       9.453  -5.540  25.463  0.00  0.00    +0.052 C 
ENDBRANCH  18  19
ENDBRANCH  14  18
TORSDOF 3
ENDMDL
MODEL 9
REMARK VINA RESULT:      -5.7      4.576      7.702
REMARK  Name = 
REMARK  6 active torsions:
REMARK  status: ('A' for Active; 'I' for Inactive)
REMARK    1  A    between atoms: C_2  and  C_3
REMARK    2  A    between atoms: C_3  and  C_4
REMARK    3  A    between atoms: C_6  and  O_8
REMARK    4  A    between atoms: O_8  and  C_9
REMARK    5  A    between atoms: C_9  and  C_10
REMARK    6  A    between atoms: C_9  and  C_11
REMARK                            x       y       z     vdW  Elec       q    Type
REMARK                         _______ _______ _______ _____ _____    ______ ____
ROOT
ATOM      1  C   UNL     1       7.608   2.455  24.117  0.00  0.00    +0.170 C 
ATOM      2  C   UNL     1       6.929   3.818  23.923  0.00  0.00    +0.238 C 
ATOM      3  O   UNL     1       5.709   3.972  23.977  0.00  0.00    -0.273 OA
ATOM      4  N   UNL     1       7.764   4.906  23.933  0.00  0.00    -0.282 N 
ATOM      5  H   UNL     1       7.324   5.816  23.984  0.00  0.00    +0.155 HD
ATOM      6  C   UNL     1       9.152   4.788  23.815  0.00  0.00    +0.055 A 
ATOM      7  C   UNL     1       9.734   3.550  23.491  0.00  0.00    +0.064 A 
ATOM      8  C   UNL     1      11.117   3.485  23.294  0.00  0.00    +0.063 A 
ATOM      9  C   UNL     1      11.895   4.627  23.453  0.00  0.00    +0.125 A 
ATOM     10  C   UNL     1      11.324   5.848  23.795  0.00  0.00    +0.040 A 
ATOM     11  F   UNL     1      13.221   4.548  23.288  0.00  0.00    -0.205 F 
ATOM     12  C   UNL     1       9.944   5.936  23.965  0.00  0.00    +0.028 A 
ATOM     13  N   UNL     1       8.892   2.394  23.388  0.00  0.00    -0.224 N 
ATOM     14  C   UNL     1       9.224   1.322  22.563  0.00  0.00    +0.408 C 
ATOM     15  O   UNL     1      10.121   1.340  21.728  0.00  0.00    -0.226 OA
ENDROOT
BRANCH   1  16
ATOM     16  C   UNL     1       7.783   2.256  25.640  0.00  0.00    +0.029 C 
ATOM     17  C   UNL     1       7.151   0.987  26.183  0.00  0.00    +0.006 C 
ENDBRANCH   1  16
BRANCH  14  18
ATOM     18  O   UNL     1       8.435   0.223  22.764  0.00  0.00    -0.447 OA
BRANCH  18  19
ATOM     19  C   UNL     1       9.144  -1.026  22.922  0.00  0.00    +0.172 C 
ATOM     20  C   UNL     1       8.196  -2.152  22.528  0.00  0.00    +0.052 C 
ATOM     21  C   UNL     1       9.601  -1.209  24.368  0.00  0.00    +0.052 C 
ENDBRANCH  18  19
ENDBRANCH  14  18
TORSDOF 3
ENDMDL
