MODEL 1
REMARK VINA RESULT:      -7.0      0.000      0.000
REMARK  Name = 
REMARK  16 active torsions:
REMARK  status: ('A' for Active; 'I' for Inactive)
REMARK    1  A    between atoms: N_1  and  C_2
REMARK    2  A    between atoms: C_2  and  C_3
REMARK    3  A    between atoms: C_6  and  O_8
REMARK    4  A    between atoms: O_8  and  C_9
REMARK    5  A    between atoms: C_11  and  N_13
REMARK    6  A    between atoms: C_15  and  N_17
REMARK    7  A    between atoms: C_18  and  O_20
REMARK    8  A    between atoms: C_21  and  O_23
REMARK    9  A    between atoms: O_23  and  C_24
REMARK   10  A    between atoms: C_27  and  C_29
REMARK   11  A    between atoms: C_29  and  O_30
REMARK   12  A    between atoms: C_31  and  O_33
REMARK   13  A    between atoms: C_34  and  O_36
REMARK   14  A    between atoms: C_37  and  N_39
REMARK   15  A    between atoms: C_40  and  O_42
REMARK   16  A    between atoms: C_43  and  O_45
REMARK                            x       y       z     vdW  Elec       q    Type
REMARK                         _______ _______ _______ _____ _____    ______ ____
ROOT
ATOM      1  C   UNL     1       7.373  -0.347  24.184  0.00  0.00    +0.169 C 
ATOM      2  C   UNL     1       7.445   0.754  23.084  0.00  0.00    +0.182 C 
ATOM      3  C   UNL     1       8.885   0.874  22.534  0.00  0.00    +0.163 C 
ATOM      4  C   UNL     1       9.920   1.222  23.631  0.00  0.00    +0.084 C 
ATOM      5  C   UNL     1       9.865   0.178  24.760  0.00  0.00    +0.042 C 
ATOM      6  C   UNL     1       8.451  -0.119  25.304  0.00  0.00    +0.084 C 
ENDROOT
BRANCH   6   7
ATOM      7  N   UNL     1       8.040   0.918  26.264  0.00  0.00    -0.325 NA
ATOM      8  H   UNL     1       8.308   0.661  27.214  0.00  0.00    +0.119 HD
ATOM      9  H   UNL     1       8.513   1.802  26.048  0.00  0.00    +0.119 HD
ENDBRANCH   6   7
BRANCH   4  10
ATOM     10  N   UNL     1       9.785   2.598  24.130  0.00  0.00    -0.325 NA
ATOM     11  H   UNL     1       9.979   2.639  25.133  0.00  0.00    +0.119 HD
ATOM     12  H   UNL     1      10.456   3.213  23.674  0.00  0.00    +0.119 HD
ENDBRANCH   4  10
BRANCH   3  13
ATOM     13  O   UNL     1       9.293  -0.343  21.881  0.00  0.00    -0.388 OA
ATOM     14  H   UNL     1       8.509  -0.917  21.772  0.00  0.00    +0.210 HD
ENDBRANCH   3  13
BRANCH   2  15
ATOM     15  O   UNL     1       6.890   1.995  23.581  0.00  0.00    -0.340 OA
BRANCH  15  16
ATOM     16  C   UNL     1       6.457   2.914  22.553  0.00  0.00    +0.282 C 
ATOM     17  C   UNL     1       5.187   3.700  22.917  0.00  0.00    +0.201 C 
ATOM     18  C   UNL     1       5.665   5.105  23.254  0.00  0.00    +0.179 C 
ATOM     19  C   UNL     1       7.183   5.030  23.155  0.00  0.00    +0.178 C 
ATOM     20  O   UNL     1       7.487   3.904  22.318  0.00  0.00    -0.341 OA
BRANCH  17  21
ATOM     21  O   UNL     1       4.262   3.716  21.815  0.00  0.00    -0.384 OA
ATOM     22  H   UNL     1       3.880   4.606  21.736  0.00  0.00    +0.210 HD
ENDBRANCH  17  21
BRANCH  18  23
ATOM     23  O   UNL     1       5.261   5.474  24.571  0.00  0.00    -0.386 OA
ATOM     24  H   UNL     1       5.026   6.417  24.573  0.00  0.00    +0.210 HD
ENDBRANCH  18  23
BRANCH  19  25
ATOM     25  C   UNL     1       7.738   6.324  22.547  0.00  0.00    +0.190 C 
BRANCH  25  26
ATOM     26  O   UNL     1       7.474   6.391  21.152  0.00  0.00    -0.392 OA
ATOM     27  H   UNL     1       7.226   5.491  20.876  0.00  0.00    +0.210 HD
ENDBRANCH  25  26
ENDBRANCH  19  25
ENDBRANCH  15  16
ENDBRANCH   2  15
BRANCH   1  28
ATOM     28  O   UNL     1       7.554  -1.677  23.605  0.00  0.00    -0.342 OA
BRANCH  28  33
ATOM     29  C   UNL     1       6.751  -4.576  25.740  0.00  0.00    +0.166 C 
ATOM     30  C   UNL     1       8.089  -5.356  25.754  0.00  0.00    +0.175 C 
ATOM     31  C   UNL     1       9.292  -4.461  25.441  0.00  0.00    +0.167 C 
ATOM     32  C   UNL     1       8.980  -3.619  24.189  0.00  0.00    +0.139 C 
ATOM     33  C   UNL     1       7.766  -2.718  24.590  0.00  0.00    +0.270 C 
ATOM     34  O   UNL     1       6.638  -3.598  24.676  0.00  0.00    -0.343 OA
BRANCH  32  35
ATOM     35  N   UNL     1      10.191  -2.952  23.670  0.00  0.00    -0.321 NA
ATOM     36  H   UNL     1       9.899  -2.392  22.866  0.00  0.00    +0.119 HD
ATOM     37  H   UNL     1      10.565  -2.284  24.335  0.00  0.00    +0.119 HD
ENDBRANCH  32  35
BRANCH  30  38
ATOM     38  O   UNL     1       8.229  -5.991  27.035  0.00  0.00    -0.387 OA
ATOM     39  H   UNL     1       8.222  -5.302  27.723  0.00  0.00    +0.210 HD
ENDBRANCH  30  38
BRANCH  31  40
ATOM     40  O   UNL     1      10.456  -5.279  25.283  0.00  0.00    -0.387 OA
ATOM     41  H   UNL     1      11.125  -4.719  24.844  0.00  0.00    +0.210 HD
ENDBRANCH  31  40
BRANCH  29  42
ATOM     42  C   UNL     1       5.620  -5.628  25.601  0.00  0.00    +0.112 C 
BRANCH  42  43
ATOM     43  N   UNL     1       5.487  -6.490  26.774  0.00  0.00    -0.328 NA
ATOM     44  H   UNL     1       5.019  -5.964  27.512  0.00  0.00    +0.118 HD
ATOM     45  H   UNL     1       4.867  -7.265  26.545  0.00  0.00    +0.118 HD
ENDBRANCH  42  43
ENDBRANCH  29  42
ENDBRANCH  28  33
ENDBRANCH   1  28
TORSDOF 16
ENDMDL
MODEL 2
REMARK VINA RESULT:      -7.0      2.097      2.996
REMARK  Name = 
REMARK  16 active torsions:
REMARK  status: ('A' for Active; 'I' for Inactive)
REMARK    1  A    between atoms: N_1  and  C_2
REMARK    2  A    between atoms: C_2  and  C_3
REMARK    3  A    between atoms: C_6  and  O_8
REMARK    4  A    between atoms: O_8  and  C_9
REMARK    5  A    between atoms: C_11  and  N_13
REMARK    6  A    between atoms: C_15  and  N_17
REMARK    7  A    between atoms: C_18  and  O_20
REMARK    8  A    between atoms: C_21  and  O_23
REMARK    9  A    between atoms: O_23  and  C_24
REMARK   10  A    between atoms: C_27  and  C_29
REMARK   11  A    between atoms: C_29  and  O_30
REMARK   12  A    between atoms: C_31  and  O_33
REMARK   13  A    between atoms: C_34  and  O_36
REMARK   14  A    between atoms: C_37  and  N_39
REMARK   15  A    between atoms: C_40  and  O_42
REMARK   16  A    between atoms: C_43  and  O_45
REMARK                            x       y       z     vdW  Elec       q    Type
REMARK                         _______ _______ _______ _____ _____    ______ ____
ROOT
ATOM      1  C   UNL     1       8.479   0.350  24.541  0.00  0.00    +0.169 C 
ATOM      2  C   UNL     1       7.917   1.703  24.012  0.00  0.00    +0.182 C 
ATOM      3  C   UNL     1       7.561   1.590  22.511  0.00  0.00    +0.163 C 
ATOM      4  C   UNL     1       8.775   1.197  21.635  0.00  0.00    +0.084 C 
ATOM      5  C   UNL     1       9.387  -0.122  22.139  0.00  0.00    +0.042 C 
ATOM      6  C   UNL     1       9.668  -0.170  23.657  0.00  0.00    +0.084 C 
ENDROOT
BRANCH   6   7
ATOM      7  N   UNL     1      10.931   0.518  23.969  0.00  0.00    -0.325 NA
ATOM      8  H   UNL     1      11.090   0.547  24.976  0.00  0.00    +0.119 HD
ATOM      9  H   UNL     1      11.719   0.008  23.557  0.00  0.00    +0.119 HD
ENDBRANCH   6   7
BRANCH   4  10
ATOM     10  N   UNL     1       9.771   2.273  21.520  0.00  0.00    -0.325 NA
ATOM     11  H   UNL     1      10.239   2.428  22.416  0.00  0.00    +0.119 HD
ATOM     12  H   UNL     1      10.494   2.022  20.849  0.00  0.00    +0.119 HD
ENDBRANCH   4  10
BRANCH   3  13
ATOM     13  O   UNL     1       6.508   0.632  22.300  0.00  0.00    -0.388 OA
ATOM     14  H   UNL     1       5.736   0.890  22.844  0.00  0.00    +0.210 HD
ENDBRANCH   3  13
BRANCH   2  15
ATOM     15  O   UNL     1       8.828   2.782  24.330  0.00  0.00    -0.340 OA
BRANCH  15  16
ATOM     16  C   UNL     1       8.191   3.979  24.830  0.00  0.00    +0.282 C 
ATOM     17  C   UNL     1       9.148   5.173  24.987  0.00  0.00    +0.201 C 
ATOM     18  C   UNL     1       8.827   6.102  23.826  0.00  0.00    +0.179 C 
ATOM     19  C   UNL     1       7.773   5.359  23.016  0.00  0.00    +0.178 C 
ATOM     20  O   UNL     1       7.164   4.409  23.904  0.00  0.00    -0.341 OA
BRANCH  17  21
ATOM     21  O   UNL     1       8.943   5.829  26.251  0.00  0.00    -0.384 OA
ATOM     22  H   UNL     1       9.791   6.192  26.559  0.00  0.00    +0.210 HD
ENDBRANCH  17  21
BRANCH  18  23
ATOM     23  O   UNL     1       9.990   6.349  23.039  0.00  0.00    -0.386 OA
ATOM     24  H   UNL     1       9.958   5.783  22.249  0.00  0.00    +0.210 HD
ENDBRANCH  18  23
BRANCH  19  25
ATOM     25  C   UNL     1       6.728   6.343  22.476  0.00  0.00    +0.190 C 
BRANCH  25  26
ATOM     26  O   UNL     1       7.044   6.755  21.153  0.00  0.00    -0.392 OA
ATOM     27  H   UNL     1       7.200   7.715  21.194  0.00  0.00    +0.210 HD
ENDBRANCH  25  26
ENDBRANCH  19  25
ENDBRANCH  15  16
ENDBRANCH   2  15
BRANCH   1  28
ATOM     28  O   UNL     1       7.431  -0.669  24.587  0.00  0.00    -0.342 OA
BRANCH  28  33
ATOM     29  C   UNL     1       8.885  -3.986  25.286  0.00  0.00    +0.166 C 
ATOM     30  C   UNL     1       8.085  -4.905  24.332  0.00  0.00    +0.175 C 
ATOM     31  C   UNL     1       7.491  -4.141  23.145  0.00  0.00    +0.167 C 
ATOM     32  C   UNL     1       6.781  -2.876  23.665  0.00  0.00    +0.139 C 
ATOM     33  C   UNL     1       7.909  -2.009  24.315  0.00  0.00    +0.270 C 
ATOM     34  O   UNL     1       8.280  -2.690  25.521  0.00  0.00    -0.343 OA
BRANCH  32  35
ATOM     35  N   UNL     1       5.950  -2.251  22.616  0.00  0.00    -0.321 NA
ATOM     36  H   UNL     1       6.407  -2.443  21.722  0.00  0.00    +0.119 HD
ATOM     37  H   UNL     1       5.039  -2.692  22.547  0.00  0.00    +0.119 HD
ENDBRANCH  32  35
BRANCH  30  38
ATOM     38  O   UNL     1       8.950  -5.964  23.891  0.00  0.00    -0.387 OA
ATOM     39  H   UNL     1       9.745  -5.567  23.493  0.00  0.00    +0.210 HD
ENDBRANCH  30  38
BRANCH  31  40
ATOM     40  O   UNL     1       6.613  -5.010  22.419  0.00  0.00    -0.387 OA
ATOM     41  H   UNL     1       6.979  -5.910  22.517  0.00  0.00    +0.210 HD
ENDBRANCH  31  40
BRANCH  29  42
ATOM     42  C   UNL     1       9.022  -4.746  26.631  0.00  0.00    +0.112 C 
BRANCH  42  43
ATOM     43  N   UNL     1       8.050  -5.826  26.784  0.00  0.00    -0.328 NA
ATOM     44  H   UNL     1       7.139  -5.488  26.475  0.00  0.00    +0.118 HD
ATOM     45  H   UNL     1       8.298  -6.586  26.152  0.00  0.00    +0.118 HD
ENDBRANCH  42  43
ENDBRANCH  29  42
ENDBRANCH  28  33
ENDBRANCH   1  28
TORSDOF 16
ENDMDL
MODEL 3
REMARK VINA RESULT:      -6.6      1.624      2.184
REMARK  Name = 
REMARK  16 active torsions:
REMARK  status: ('A' for Active; 'I' for Inactive)
REMARK    1  A    between atoms: N_1  and  C_2
REMARK    2  A    between atoms: C_2  and  C_3
REMARK    3  A    between atoms: C_6  and  O_8
REMARK    4  A    between atoms: O_8  and  C_9
REMARK    5  A    between atoms: C_11  and  N_13
REMARK    6  A    between atoms: C_15  and  N_17
REMARK    7  A    between atoms: C_18  and  O_20
REMARK    8  A    between atoms: C_21  and  O_23
REMARK    9  A    between atoms: O_23  and  C_24
REMARK   10  A    between atoms: C_27  and  C_29
REMARK   11  A    between atoms: C_29  and  O_30
REMARK   12  A    between atoms: C_31  and  O_33
REMARK   13  A    between atoms: C_34  and  O_36
REMARK   14  A    between atoms: C_37  and  N_39
REMARK   15  A    between atoms: C_40  and  O_42
REMARK   16  A    between atoms: C_43  and  O_45
REMARK                            x       y       z     vdW  Elec       q    Type
REMARK                         _______ _______ _______ _____ _____    ______ ____
ROOT
ATOM      1  C   UNL     1       8.175  -0.869  23.598  0.00  0.00    +0.169 C 
ATOM      2  C   UNL     1       7.823   0.303  22.634  0.00  0.00    +0.182 C 
ATOM      3  C   UNL     1       9.060   0.703  21.795  0.00  0.00    +0.163 C 
ATOM      4  C   UNL     1      10.260   1.141  22.669  0.00  0.00    +0.084 C 
ATOM      5  C   UNL     1      10.628   0.025  23.662  0.00  0.00    +0.042 C 
ATOM      6  C   UNL     1       9.440  -0.543  24.470  0.00  0.00    +0.084 C 
ENDROOT
BRANCH   6   7
ATOM      7  N   UNL     1       9.118   0.340  25.602  0.00  0.00    -0.325 NA
ATOM      8  H   UNL     1       8.145   0.225  25.887  0.00  0.00    +0.119 HD
ATOM      9  H   UNL     1       9.698   0.096  26.413  0.00  0.00    +0.119 HD
ENDBRANCH   6   7
BRANCH   4  10
ATOM     10  N   UNL     1      10.045   2.436  23.330  0.00  0.00    -0.325 NA
ATOM     11  H   UNL     1       9.271   2.941  22.891  0.00  0.00    +0.119 HD
ATOM     12  H   UNL     1       9.794   2.304  24.307  0.00  0.00    +0.119 HD
ENDBRANCH   4  10
BRANCH   3  13
ATOM     13  O   UNL     1       9.478  -0.379  20.942  0.00  0.00    -0.388 OA
ATOM     14  H   UNL     1      10.254  -0.086  20.423  0.00  0.00    +0.210 HD
ENDBRANCH   3  13
BRANCH   2  15
ATOM     15  O   UNL     1       7.224   1.395  23.371  0.00  0.00    -0.340 OA
BRANCH  15  16
ATOM     16  C   UNL     1       6.488   2.338  22.559  0.00  0.00    +0.282 C 
ATOM     17  C   UNL     1       5.210   2.868  23.228  0.00  0.00    +0.201 C 
ATOM     18  C   UNL     1       5.542   4.287  23.664  0.00  0.00    +0.179 C 
ATOM     19  C   UNL     1       7.012   4.467  23.308  0.00  0.00    +0.178 C 
ATOM     20  O   UNL     1       7.312   3.498  22.291  0.00  0.00    -0.341 OA
BRANCH  17  21
ATOM     21  O   UNL     1       4.107   2.853  22.304  0.00  0.00    -0.384 OA
ATOM     22  H   UNL     1       3.685   3.729  22.301  0.00  0.00    +0.210 HD
ENDBRANCH  17  21
BRANCH  18  23
ATOM     23  O   UNL     1       5.338   4.446  25.066  0.00  0.00    -0.386 OA
ATOM     24  H   UNL     1       6.202   4.548  25.499  0.00  0.00    +0.210 HD
ENDBRANCH  18  23
BRANCH  19  25
ATOM     25  C   UNL     1       7.263   5.889  22.793  0.00  0.00    +0.190 C 
BRANCH  25  26
ATOM     26  O   UNL     1       7.505   5.894  21.393  0.00  0.00    -0.392 OA
ATOM     27  H   UNL     1       6.664   5.647  20.968  0.00  0.00    +0.210 HD
ENDBRANCH  25  26
ENDBRANCH  19  25
ENDBRANCH  15  16
ENDBRANCH   2  15
BRANCH   1  28
ATOM     28  O   UNL     1       8.409  -2.105  22.853  0.00  0.00    -0.342 OA
BRANCH  28  33
ATOM     29  C   UNL     1       7.227  -4.573  25.328  0.00  0.00    +0.166 C 
ATOM     30  C   UNL     1       5.758  -4.797  24.894  0.00  0.00    +0.175 C 
ATOM     31  C   UNL     1       5.522  -4.446  23.422  0.00  0.00    +0.167 C 
ATOM     32  C   UNL     1       6.141  -3.066  23.128  0.00  0.00    +0.139 C 
ATOM     33  C   UNL     1       7.676  -3.243  23.369  0.00  0.00    +0.270 C 
ATOM     34  O   UNL     1       7.837  -3.374  24.788  0.00  0.00    -0.343 OA
BRANCH  32  35
ATOM     35  N   UNL     1       5.704  -2.545  21.817  0.00  0.00    -0.321 NA
ATOM     36  H   UNL     1       5.837  -3.299  21.139  0.00  0.00    +0.119 HD
ATOM     37  H   UNL     1       4.708  -2.350  21.804  0.00  0.00    +0.119 HD
ENDBRANCH  32  35
BRANCH  30  38
ATOM     38  O   UNL     1       5.409  -6.163  25.168  0.00  0.00    -0.387 OA
ATOM     39  H   UNL     1       6.167  -6.728  24.936  0.00  0.00    +0.210 HD
ENDBRANCH  30  38
BRANCH  31  40
ATOM     40  O   UNL     1       4.117  -4.493  23.149  0.00  0.00    -0.387 OA
ATOM     41  H   UNL     1       3.700  -3.852  23.756  0.00  0.00    +0.210 HD
ENDBRANCH  31  40
BRANCH  29  42
ATOM     42  C   UNL     1       7.234  -4.506  26.877  0.00  0.00    +0.112 C 
BRANCH  42  43
ATOM     43  N   UNL     1       7.602  -5.772  27.507  0.00  0.00    -0.328 NA
ATOM     44  H   UNL     1       6.884  -6.016  28.189  0.00  0.00    +0.118 HD
ATOM     45  H   UNL     1       7.584  -6.509  26.803  0.00  0.00    +0.118 HD
ENDBRANCH  42  43
ENDBRANCH  29  42
ENDBRANCH  28  33
ENDBRANCH   1  28
TORSDOF 16
ENDMDL
MODEL 4
REMARK VINA RESULT:      -6.6      2.600      8.379
REMARK  Name = 
REMARK  16 active torsions:
REMARK  status: ('A' for Active; 'I' for Inactive)
REMARK    1  A    between atoms: N_1  and  C_2
REMARK    2  A    between atoms: C_2  and  C_3
REMARK    3  A    between atoms: C_6  and  O_8
REMARK    4  A    between atoms: O_8  and  C_9
REMARK    5  A    between atoms: C_11  and  N_13
REMARK    6  A    between atoms: C_15  and  N_17
REMARK    7  A    between atoms: C_18  and  O_20
REMARK    8  A    between atoms: C_21  and  O_23
REMARK    9  A    between atoms: O_23  and  C_24
REMARK   10  A    between atoms: C_27  and  C_29
REMARK   11  A    between atoms: C_29  and  O_30
REMARK   12  A    between atoms: C_31  and  O_33
REMARK   13  A    between atoms: C_34  and  O_36
REMARK   14  A    between atoms: C_37  and  N_39
REMARK   15  A    between atoms: C_40  and  O_42
REMARK   16  A    between atoms: C_43  and  O_45
REMARK                            x       y       z     vdW  Elec       q    Type
REMARK                         _______ _______ _______ _____ _____    ______ ____
ROOT
ATOM      1  C   UNL     1       7.621  -1.041  25.220  0.00  0.00    +0.169 C 
ATOM      2  C   UNL     1       8.000  -2.548  25.332  0.00  0.00    +0.182 C 
ATOM      3  C   UNL     1       8.851  -2.984  24.117  0.00  0.00    +0.163 C 
ATOM      4  C   UNL     1       8.125  -2.769  22.768  0.00  0.00    +0.084 C 
ATOM      5  C   UNL     1       7.702  -1.297  22.623  0.00  0.00    +0.042 C 
ATOM      6  C   UNL     1       6.949  -0.714  23.839  0.00  0.00    +0.084 C 
ENDROOT
BRANCH   6   7
ATOM      7  N   UNL     1       5.532  -1.110  23.806  0.00  0.00    -0.325 NA
ATOM      8  H   UNL     1       5.197  -1.340  24.742  0.00  0.00    +0.119 HD
ATOM      9  H   UNL     1       4.958  -0.330  23.467  0.00  0.00    +0.119 HD
ENDBRANCH   6   7
BRANCH   4  10
ATOM     10  N   UNL     1       7.006  -3.700  22.566  0.00  0.00    -0.325 NA
ATOM     11  H   UNL     1       6.886  -4.303  23.383  0.00  0.00    +0.119 HD
ATOM     12  H   UNL     1       6.132  -3.191  22.444  0.00  0.00    +0.119 HD
ENDBRANCH   4  10
BRANCH   3  13
ATOM     13  O   UNL     1      10.106  -2.278  24.086  0.00  0.00    -0.388 OA
ATOM     14  H   UNL     1      10.834  -2.932  24.099  0.00  0.00    +0.210 HD
ENDBRANCH   3  13
BRANCH   2  15
ATOM     15  O   UNL     1       6.812  -3.348  25.546  0.00  0.00    -0.340 OA
BRANCH  15  16
ATOM     16  C   UNL     1       7.065  -4.757  25.749  0.00  0.00    +0.282 C 
ATOM     17  C   UNL     1       6.797  -5.234  27.187  0.00  0.00    +0.201 C 
ATOM     18  C   UNL     1       5.486  -6.003  27.119  0.00  0.00    +0.179 C 
ATOM     19  C   UNL     1       5.024  -5.851  25.676  0.00  0.00    +0.178 C 
ATOM     20  O   UNL     1       6.190  -5.537  24.899  0.00  0.00    -0.341 OA
BRANCH  17  21
ATOM     21  O   UNL     1       7.869  -6.074  27.653  0.00  0.00    -0.384 OA
ATOM     22  H   UNL     1       8.184  -5.737  28.510  0.00  0.00    +0.210 HD
ENDBRANCH  17  21
BRANCH  18  23
ATOM     23  O   UNL     1       4.529  -5.448  28.018  0.00  0.00    -0.386 OA
ATOM     24  H   UNL     1       3.654  -5.467  27.594  0.00  0.00    +0.210 HD
ENDBRANCH  18  23
BRANCH  19  25
ATOM     25  C   UNL     1       4.381  -7.155  25.186  0.00  0.00    +0.190 C 
BRANCH  25  26
ATOM     26  O   UNL     1       4.653  -7.377  23.809  0.00  0.00    -0.392 OA
ATOM     27  H   UNL     1       5.566  -7.073  23.657  0.00  0.00    +0.210 HD
ENDBRANCH  25  26
ENDBRANCH  19  25
ENDBRANCH  15  16
ENDBRANCH   2  15
BRANCH   1  28
ATOM     28  O   UNL     1       8.798  -0.193  25.397  0.00  0.00    -0.342 OA
BRANCH  28  33
ATOM     29  C   UNL     1       7.963   3.364  24.883  0.00  0.00    +0.166 C 
ATOM     30  C   UNL     1       9.163   3.867  24.044  0.00  0.00    +0.175 C 
ATOM     31  C   UNL     1       9.866   2.733  23.290  0.00  0.00    +0.167 C 
ATOM     32  C   UNL     1      10.126   1.567  24.263  0.00  0.00    +0.139 C 
ATOM     33  C   UNL     1       8.709   1.079  24.708  0.00  0.00    +0.270 C 
ATOM     34  O   UNL     1       8.193   2.106  25.566  0.00  0.00    -0.343 OA
BRANCH  32  35
ATOM     35  N   UNL     1      11.046   0.570  23.680  0.00  0.00    -0.321 NA
ATOM     36  H   UNL     1      11.734   0.343  24.402  0.00  0.00    +0.119 HD
ATOM     37  H   UNL     1      10.573  -0.306  23.482  0.00  0.00    +0.119 HD
ENDBRANCH  32  35
BRANCH  30  38
ATOM     38  O   UNL     1       8.692   4.880  23.142  0.00  0.00    -0.387 OA
ATOM     39  H   UNL     1       7.728   4.783  23.045  0.00  0.00    +0.210 HD
ENDBRANCH  30  38
BRANCH  31  40
ATOM     40  O   UNL     1      11.069   3.239  22.698  0.00  0.00    -0.387 OA
ATOM     41  H   UNL     1      10.970   4.211  22.670  0.00  0.00    +0.210 HD
ENDBRANCH  31  40
BRANCH  29  42
ATOM     42  C   UNL     1       7.648   4.469  25.924  0.00  0.00    +0.112 C 
BRANCH  42  43
ATOM     43  N   UNL     1       8.737   5.429  26.092  0.00  0.00    -0.328 NA
ATOM     44  H   UNL     1       9.623   4.939  25.970  0.00  0.00    +0.118 HD
ATOM     45  H   UNL     1       8.691   6.117  25.341  0.00  0.00    +0.118 HD
ENDBRANCH  42  43
ENDBRANCH  29  42
ENDBRANCH  28  33
ENDBRANCH   1  28
TORSDOF 16
ENDMDL
MODEL 5
REMARK VINA RESULT:      -6.5      3.179      5.380
REMARK  Name = 
REMARK  16 active torsions:
REMARK  status: ('A' for Active; 'I' for Inactive)
REMARK    1  A    between atoms: N_1  and  C_2
REMARK    2  A    between atoms: C_2  and  C_3
REMARK    3  A    between atoms: C_6  and  O_8
REMARK    4  A    between atoms: O_8  and  C_9
REMARK    5  A    between atoms: C_11  and  N_13
REMARK    6  A    between atoms: C_15  and  N_17
REMARK    7  A    between atoms: C_18  and  O_20
REMARK    8  A    between atoms: C_21  and  O_23
REMARK    9  A    between atoms: O_23  and  C_24
REMARK   10  A    between atoms: C_27  and  C_29
REMARK   11  A    between atoms: C_29  and  O_30
REMARK   12  A    between atoms: C_31  and  O_33
REMARK   13  A    between atoms: C_34  and  O_36
REMARK   14  A    between atoms: C_37  and  N_39
REMARK   15  A    between atoms: C_40  and  O_42
REMARK   16  A    between atoms: C_43  and  O_45
REMARK                            x       y       z     vdW  Elec       q    Type
REMARK                         _______ _______ _______ _____ _____    ______ ____
ROOT
ATOM      1  C   UNL     1       6.230  -3.355  24.082  0.00  0.00    +0.169 C 
ATOM      2  C   UNL     1       7.744  -2.989  24.097  0.00  0.00    +0.182 C 
ATOM      3  C   UNL     1       8.365  -3.312  25.476  0.00  0.00    +0.163 C 
ATOM      4  C   UNL     1       7.676  -2.554  26.636  0.00  0.00    +0.084 C 
ATOM      5  C   UNL     1       6.168  -2.860  26.645  0.00  0.00    +0.042 C 
ATOM      6  C   UNL     1       5.462  -2.692  25.281  0.00  0.00    +0.084 C 
ENDROOT
BRANCH   6   7
ATOM      7  N   UNL     1       5.159  -1.275  25.028  0.00  0.00    -0.325 NA
ATOM      8  H   UNL     1       5.509  -0.986  24.114  0.00  0.00    +0.119 HD
ATOM      9  H   UNL     1       4.144  -1.129  25.020  0.00  0.00    +0.119 HD
ENDBRANCH   6   7
BRANCH   4  10
ATOM     10  N   UNL     1       7.959  -1.112  26.627  0.00  0.00    -0.325 NA
ATOM     11  H   UNL     1       7.569  -0.662  27.458  0.00  0.00    +0.119 HD
ATOM     12  H   UNL     1       8.963  -0.943  26.644  0.00  0.00    +0.119 HD
ENDBRANCH   4  10
BRANCH   3  13
ATOM     13  O   UNL     1       8.313  -4.724  25.749  0.00  0.00    -0.388 OA
ATOM     14  H   UNL     1       7.395  -5.036  25.613  0.00  0.00    +0.210 HD
ENDBRANCH   3  13
BRANCH   2  15
ATOM     15  O   UNL     1       7.933  -1.621  23.663  0.00  0.00    -0.340 OA
BRANCH  15  16
ATOM     16  C   UNL     1       9.312  -1.243  23.449  0.00  0.00    +0.282 C 
ATOM     17  C   UNL     1       9.645  -0.912  21.985  0.00  0.00    +0.201 C 
ATOM     18  C   UNL     1       9.755   0.604  21.929  0.00  0.00    +0.179 C 
ATOM     19  C   UNL     1       9.393   1.070  23.333  0.00  0.00    +0.178 C 
ATOM     20  O   UNL     1       9.613  -0.047  24.208  0.00  0.00    -0.341 OA
BRANCH  17  21
ATOM     21  O   UNL     1      10.878  -1.538  21.588  0.00  0.00    -0.384 OA
ATOM     22  H   UNL     1      11.197  -1.118  20.771  0.00  0.00    +0.210 HD
ENDBRANCH  17  21
BRANCH  18  23
ATOM     23  O   UNL     1       8.850   1.142  20.968  0.00  0.00    -0.386 OA
ATOM     24  H   UNL     1       8.199   1.698  21.428  0.00  0.00    +0.210 HD
ENDBRANCH  18  23
BRANCH  19  25
ATOM     25  C   UNL     1      10.271   2.259  23.740  0.00  0.00    +0.190 C 
BRANCH  25  26
ATOM     26  O   UNL     1      10.639   3.038  22.610  0.00  0.00    -0.392 OA
ATOM     27  H   UNL     1      11.373   3.610  22.898  0.00  0.00    +0.210 HD
ENDBRANCH  25  26
ENDBRANCH  19  25
ENDBRANCH  15  16
ENDBRANCH   2  15
BRANCH   1  28
ATOM     28  O   UNL     1       6.042  -4.804  24.131  0.00  0.00    -0.342 OA
BRANCH  28  33
ATOM     29  C   UNL     1       2.555  -5.977  23.864  0.00  0.00    +0.166 C 
ATOM     30  C   UNL     1       2.411  -6.872  25.119  0.00  0.00    +0.175 C 
ATOM     31  C   UNL     1       3.418  -6.510  26.215  0.00  0.00    +0.167 C 
ATOM     32  C   UNL     1       4.822  -6.393  25.590  0.00  0.00    +0.139 C 
ATOM     33  C   UNL     1       4.724  -5.206  24.577  0.00  0.00    +0.270 C 
ATOM     34  O   UNL     1       3.924  -5.686  23.488  0.00  0.00    -0.343 OA
BRANCH  32  35
ATOM     35  N   UNL     1       5.872  -6.330  26.626  0.00  0.00    -0.321 NA
ATOM     36  H   UNL     1       5.559  -5.652  27.325  0.00  0.00    +0.119 HD
ATOM     37  H   UNL     1       5.957  -7.208  27.129  0.00  0.00    +0.119 HD
ENDBRANCH  32  35
BRANCH  30  38
ATOM     38  O   UNL     1       1.060  -6.769  25.596  0.00  0.00    -0.387 OA
ATOM     39  H   UNL     1       0.895  -7.501  26.217  0.00  0.00    +0.210 HD
ENDBRANCH  30  38
BRANCH  31  40
ATOM     40  O   UNL     1       3.354  -7.494  27.254  0.00  0.00    -0.387 OA
ATOM     41  H   UNL     1       2.594  -7.248  27.816  0.00  0.00    +0.210 HD
ENDBRANCH  31  40
BRANCH  29  42
ATOM     42  C   UNL     1       1.843  -6.716  22.701  0.00  0.00    +0.112 C 
BRANCH  42  43
ATOM     43  N   UNL     1       1.821  -8.168  22.869  0.00  0.00    -0.328 NA
ATOM     44  H   UNL     1       1.660  -8.597  21.958  0.00  0.00    +0.118 HD
ATOM     45  H   UNL     1       2.744  -8.480  23.168  0.00  0.00    +0.118 HD
ENDBRANCH  42  43
ENDBRANCH  29  42
ENDBRANCH  28  33
ENDBRANCH   1  28
TORSDOF 16
ENDMDL
MODEL 6
REMARK VINA RESULT:      -6.4      2.089      2.575
REMARK  Name = 
REMARK  16 active torsions:
REMARK  status: ('A' for Active; 'I' for Inactive)
REMARK    1  A    between atoms: N_1  and  C_2
REMARK    2  A    between atoms: C_2  and  C_3
REMARK    3  A    between atoms: C_6  and  O_8
REMARK    4  A    between atoms: O_8  and  C_9
REMARK    5  A    between atoms: C_11  and  N_13
REMARK    6  A    between atoms: C_15  and  N_17
REMARK    7  A    between atoms: C_18  and  O_20
REMARK    8  A    between atoms: C_21  and  O_23
REMARK    9  A    between atoms: O_23  and  C_24
REMARK   10  A    between atoms: C_27  and  C_29
REMARK   11  A    between atoms: C_29  and  O_30
REMARK   12  A    between atoms: C_31  and  O_33
REMARK   13  A    between atoms: C_34  and  O_36
REMARK   14  A    between atoms: C_37  and  N_39
REMARK   15  A    between atoms: C_40  and  O_42
REMARK   16  A    between atoms: C_43  and  O_45
REMARK                            x       y       z     vdW  Elec       q    Type
REMARK                         _______ _______ _______ _____ _____    ______ ____
ROOT
ATOM      1  C   UNL     1       9.119  -1.506  24.483  0.00  0.00    +0.169 C 
ATOM      2  C   UNL     1       7.905  -0.883  23.731  0.00  0.00    +0.182 C 
ATOM      3  C   UNL     1       7.998  -1.179  22.216  0.00  0.00    +0.163 C 
ATOM      4  C   UNL     1       9.295  -0.629  21.575  0.00  0.00    +0.084 C 
ATOM      5  C   UNL     1      10.526  -1.192  22.306  0.00  0.00    +0.042 C 
ATOM      6  C   UNL     1      10.485  -1.065  23.845  0.00  0.00    +0.084 C 
ENDROOT
BRANCH   6   7
ATOM      7  N   UNL     1      10.876   0.291  24.260  0.00  0.00    -0.325 NA
ATOM      8  H   UNL     1      10.592   0.473  25.223  0.00  0.00    +0.119 HD
ATOM      9  H   UNL     1      11.897   0.387  24.227  0.00  0.00    +0.119 HD
ENDBRANCH   6   7
BRANCH   4  10
ATOM     10  N   UNL     1       9.313   0.839  21.489  0.00  0.00    -0.325 NA
ATOM     11  H   UNL     1       9.165   1.256  22.412  0.00  0.00    +0.119 HD
ATOM     12  H   UNL     1      10.217   1.168  21.158  0.00  0.00    +0.119 HD
ENDBRANCH   4  10
BRANCH   3  13
ATOM     13  O   UNL     1       7.919  -2.594  21.959  0.00  0.00    -0.388 OA
ATOM     14  H   UNL     1       6.996  -2.819  21.725  0.00  0.00    +0.210 HD
ENDBRANCH   3  13
BRANCH   2  15
ATOM     15  O   UNL     1       7.780   0.521  24.057  0.00  0.00    -0.340 OA
BRANCH  15  16
ATOM     16  C   UNL     1       6.573   1.148  23.569  0.00  0.00    +0.282 C 
ATOM     17  C   UNL     1       5.780   1.897  24.653  0.00  0.00    +0.201 C 
ATOM     18  C   UNL     1       6.040   3.374  24.394  0.00  0.00    +0.179 C 
ATOM     19  C   UNL     1       7.034   3.395  23.240  0.00  0.00    +0.178 C 
ATOM     20  O   UNL     1       6.908   2.134  22.564  0.00  0.00    -0.341 OA
BRANCH  17  21
ATOM     21  O   UNL     1       4.377   1.592  24.561  0.00  0.00    -0.384 OA
ATOM     22  H   UNL     1       3.899   2.386  24.266  0.00  0.00    +0.210 HD
ENDBRANCH  17  21
BRANCH  18  23
ATOM     23  O   UNL     1       6.592   4.000  25.550  0.00  0.00    -0.386 OA
ATOM     24  H   UNL     1       6.064   4.788  25.761  0.00  0.00    +0.210 HD
ENDBRANCH  18  23
BRANCH  19  25
ATOM     25  C   UNL     1       6.717   4.555  22.289  0.00  0.00    +0.190 C 
BRANCH  25  26
ATOM     26  O   UNL     1       7.891   5.285  21.959  0.00  0.00    -0.392 OA
ATOM     27  H   UNL     1       8.602   4.628  21.849  0.00  0.00    +0.210 HD
ENDBRANCH  25  26
ENDBRANCH  19  25
ENDBRANCH  15  16
ENDBRANCH   2  15
BRANCH   1  28
ATOM     28  O   UNL     1       9.038  -2.966  24.486  0.00  0.00    -0.342 OA
BRANCH  28  33
ATOM     29  C   UNL     1       5.649  -4.275  25.128  0.00  0.00    +0.166 C 
ATOM     30  C   UNL     1       5.904  -5.320  26.241  0.00  0.00    +0.175 C 
ATOM     31  C   UNL     1       7.193  -5.041  27.021  0.00  0.00    +0.167 C 
ATOM     32  C   UNL     1       8.338  -4.779  26.025  0.00  0.00    +0.139 C 
ATOM     33  C   UNL     1       7.922  -3.485  25.251  0.00  0.00    +0.270 C 
ATOM     34  O   UNL     1       6.835  -3.871  24.399  0.00  0.00    -0.343 OA
BRANCH  32  35
ATOM     35  N   UNL     1       9.653  -4.787  26.696  0.00  0.00    -0.321 NA
ATOM     36  H   UNL     1      10.098  -5.678  26.467  0.00  0.00    +0.119 HD
ATOM     37  H   UNL     1      10.272  -4.078  26.317  0.00  0.00    +0.119 HD
ENDBRANCH  32  35
BRANCH  30  38
ATOM     38  O   UNL     1       4.762  -5.344  27.111  0.00  0.00    -0.387 OA
ATOM     39  H   UNL     1       4.675  -4.469  27.530  0.00  0.00    +0.210 HD
ENDBRANCH  30  38
BRANCH  31  40
ATOM     40  O   UNL     1       7.460  -6.145  27.895  0.00  0.00    -0.387 OA
ATOM     41  H   UNL     1       8.282  -6.559  27.566  0.00  0.00    +0.210 HD
ENDBRANCH  31  40
BRANCH  29  42
ATOM     42  C   UNL     1       4.626  -4.904  24.147  0.00  0.00    +0.112 C 
BRANCH  42  43
ATOM     43  N   UNL     1       4.624  -4.269  22.831  0.00  0.00    -0.328 NA
ATOM     44  H   UNL     1       3.869  -4.674  22.277  0.00  0.00    +0.118 HD
ATOM     45  H   UNL     1       4.393  -3.282  22.941  0.00  0.00    +0.118 HD
ENDBRANCH  42  43
ENDBRANCH  29  42
ENDBRANCH  28  33
ENDBRANCH   1  28
TORSDOF 16
ENDMDL
MODEL 7
REMARK VINA RESULT:      -6.3      4.697      7.032
REMARK  Name = 
REMARK  16 active torsions:
REMARK  status: ('A' for Active; 'I' for Inactive)
REMARK    1  A    between atoms: N_1  and  C_2
REMARK    2  A    between atoms: C_2  and  C_3
REMARK    3  A    between atoms: C_6  and  O_8
REMARK    4  A    between atoms: O_8  and  C_9
REMARK    5  A    between atoms: C_11  and  N_13
REMARK    6  A    between atoms: C_15  and  N_17
REMARK    7  A    between atoms: C_18  and  O_20
REMARK    8  A    between atoms: C_21  and  O_23
REMARK    9  A    between atoms: O_23  and  C_24
REMARK   10  A    between atoms: C_27  and  C_29
REMARK   11  A    between atoms: C_29  and  O_30
REMARK   12  A    between atoms: C_31  and  O_33
REMARK   13  A    between atoms: C_34  and  O_36
REMARK   14  A    between atoms: C_37  and  N_39
REMARK   15  A    between atoms: C_40  and  O_42
REMARK   16  A    between atoms: C_43  and  O_45
REMARK                            x       y       z     vdW  Elec       q    Type
REMARK                         _______ _______ _______ _____ _____    ______ ____
ROOT
ATOM      1  C   UNL     1       6.762  -2.804  25.545  0.00  0.00    +0.169 C 
ATOM      2  C   UNL     1       7.037  -3.775  24.358  0.00  0.00    +0.182 C 
ATOM      3  C   UNL     1       8.554  -3.861  24.071  0.00  0.00    +0.163 C 
ATOM      4  C   UNL     1       9.179  -2.488  23.725  0.00  0.00    +0.084 C 
ATOM      5  C   UNL     1       8.906  -1.482  24.857  0.00  0.00    +0.042 C 
ATOM      6  C   UNL     1       7.433  -1.403  25.316  0.00  0.00    +0.084 C 
ENDROOT
BRANCH   6   7
ATOM      7  N   UNL     1       6.652  -0.559  24.397  0.00  0.00    -0.325 NA
ATOM      8  H   UNL     1       7.267  -0.024  23.784  0.00  0.00    +0.119 HD
ATOM      9  H   UNL     1       6.067  -1.147  23.793  0.00  0.00    +0.119 HD
ENDBRANCH   6   7
BRANCH   4  10
ATOM     10  N   UNL     1       8.759  -1.984  22.409  0.00  0.00    -0.325 NA
ATOM     11  H   UNL     1       9.574  -1.748  21.837  0.00  0.00    +0.119 HD
ATOM     12  H   UNL     1       8.238  -2.695  21.901  0.00  0.00    +0.119 HD
ENDBRANCH   4  10
BRANCH   3  13
ATOM     13  O   UNL     1       9.262  -4.422  25.193  0.00  0.00    -0.388 OA
ATOM     14  H   UNL     1      10.212  -4.206  25.104  0.00  0.00    +0.210 HD
ENDBRANCH   3  13
BRANCH   2  15
ATOM     15  O   UNL     1       6.234  -3.405  23.212  0.00  0.00    -0.340 OA
BRANCH  15  16
ATOM     16  C   UNL     1       5.704  -4.522  22.463  0.00  0.00    +0.282 C 
ATOM     17  C   UNL     1       5.964  -5.889  23.119  0.00  0.00    +0.201 C 
ATOM     18  C   UNL     1       4.628  -6.313  23.710  0.00  0.00    +0.179 C 
ATOM     19  C   UNL     1       3.698  -5.136  23.446  0.00  0.00    +0.178 C 
ATOM     20  O   UNL     1       4.266  -4.398  22.352  0.00  0.00    -0.341 OA
BRANCH  17  21
ATOM     21  O   UNL     1       6.429  -6.842  22.146  0.00  0.00    -0.384 OA
ATOM     22  H   UNL     1       5.745  -6.955  21.464  0.00  0.00    +0.210 HD
ENDBRANCH  17  21
BRANCH  18  23
ATOM     23  O   UNL     1       4.750  -6.557  25.109  0.00  0.00    -0.386 OA
ATOM     24  H   UNL     1       5.200  -7.409  25.240  0.00  0.00    +0.210 HD
ENDBRANCH  18  23
BRANCH  19  25
ATOM     25  C   UNL     1       2.295  -5.641  23.088  0.00  0.00    +0.190 C 
BRANCH  25  26
ATOM     26  O   UNL     1       1.970  -6.817  23.816  0.00  0.00    -0.392 OA
ATOM     27  H   UNL     1       1.883  -7.531  23.160  0.00  0.00    +0.210 HD
ENDBRANCH  25  26
ENDBRANCH  19  25
ENDBRANCH  15  16
ENDBRANCH   2  15
BRANCH   1  28
ATOM     28  O   UNL     1       7.244  -3.369  26.804  0.00  0.00    -0.342 OA
BRANCH  28  33
ATOM     29  C   UNL     1       3.855  -4.447  27.785  0.00  0.00    +0.166 C 
ATOM     30  C   UNL     1       4.081  -5.926  28.182  0.00  0.00    +0.175 C 
ATOM     31  C   UNL     1       5.534  -6.211  28.576  0.00  0.00    +0.167 C 
ATOM     32  C   UNL     1       6.471  -5.617  27.507  0.00  0.00    +0.139 C 
ATOM     33  C   UNL     1       6.224  -4.073  27.554  0.00  0.00    +0.270 C 
ATOM     34  O   UNL     1       4.921  -3.868  26.992  0.00  0.00    -0.343 OA
BRANCH  32  35
ATOM     35  N   UNL     1       7.857  -6.098  27.673  0.00  0.00    -0.321 NA
ATOM     36  H   UNL     1       7.849  -6.762  28.451  0.00  0.00    +0.119 HD
ATOM     37  H   UNL     1       8.166  -6.637  26.870  0.00  0.00    +0.119 HD
ENDBRANCH  32  35
BRANCH  30  38
ATOM     38  O   UNL     1       3.177  -6.252  29.250  0.00  0.00    -0.387 OA
ATOM     39  H   UNL     1       2.286  -6.366  28.875  0.00  0.00    +0.210 HD
ENDBRANCH  30  38
BRANCH  31  40
ATOM     40  O   UNL     1       5.707  -7.623  28.742  0.00  0.00    -0.387 OA
ATOM     41  H   UNL     1       6.304  -7.737  29.506  0.00  0.00    +0.210 HD
ENDBRANCH  31  40
BRANCH  29  42
ATOM     42  C   UNL     1       2.527  -4.395  26.986  0.00  0.00    +0.112 C 
BRANCH  42  43
ATOM     43  N   UNL     1       2.036  -5.716  26.598  0.00  0.00    -0.328 NA
ATOM     44  H   UNL     1       2.837  -6.307  26.376  0.00  0.00    +0.118 HD
ATOM     45  H   UNL     1       1.581  -6.148  27.401  0.00  0.00    +0.118 HD
ENDBRANCH  42  43
ENDBRANCH  29  42
ENDBRANCH  28  33
ENDBRANCH   1  28
TORSDOF 16
ENDMDL
MODEL 8
REMARK VINA RESULT:      -6.3      2.612      8.222
REMARK  Name = 
REMARK  16 active torsions:
REMARK  status: ('A' for Active; 'I' for Inactive)
REMARK    1  A    between atoms: N_1  and  C_2
REMARK    2  A    between atoms: C_2  and  C_3
REMARK    3  A    between atoms: C_6  and  O_8
REMARK    4  A    between atoms: O_8  and  C_9
REMARK    5  A    between atoms: C_11  and  N_13
REMARK    6  A    between atoms: C_15  and  N_17
REMARK    7  A    between atoms: C_18  and  O_20
REMARK    8  A    between atoms: C_21  and  O_23
REMARK    9  A    between atoms: O_23  and  C_24
REMARK   10  A    between atoms: C_27  and  C_29
REMARK   11  A    between atoms: C_29  and  O_30
REMARK   12  A    between atoms: C_31  and  O_33
REMARK   13  A    between atoms: C_34  and  O_36
REMARK   14  A    between atoms: C_37  and  N_39
REMARK   15  A    between atoms: C_40  and  O_42
REMARK   16  A    between atoms: C_43  and  O_45
REMARK                            x       y       z     vdW  Elec       q    Type
REMARK                         _______ _______ _______ _____ _____    ______ ____
ROOT
ATOM      1  C   UNL     1       7.020  -2.413  24.455  0.00  0.00    +0.169 C 
ATOM      2  C   UNL     1       6.923  -3.407  25.651  0.00  0.00    +0.182 C 
ATOM      3  C   UNL     1       8.312  -3.609  26.299  0.00  0.00    +0.163 C 
ATOM      4  C   UNL     1       9.365  -4.155  25.305  0.00  0.00    +0.084 C 
ATOM      5  C   UNL     1       9.476  -3.221  24.087  0.00  0.00    +0.042 C 
ATOM      6  C   UNL     1       8.129  -2.846  23.430  0.00  0.00    +0.084 C 
ENDROOT
BRANCH   6   7
ATOM      7  N   UNL     1       7.670  -3.927  22.543  0.00  0.00    -0.325 NA
ATOM      8  H   UNL     1       8.014  -4.832  22.864  0.00  0.00    +0.119 HD
ATOM      9  H   UNL     1       6.645  -3.977  22.553  0.00  0.00    +0.119 HD
ENDBRANCH   6   7
BRANCH   4  10
ATOM     10  N   UNL     1       9.122  -5.553  24.923  0.00  0.00    -0.325 NA
ATOM     11  H   UNL     1       9.936  -6.133  25.141  0.00  0.00    +0.119 HD
ATOM     12  H   UNL     1       8.338  -5.937  25.447  0.00  0.00    +0.119 HD
ENDBRANCH   4  10
BRANCH   3  13
ATOM     13  O   UNL     1       8.803  -2.379  26.865  0.00  0.00    -0.388 OA
ATOM     14  H   UNL     1       8.717  -1.671  26.196  0.00  0.00    +0.210 HD
ENDBRANCH   3  13
BRANCH   2  15
ATOM     15  O   UNL     1       6.276  -4.632  25.233  0.00  0.00    -0.340 OA
BRANCH  15  16
ATOM     16  C   UNL     1       4.908  -4.470  24.796  0.00  0.00    +0.282 C 
ATOM     17  C   UNL     1       4.491  -5.450  23.686  0.00  0.00    +0.201 C 
ATOM     18  C   UNL     1       3.610  -6.484  24.372  0.00  0.00    +0.179 C 
ATOM     19  C   UNL     1       3.640  -6.101  25.846  0.00  0.00    +0.178 C 
ATOM     20  O   UNL     1       4.009  -4.714  25.904  0.00  0.00    -0.341 OA
BRANCH  17  21
ATOM     21  O   UNL     1       3.774  -4.765  22.643  0.00  0.00    -0.384 OA
ATOM     22  H   UNL     1       3.716  -5.346  21.866  0.00  0.00    +0.210 HD
ENDBRANCH  17  21
BRANCH  18  23
ATOM     23  O   UNL     1       4.130  -7.798  24.179  0.00  0.00    -0.386 OA
ATOM     24  H   UNL     1       5.095  -7.741  24.082  0.00  0.00    +0.210 HD
ENDBRANCH  18  23
BRANCH  19  25
ATOM     25  C   UNL     1       2.261  -6.322  26.478  0.00  0.00    +0.190 C 
BRANCH  25  26
ATOM     26  O   UNL     1       2.268  -5.985  27.859  0.00  0.00    -0.392 OA
ATOM     27  H   UNL     1       3.195  -5.800  28.091  0.00  0.00    +0.210 HD
ENDBRANCH  25  26
ENDBRANCH  19  25
ENDBRANCH  15  16
ENDBRANCH   2  15
BRANCH   1  28
ATOM     28  O   UNL     1       7.301  -1.057  24.924  0.00  0.00    -0.342 OA
BRANCH  28  33
ATOM     29  C   UNL     1       7.908   1.401  22.241  0.00  0.00    +0.166 C 
ATOM     30  C   UNL     1       9.242   2.051  22.685  0.00  0.00    +0.175 C 
ATOM     31  C   UNL     1      10.054   1.145  23.615  0.00  0.00    +0.167 C 
ATOM     32  C   UNL     1       9.130   0.603  24.723  0.00  0.00    +0.139 C 
ATOM     33  C   UNL     1       8.058  -0.260  23.981  0.00  0.00    +0.270 C 
ATOM     34  O   UNL     1       7.218   0.673  23.287  0.00  0.00    -0.343 OA
BRANCH  32  35
ATOM     35  N   UNL     1       9.902  -0.039  25.806  0.00  0.00    -0.321 NA
ATOM     36  H   UNL     1       9.346  -0.831  26.137  0.00  0.00    +0.119 HD
ATOM     37  H   UNL     1      10.764  -0.448  25.460  0.00  0.00    +0.119 HD
ENDBRANCH  32  35
BRANCH  30  38
ATOM     38  O   UNL     1       9.990   2.399  21.510  0.00  0.00    -0.387 OA
ATOM     39  H   UNL     1       9.596   1.938  20.747  0.00  0.00    +0.210 HD
ENDBRANCH  30  38
BRANCH  31  40
ATOM     40  O   UNL     1      11.167   1.882  24.133  0.00  0.00    -0.387 OA
ATOM     41  H   UNL     1      11.451   1.413  24.942  0.00  0.00    +0.210 HD
ENDBRANCH  31  40
BRANCH  29  42
ATOM     42  C   UNL     1       7.002   2.547  21.721  0.00  0.00    +0.112 C 
BRANCH  42  43
ATOM     43  N   UNL     1       7.504   3.877  22.057  0.00  0.00    -0.328 NA
ATOM     44  H   UNL     1       7.431   4.470  21.230  0.00  0.00    +0.118 HD
ATOM     45  H   UNL     1       6.891   4.295  22.757  0.00  0.00    +0.118 HD
ENDBRANCH  42  43
ENDBRANCH  29  42
ENDBRANCH  28  33
ENDBRANCH   1  28
TORSDOF 16
ENDMDL
MODEL 9
REMARK VINA RESULT:      -6.3      3.429      8.109
REMARK  Name = 
REMARK  16 active torsions:
REMARK  status: ('A' for Active; 'I' for Inactive)
REMARK    1  A    between atoms: N_1  and  C_2
REMARK    2  A    between atoms: C_2  and  C_3
REMARK    3  A    between atoms: C_6  and  O_8
REMARK    4  A    between atoms: O_8  and  C_9
REMARK    5  A    between atoms: C_11  and  N_13
REMARK    6  A    between atoms: C_15  and  N_17
REMARK    7  A    between atoms: C_18  and  O_20
REMARK    8  A    between atoms: C_21  and  O_23
REMARK    9  A    between atoms: O_23  and  C_24
REMARK   10  A    between atoms: C_27  and  C_29
REMARK   11  A    between atoms: C_29  and  O_30
REMARK   12  A    between atoms: C_31  and  O_33
REMARK   13  A    between atoms: C_34  and  O_36
REMARK   14  A    between atoms: C_37  and  N_39
REMARK   15  A    between atoms: C_40  and  O_42
REMARK   16  A    between atoms: C_43  and  O_45
REMARK                            x       y       z     vdW  Elec       q    Type
REMARK                         _______ _______ _______ _____ _____    ______ ____
ROOT
ATOM      1  C   UNL     1       6.039  -4.263  26.640  0.00  0.00    +0.169 C 
ATOM      2  C   UNL     1       4.804  -5.105  26.198  0.00  0.00    +0.182 C 
ATOM      3  C   UNL     1       3.888  -5.398  27.409  0.00  0.00    +0.163 C 
ATOM      4  C   UNL     1       4.615  -6.165  28.540  0.00  0.00    +0.084 C 
ATOM      5  C   UNL     1       5.863  -5.386  28.991  0.00  0.00    +0.042 C 
ATOM      6  C   UNL     1       6.793  -4.929  27.846  0.00  0.00    +0.084 C 
ENDROOT
BRANCH   6   7
ATOM      7  N   UNL     1       7.659  -6.037  27.412  0.00  0.00    -0.325 NA
ATOM      8  H   UNL     1       7.496  -6.869  27.980  0.00  0.00    +0.119 HD
ATOM      9  H   UNL     1       7.444  -6.291  26.442  0.00  0.00    +0.119 HD
ENDBRANCH   6   7
BRANCH   4  10
ATOM     10  N   UNL     1       4.918  -7.558  28.184  0.00  0.00    -0.325 NA
ATOM     11  H   UNL     1       5.494  -7.597  27.339  0.00  0.00    +0.119 HD
ATOM     12  H   UNL     1       5.451  -8.011  28.924  0.00  0.00    +0.119 HD
ENDBRANCH   4  10
BRANCH   3  13
ATOM     13  O   UNL     1       3.343  -4.180  27.951  0.00  0.00    -0.388 OA
ATOM     14  H   UNL     1       3.543  -3.446  27.335  0.00  0.00    +0.210 HD
ENDBRANCH   3  13
BRANCH   2  15
ATOM     15  O   UNL     1       5.235  -6.285  25.478  0.00  0.00    -0.340 OA
BRANCH  15  16
ATOM     16  C   UNL     1       4.726  -6.384  24.129  0.00  0.00    +0.282 C 
ATOM     17  C   UNL     1       4.092  -5.084  23.606  0.00  0.00    +0.201 C 
ATOM     18  C   UNL     1       5.108  -4.503  22.633  0.00  0.00    +0.179 C 
ATOM     19  C   UNL     1       6.303  -5.444  22.715  0.00  0.00    +0.178 C 
ATOM     20  O   UNL     1       5.810  -6.695  23.220  0.00  0.00    -0.341 OA
BRANCH  17  21
ATOM     21  O   UNL     1       2.840  -5.354  22.951  0.00  0.00    -0.384 OA
ATOM     22  H   UNL     1       2.946  -6.131  22.376  0.00  0.00    +0.210 HD
ENDBRANCH  17  21
BRANCH  18  23
ATOM     23  O   UNL     1       5.477  -3.181  23.018  0.00  0.00    -0.386 OA
ATOM     24  H   UNL     1       5.160  -3.018  23.923  0.00  0.00    +0.210 HD
ENDBRANCH  18  23
BRANCH  19  25
ATOM     25  C   UNL     1       6.927  -5.629  21.326  0.00  0.00    +0.190 C 
BRANCH  25  26
ATOM     26  O   UNL     1       5.933  -5.626  20.311  0.00  0.00    -0.392 OA
ATOM     27  H   UNL     1       5.881  -6.539  19.975  0.00  0.00    +0.210 HD
ENDBRANCH  25  26
ENDBRANCH  19  25
ENDBRANCH  15  16
ENDBRANCH   2  15
BRANCH   1  28
ATOM     28  O   UNL     1       5.639  -2.907  27.011  0.00  0.00    -0.342 OA
BRANCH  28  33
ATOM     29  C   UNL     1       8.041  -1.433  24.631  0.00  0.00    +0.166 C 
ATOM     30  C   UNL     1       7.230  -0.261  24.026  0.00  0.00    +0.175 C 
ATOM     31  C   UNL     1       6.096   0.202  24.946  0.00  0.00    +0.167 C 
ATOM     32  C   UNL     1       5.305  -1.028  25.429  0.00  0.00    +0.139 C 
ATOM     33  C   UNL     1       6.323  -1.873  26.262  0.00  0.00    +0.270 C 
ATOM     34  O   UNL     1       7.240  -2.431  25.311  0.00  0.00    -0.343 OA
BRANCH  32  35
ATOM     35  N   UNL     1       4.039  -0.637  26.080  0.00  0.00    -0.321 NA
ATOM     36  H   UNL     1       3.330  -0.584  25.345  0.00  0.00    +0.119 HD
ATOM     37  H   UNL     1       3.707  -1.355  26.716  0.00  0.00    +0.119 HD
ENDBRANCH  32  35
BRANCH  30  38
ATOM     38  O   UNL     1       8.136   0.813  23.731  0.00  0.00    -0.387 OA
ATOM     39  H   UNL     1       9.032   0.443  23.635  0.00  0.00    +0.210 HD
ENDBRANCH  30  38
BRANCH  31  40
ATOM     40  O   UNL     1       5.279   1.147  24.244  0.00  0.00    -0.387 OA
ATOM     41  H   UNL     1       5.122   0.765  23.359  0.00  0.00    +0.210 HD
ENDBRANCH  31  40
BRANCH  29  42
ATOM     42  C   UNL     1       8.813  -2.096  23.460  0.00  0.00    +0.112 C 
BRANCH  42  43
ATOM     43  N   UNL     1       8.106  -2.013  22.184  0.00  0.00    -0.328 NA
ATOM     44  H   UNL     1       7.510  -1.185  22.197  0.00  0.00    +0.118 HD
ATOM     45  H   UNL     1       8.785  -1.858  21.440  0.00  0.00    +0.118 HD
ENDBRANCH  42  43
ENDBRANCH  29  42
ENDBRANCH  28  33
ENDBRANCH   1  28
TORSDOF 16
ENDMDL
