MODEL 1
REMARK VINA RESULT:      -7.2      0.000      0.000
REMARK  Name = 
REMARK  3 active torsions:
REMARK  status: ('A' for Active; 'I' for Inactive)
REMARK    1  A    between atoms: O_1  and  C_2
REMARK    2  A    between atoms: C_5  and  C_8
REMARK    3  A    between atoms: C_14  and  O_15
REMARK                            x       y       z     vdW  Elec       q    Type
REMARK                         _______ _______ _______ _____ _____    ______ ____
ROOT
ATOM      1  C   UNL     1       7.005  -2.695  23.283  0.00  0.00    +0.044 C 
ATOM      2  C   UNL     1       6.026  -3.536  22.516  0.00  0.00    +0.195 C 
ATOM      3  O   UNL     1       5.607  -3.365  21.388  0.00  0.00    -0.287 OA
ATOM      4  C   UNL     1       5.627  -4.641  23.371  0.00  0.00    +0.034 A 
ATOM      5  C   UNL     1       4.752  -5.679  23.102  0.00  0.00    +0.057 A 
ATOM      6  C   UNL     1       4.556  -6.604  24.120  0.00  0.00    +0.118 A 
ATOM      7  C   UNL     1       5.208  -6.475  25.353  0.00  0.00    +0.046 A 
ATOM      8  C   UNL     1       6.090  -5.411  25.585  0.00  0.00    +0.013 A 
ATOM      9  C   UNL     1       6.301  -4.489  24.569  0.00  0.00    +0.001 A 
ATOM     10  C   UNL     1       7.152  -3.301  24.484  0.00  0.00    +0.037 C 
ATOM     11 BR   UNL     1       8.278  -2.855  25.885  0.00  0.00    -0.049 Br
ENDROOT
BRANCH   1  15
ATOM     12  C   UNL     1       8.898   0.849  21.766  0.00  0.00    +0.117 A 
ATOM     13  C   UNL     1       9.463  -0.390  21.509  0.00  0.00    +0.046 A 
ATOM     14  C   UNL     1       8.852  -1.549  22.002  0.00  0.00    +0.012 A 
ATOM     15  C   UNL     1       7.650  -1.489  22.725  0.00  0.00    -0.013 A 
ATOM     16  C   UNL     1       7.096  -0.217  22.954  0.00  0.00    +0.012 A 
ATOM     17  C   UNL     1       7.718   0.948  22.486  0.00  0.00    +0.046 A 
BRANCH  12  18
ATOM     18  O   UNL     1       9.548   1.954  21.304  0.00  0.00    -0.507 OA
ATOM     19  H   UNL     1       9.489   1.966  20.335  0.00  0.00    +0.292 HD
ENDBRANCH  12  18
ENDBRANCH   1  15
BRANCH   6  20
ATOM     20  O   UNL     1       3.716  -7.667  23.962  0.00  0.00    -0.507 OA
ATOM     21  H   UNL     1       3.589  -8.103  24.822  0.00  0.00    +0.292 HD
ENDBRANCH   6  20
TORSDOF 3
ENDMDL
MODEL 2
REMARK VINA RESULT:      -6.6      3.387      4.276
REMARK  Name = 
REMARK  3 active torsions:
REMARK  status: ('A' for Active; 'I' for Inactive)
REMARK    1  A    between atoms: O_1  and  C_2
REMARK    2  A    between atoms: C_5  and  C_8
REMARK    3  A    between atoms: C_14  and  O_15
REMARK                            x       y       z     vdW  Elec       q    Type
REMARK                         _______ _______ _______ _____ _____    ______ ____
ROOT
ATOM      1  C   UNL     1       9.051  -0.602  24.621  0.00  0.00    +0.044 C 
ATOM      2  C   UNL     1       8.844  -1.194  25.986  0.00  0.00    +0.195 C 
ATOM      3  O   UNL     1       8.859  -0.630  27.062  0.00  0.00    -0.287 OA
ATOM      4  C   UNL     1       8.616  -2.619  25.820  0.00  0.00    +0.034 A 
ATOM      5  C   UNL     1       8.369  -3.580  26.784  0.00  0.00    +0.057 A 
ATOM      6  C   UNL     1       8.189  -4.882  26.332  0.00  0.00    +0.118 A 
ATOM      7  C   UNL     1       8.267  -5.192  24.968  0.00  0.00    +0.046 A 
ATOM      8  C   UNL     1       8.515  -4.189  24.022  0.00  0.00    +0.013 A 
ATOM      9  C   UNL     1       8.684  -2.884  24.464  0.00  0.00    +0.001 A 
ATOM     10  C   UNL     1       8.933  -1.632  23.750  0.00  0.00    +0.037 C 
ATOM     11 BR   UNL     1       8.981  -1.603  21.899  0.00  0.00    -0.049 Br
ENDROOT
BRANCH   1  15
ATOM     12  C   UNL     1       9.760   3.560  23.836  0.00  0.00    +0.117 A 
ATOM     13  C   UNL     1       8.530   3.159  24.335  0.00  0.00    +0.046 A 
ATOM     14  C   UNL     1       8.293   1.804  24.592  0.00  0.00    +0.012 A 
ATOM     15  C   UNL     1       9.291   0.837  24.388  0.00  0.00    -0.013 A 
ATOM     16  C   UNL     1      10.530   1.281  23.897  0.00  0.00    +0.012 A 
ATOM     17  C   UNL     1      10.765   2.632  23.612  0.00  0.00    +0.046 A 
BRANCH  12  18
ATOM     18  O   UNL     1       9.934   4.883  23.559  0.00  0.00    -0.507 OA
ATOM     19  H   UNL     1       9.372   5.401  24.158  0.00  0.00    +0.292 HD
ENDBRANCH  12  18
ENDBRANCH   1  15
BRANCH   6  20
ATOM     20  O   UNL     1       7.939  -5.906  27.196  0.00  0.00    -0.507 OA
ATOM     21  H   UNL     1       8.548  -5.843  27.951  0.00  0.00    +0.292 HD
ENDBRANCH   6  20
TORSDOF 3
ENDMDL
MODEL 3
REMARK VINA RESULT:      -6.6      3.323      7.435
REMARK  Name = 
REMARK  3 active torsions:
REMARK  status: ('A' for Active; 'I' for Inactive)
REMARK    1  A    between atoms: O_1  and  C_2
REMARK    2  A    between atoms: C_5  and  C_8
REMARK    3  A    between atoms: C_14  and  O_15
REMARK                            x       y       z     vdW  Elec       q    Type
REMARK                         _______ _______ _______ _____ _____    ______ ____
ROOT
ATOM      1  C   UNL     1       8.605  -1.805  24.749  0.00  0.00    +0.044 C 
ATOM      2  C   UNL     1       9.256  -0.577  25.317  0.00  0.00    +0.195 C 
ATOM      3  O   UNL     1       9.543  -0.344  26.475  0.00  0.00    -0.287 OA
ATOM      4  C   UNL     1       9.503   0.341  24.219  0.00  0.00    +0.034 A 
ATOM      5  C   UNL     1      10.089   1.594  24.246  0.00  0.00    +0.057 A 
ATOM      6  C   UNL     1      10.194   2.257  23.029  0.00  0.00    +0.118 A 
ATOM      7  C   UNL     1       9.716   1.680  21.845  0.00  0.00    +0.046 A 
ATOM      8  C   UNL     1       9.131   0.406  21.859  0.00  0.00    +0.013 A 
ATOM      9  C   UNL     1       9.034  -0.268  23.069  0.00  0.00    +0.001 A 
ATOM     10  C   UNL     1       8.506  -1.588  23.416  0.00  0.00    +0.037 C 
ATOM     11 BR   UNL     1       7.886  -2.725  22.092  0.00  0.00    -0.049 Br
ENDROOT
BRANCH   1  15
ATOM     12  C   UNL     1       7.591  -5.192  27.187  0.00  0.00    +0.117 A 
ATOM     13  C   UNL     1       6.763  -4.081  27.183  0.00  0.00    +0.046 A 
ATOM     14  C   UNL     1       7.088  -2.973  26.392  0.00  0.00    +0.012 A 
ATOM     15  C   UNL     1       8.224  -2.975  25.567  0.00  0.00    -0.013 A 
ATOM     16  C   UNL     1       9.033  -4.124  25.583  0.00  0.00    +0.012 A 
ATOM     17  C   UNL     1       8.727  -5.225  26.393  0.00  0.00    +0.046 A 
BRANCH  12  18
ATOM     18  O   UNL     1       7.260  -6.231  28.004  0.00  0.00    -0.507 OA
ATOM     19  H   UNL     1       7.500  -7.062  27.561  0.00  0.00    +0.292 HD
ENDBRANCH  12  18
ENDBRANCH   1  15
BRANCH   6  20
ATOM     20  O   UNL     1      10.756   3.496  22.940  0.00  0.00    -0.507 OA
ATOM     21  H   UNL     1      11.289   3.662  23.737  0.00  0.00    +0.292 HD
ENDBRANCH   6  20
TORSDOF 3
ENDMDL
MODEL 4
REMARK VINA RESULT:      -6.5      2.179      6.836
REMARK  Name = 
REMARK  3 active torsions:
REMARK  status: ('A' for Active; 'I' for Inactive)
REMARK    1  A    between atoms: O_1  and  C_2
REMARK    2  A    between atoms: C_5  and  C_8
REMARK    3  A    between atoms: C_14  and  O_15
REMARK                            x       y       z     vdW  Elec       q    Type
REMARK                         _______ _______ _______ _____ _____    ______ ____
ROOT
ATOM      1  C   UNL     1       7.951  -1.516  23.193  0.00  0.00    +0.044 C 
ATOM      2  C   UNL     1       9.084  -0.881  22.439  0.00  0.00    +0.195 C 
ATOM      3  O   UNL     1       9.767  -1.364  21.558  0.00  0.00    -0.287 OA
ATOM      4  C   UNL     1       9.254   0.468  22.951  0.00  0.00    +0.034 A 
ATOM      5  C   UNL     1      10.163   1.438  22.564  0.00  0.00    +0.057 A 
ATOM      6  C   UNL     1      10.099   2.652  23.238  0.00  0.00    +0.118 A 
ATOM      7  C   UNL     1       9.165   2.865  24.260  0.00  0.00    +0.046 A 
ATOM      8  C   UNL     1       8.259   1.858  24.619  0.00  0.00    +0.013 A 
ATOM      9  C   UNL     1       8.308   0.647  23.943  0.00  0.00    +0.001 A 
ATOM     10  C   UNL     1       7.511  -0.574  24.060  0.00  0.00    +0.037 C 
ATOM     11 BR   UNL     1       6.077  -0.647  25.231  0.00  0.00    -0.049 Br
ENDROOT
BRANCH   1  15
ATOM     12  C   UNL     1       6.586  -5.494  22.325  0.00  0.00    +0.117 A 
ATOM     13  C   UNL     1       7.583  -5.305  23.270  0.00  0.00    +0.046 A 
ATOM     14  C   UNL     1       8.033  -4.011  23.556  0.00  0.00    +0.012 A 
ATOM     15  C   UNL     1       7.469  -2.887  22.930  0.00  0.00    -0.013 A 
ATOM     16  C   UNL     1       6.449  -3.115  21.990  0.00  0.00    +0.012 A 
ATOM     17  C   UNL     1       6.014  -4.410  21.680  0.00  0.00    +0.046 A 
BRANCH  12  18
ATOM     18  O   UNL     1       6.208  -6.773  22.046  0.00  0.00    -0.507 OA
ATOM     19  H   UNL     1       6.611  -7.039  21.203  0.00  0.00    +0.292 HD
ENDBRANCH  12  18
ENDBRANCH   1  15
BRANCH   6  20
ATOM     20  O   UNL     1      10.945   3.677  22.937  0.00  0.00    -0.507 OA
ATOM     21  H   UNL     1      11.407   3.957  23.746  0.00  0.00    +0.292 HD
ENDBRANCH   6  20
TORSDOF 3
ENDMDL
MODEL 5
REMARK VINA RESULT:      -6.5      2.315      2.810
REMARK  Name = 
REMARK  3 active torsions:
REMARK  status: ('A' for Active; 'I' for Inactive)
REMARK    1  A    between atoms: O_1  and  C_2
REMARK    2  A    between atoms: C_5  and  C_8
REMARK    3  A    between atoms: C_14  and  O_15
REMARK                            x       y       z     vdW  Elec       q    Type
REMARK                         _______ _______ _______ _____ _____    ______ ____
ROOT
ATOM      1  C   UNL     1       7.713  -2.284  24.008  0.00  0.00    +0.044 C 
ATOM      2  C   UNL     1       8.067  -2.635  25.425  0.00  0.00    +0.195 C 
ATOM      3  O   UNL     1       8.837  -2.066  26.173  0.00  0.00    -0.287 OA
ATOM      4  C   UNL     1       7.314  -3.824  25.786  0.00  0.00    +0.034 A 
ATOM      5  C   UNL     1       7.301  -4.516  26.985  0.00  0.00    +0.057 A 
ATOM      6  C   UNL     1       6.478  -5.634  27.046  0.00  0.00    +0.118 A 
ATOM      7  C   UNL     1       5.716  -6.035  25.941  0.00  0.00    +0.046 A 
ATOM      8  C   UNL     1       5.754  -5.305  24.746  0.00  0.00    +0.013 A 
ATOM      9  C   UNL     1       6.564  -4.180  24.679  0.00  0.00    +0.001 A 
ATOM     10  C   UNL     1       6.812  -3.212  23.611  0.00  0.00    +0.037 C 
ATOM     11 BR   UNL     1       5.886  -3.328  22.011  0.00  0.00    -0.049 Br
ENDROOT
BRANCH   1  15
ATOM     12  C   UNL     1       9.388   1.147  22.040  0.00  0.00    +0.117 A 
ATOM     13  C   UNL     1       9.656  -0.121  21.549  0.00  0.00    +0.046 A 
ATOM     14  C   UNL     1       9.114  -1.243  22.186  0.00  0.00    +0.012 A 
ATOM     15  C   UNL     1       8.269  -1.112  23.300  0.00  0.00    -0.013 A 
ATOM     16  C   UNL     1       8.006   0.189  23.762  0.00  0.00    +0.012 A 
ATOM     17  C   UNL     1       8.566   1.314  23.144  0.00  0.00    +0.046 A 
BRANCH  12  18
ATOM     18  O   UNL     1       9.969   2.209  21.415  0.00  0.00    -0.507 OA
ATOM     19  H   UNL     1       9.274   2.734  20.985  0.00  0.00    +0.292 HD
ENDBRANCH  12  18
ENDBRANCH   1  15
BRANCH   6  20
ATOM     20  O   UNL     1       6.387  -6.388  28.179  0.00  0.00    -0.507 OA
ATOM     21  H   UNL     1       7.252  -6.403  28.623  0.00  0.00    +0.292 HD
ENDBRANCH   6  20
TORSDOF 3
ENDMDL
MODEL 6
REMARK VINA RESULT:      -6.4      2.198      7.010
REMARK  Name = 
REMARK  3 active torsions:
REMARK  status: ('A' for Active; 'I' for Inactive)
REMARK    1  A    between atoms: O_1  and  C_2
REMARK    2  A    between atoms: C_5  and  C_8
REMARK    3  A    between atoms: C_14  and  O_15
REMARK                            x       y       z     vdW  Elec       q    Type
REMARK                         _______ _______ _______ _____ _____    ______ ____
ROOT
ATOM      1  C   UNL     1       8.104  -1.878  24.933  0.00  0.00    +0.044 C 
ATOM      2  C   UNL     1       8.680  -1.694  23.558  0.00  0.00    +0.195 C 
ATOM      3  O   UNL     1       8.799  -2.520  22.675  0.00  0.00    -0.287 OA
ATOM      4  C   UNL     1       9.101  -0.309  23.437  0.00  0.00    +0.034 A 
ATOM      5  C   UNL     1       9.679   0.335  22.357  0.00  0.00    +0.057 A 
ATOM      6  C   UNL     1       9.984   1.680  22.526  0.00  0.00    +0.118 A 
ATOM      7  C   UNL     1       9.723   2.336  23.736  0.00  0.00    +0.046 A 
ATOM      8  C   UNL     1       9.132   1.649  24.806  0.00  0.00    +0.013 A 
ATOM      9  C   UNL     1       8.814   0.308  24.641  0.00  0.00    +0.001 A 
ATOM     10  C   UNL     1       8.188  -0.667  25.533  0.00  0.00    +0.037 C 
ATOM     11 BR   UNL     1       7.578  -0.151  27.204  0.00  0.00    -0.049 Br
ENDROOT
BRANCH   1  15
ATOM     12  C   UNL     1       6.480  -5.558  26.438  0.00  0.00    +0.117 A 
ATOM     13  C   UNL     1       5.783  -4.847  25.474  0.00  0.00    +0.046 A 
ATOM     14  C   UNL     1       6.306  -3.646  24.980  0.00  0.00    +0.012 A 
ATOM     15  C   UNL     1       7.548  -3.158  25.415  0.00  0.00    -0.013 A 
ATOM     16  C   UNL     1       8.236  -3.912  26.382  0.00  0.00    +0.012 A 
ATOM     17  C   UNL     1       7.705  -5.101  26.899  0.00  0.00    +0.046 A 
BRANCH  12  18
ATOM     18  O   UNL     1       5.915  -6.699  26.922  0.00  0.00    -0.507 OA
ATOM     19  H   UNL     1       6.397  -7.461  26.560  0.00  0.00    +0.292 HD
ENDBRANCH  12  18
ENDBRANCH   1  15
BRANCH   6  20
ATOM     20  O   UNL     1      10.554   2.411  21.527  0.00  0.00    -0.507 OA
ATOM     21  H   UNL     1      11.259   1.886  21.109  0.00  0.00    +0.292 HD
ENDBRANCH   6  20
TORSDOF 3
ENDMDL
MODEL 7
REMARK VINA RESULT:      -6.3      2.112      2.835
REMARK  Name = 
REMARK  3 active torsions:
REMARK  status: ('A' for Active; 'I' for Inactive)
REMARK    1  A    between atoms: O_1  and  C_2
REMARK    2  A    between atoms: C_5  and  C_8
REMARK    3  A    between atoms: C_14  and  O_15
REMARK                            x       y       z     vdW  Elec       q    Type
REMARK                         _______ _______ _______ _____ _____    ______ ____
ROOT
ATOM      1  C   UNL     1       7.938  -0.949  23.091  0.00  0.00    +0.044 C 
ATOM      2  C   UNL     1       8.245  -2.215  22.345  0.00  0.00    +0.195 C 
ATOM      3  O   UNL     1       9.215  -2.468  21.658  0.00  0.00    -0.287 OA
ATOM      4  C   UNL     1       7.150  -3.141  22.576  0.00  0.00    +0.034 A 
ATOM      5  C   UNL     1       6.987  -4.432  22.106  0.00  0.00    +0.057 A 
ATOM      6  C   UNL     1       5.824  -5.090  22.489  0.00  0.00    +0.118 A 
ATOM      7  C   UNL     1       4.871  -4.463  23.302  0.00  0.00    +0.046 A 
ATOM      8  C   UNL     1       5.075  -3.155  23.761  0.00  0.00    +0.013 A 
ATOM      9  C   UNL     1       6.239  -2.495  23.392  0.00  0.00    +0.001 A 
ATOM     10  C   UNL     1       6.752  -1.162  23.709  0.00  0.00    +0.037 C 
ATOM     11 BR   UNL     1       5.828  -0.055  24.871  0.00  0.00    -0.049 Br
ENDROOT
BRANCH   1  15
ATOM     12  C   UNL     1      10.474   2.518  23.125  0.00  0.00    +0.117 A 
ATOM     13  C   UNL     1      10.314   1.777  24.286  0.00  0.00    +0.046 A 
ATOM     14  C   UNL     1       9.488   0.647  24.282  0.00  0.00    +0.012 A 
ATOM     15  C   UNL     1       8.840   0.221  23.111  0.00  0.00    -0.013 A 
ATOM     16  C   UNL     1       9.037   0.986  21.949  0.00  0.00    +0.012 A 
ATOM     17  C   UNL     1       9.841   2.133  21.953  0.00  0.00    +0.046 A 
BRANCH  12  18
ATOM     18  O   UNL     1      11.253   3.634  23.184  0.00  0.00    -0.507 OA
ATOM     19  H   UNL     1      11.960   3.553  22.523  0.00  0.00    +0.292 HD
ENDBRANCH  12  18
ENDBRANCH   1  15
BRANCH   6  20
ATOM     20  O   UNL     1       5.563  -6.365  22.085  0.00  0.00    -0.507 OA
ATOM     21  H   UNL     1       6.356  -6.912  22.220  0.00  0.00    +0.292 HD
ENDBRANCH   6  20
TORSDOF 3
ENDMDL
MODEL 8
REMARK VINA RESULT:      -6.2      3.112      3.324
REMARK  Name = 
REMARK  3 active torsions:
REMARK  status: ('A' for Active; 'I' for Inactive)
REMARK    1  A    between atoms: O_1  and  C_2
REMARK    2  A    between atoms: C_5  and  C_8
REMARK    3  A    between atoms: C_14  and  O_15
REMARK                            x       y       z     vdW  Elec       q    Type
REMARK                         _______ _______ _______ _____ _____    ______ ____
ROOT
ATOM      1  C   UNL     1       8.016  -1.486  24.895  0.00  0.00    +0.044 C 
ATOM      2  C   UNL     1       8.712  -2.777  25.213  0.00  0.00    +0.195 C 
ATOM      3  O   UNL     1       9.785  -3.176  24.803  0.00  0.00    -0.287 OA
ATOM      4  C   UNL     1       7.866  -3.522  26.129  0.00  0.00    +0.034 A 
ATOM      5  C   UNL     1       8.086  -4.761  26.707  0.00  0.00    +0.057 A 
ATOM      6  C   UNL     1       7.090  -5.236  27.552  0.00  0.00    +0.118 A 
ATOM      7  C   UNL     1       5.925  -4.496  27.789  0.00  0.00    +0.046 A 
ATOM      8  C   UNL     1       5.742  -3.244  27.187  0.00  0.00    +0.013 A 
ATOM      9  C   UNL     1       6.736  -2.755  26.351  0.00  0.00    +0.001 A 
ATOM     10  C   UNL     1       6.860  -1.506  25.600  0.00  0.00    +0.037 C 
ATOM     11 BR   UNL     1       5.563  -0.192  25.750  0.00  0.00    -0.049 Br
ENDROOT
BRANCH   1  15
ATOM     12  C   UNL     1       9.774   1.464  22.316  0.00  0.00    +0.117 A 
ATOM     13  C   UNL     1       8.717   0.695  21.854  0.00  0.00    +0.046 A 
ATOM     14  C   UNL     1       8.141  -0.269  22.689  0.00  0.00    +0.012 A 
ATOM     15  C   UNL     1       8.587  -0.452  24.008  0.00  0.00    -0.013 A 
ATOM     16  C   UNL     1       9.649   0.355  24.449  0.00  0.00    +0.012 A 
ATOM     17  C   UNL     1      10.248   1.303  23.609  0.00  0.00    +0.046 A 
BRANCH  12  18
ATOM     18  O   UNL     1      10.334   2.361  21.457  0.00  0.00    -0.507 OA
ATOM     19  H   UNL     1      10.633   1.885  20.664  0.00  0.00    +0.292 HD
ENDBRANCH  12  18
ENDBRANCH   1  15
BRANCH   6  20
ATOM     20  O   UNL     1       7.204  -6.443  28.175  0.00  0.00    -0.507 OA
ATOM     21  H   UNL     1       7.783  -7.021  27.649  0.00  0.00    +0.292 HD
ENDBRANCH   6  20
TORSDOF 3
ENDMDL
MODEL 9
REMARK VINA RESULT:      -6.2      2.623      6.790
REMARK  Name = 
REMARK  3 active torsions:
REMARK  status: ('A' for Active; 'I' for Inactive)
REMARK    1  A    between atoms: O_1  and  C_2
REMARK    2  A    between atoms: C_5  and  C_8
REMARK    3  A    between atoms: C_14  and  O_15
REMARK                            x       y       z     vdW  Elec       q    Type
REMARK                         _______ _______ _______ _____ _____    ______ ____
ROOT
ATOM      1  C   UNL     1       7.613  -1.332  24.046  0.00  0.00    +0.044 C 
ATOM      2  C   UNL     1       6.492  -0.342  24.185  0.00  0.00    +0.195 C 
ATOM      3  O   UNL     1       5.500  -0.420  24.882  0.00  0.00    -0.287 OA
ATOM      4  C   UNL     1       6.784   0.781  23.311  0.00  0.00    +0.034 A 
ATOM      5  C   UNL     1       6.052   1.937  23.105  0.00  0.00    +0.057 A 
ATOM      6  C   UNL     1       6.577   2.851  22.198  0.00  0.00    +0.118 A 
ATOM      7  C   UNL     1       7.780   2.596  21.527  0.00  0.00    +0.046 A 
ATOM      8  C   UNL     1       8.494   1.415  21.767  0.00  0.00    +0.013 A 
ATOM      9  C   UNL     1       7.983   0.503  22.680  0.00  0.00    +0.001 A 
ATOM     10  C   UNL     1       8.479  -0.787  23.160  0.00  0.00    +0.037 C 
ATOM     11 BR   UNL     1      10.124  -1.425  22.596  0.00  0.00    -0.049 Br
ENDROOT
BRANCH   1  15
ATOM     12  C   UNL     1       7.760  -4.961  26.338  0.00  0.00    +0.117 A 
ATOM     13  C   UNL     1       6.875  -4.859  25.277  0.00  0.00    +0.046 A 
ATOM     14  C   UNL     1       6.821  -3.678  24.527  0.00  0.00    +0.012 A 
ATOM     15  C   UNL     1       7.675  -2.599  24.803  0.00  0.00    -0.013 A 
ATOM     16  C   UNL     1       8.571  -2.743  25.876  0.00  0.00    +0.012 A 
ATOM     17  C   UNL     1       8.611  -3.911  26.647  0.00  0.00    +0.046 A 
BRANCH  12  18
ATOM     18  O   UNL     1       7.750  -6.111  27.068  0.00  0.00    -0.507 OA
ATOM     19  H   UNL     1       8.652  -6.472  27.090  0.00  0.00    +0.292 HD
ENDBRANCH  12  18
ENDBRANCH   1  15
BRANCH   6  20
ATOM     20  O   UNL     1       5.939   4.023  21.920  0.00  0.00    -0.507 OA
ATOM     21  H   UNL     1       6.033   4.220  20.972  0.00  0.00    +0.292 HD
ENDBRANCH   6  20
TORSDOF 3
ENDMDL
