MODEL 1
REMARK VINA RESULT:      -3.9      0.000      0.000
REMARK  Name = 
REMARK  8 active torsions:
REMARK  status: ('A' for Active; 'I' for Inactive)
REMARK    1  A    between atoms: O_1  and  C_2
REMARK    2  A    between atoms: C_2  and  C_3
REMARK    3  A    between atoms: C_3  and  O_5
REMARK    4  A    between atoms: C_3  and  C_6
REMARK    5  A    between atoms: C_6  and  O_8
REMARK    6  A    between atoms: C_6  and  C_9
REMARK    7  A    between atoms: C_9  and  C_11
REMARK    8  A    between atoms: C_11  and  O_12
REMARK                            x       y       z     vdW  Elec       q    Type
REMARK                         _______ _______ _______ _____ _____    ______ ____
ROOT
ATOM      1  C   UNL     1       8.791  -3.191  23.869  0.00  0.00    +0.213 C 
ENDROOT
BRANCH   1   2
ATOM      2  C   UNL     1       8.400  -4.642  24.154  0.00  0.00    +0.189 C 
ATOM      3  O   UNL     1       7.642  -5.265  23.401  0.00  0.00    -0.292 OA
BRANCH   2   4
ATOM      4  C   UNL     1       8.928  -5.288  25.429  0.00  0.00    +0.232 C 
BRANCH   4   5
ATOM      5  O   UNL     1      10.306  -5.624  25.317  0.00  0.00    -0.387 OA
ATOM      6  H   UNL     1      10.602  -5.866  26.218  0.00  0.00    +0.210 HD
ENDBRANCH   4   5
ENDBRANCH   2   4
ENDBRANCH   1   2
BRANCH   1   7
ATOM      7  O   UNL     1      10.208  -3.040  23.902  0.00  0.00    -0.382 OA
ATOM      8  H   UNL     1      10.388  -2.093  24.045  0.00  0.00    +0.210 HD
ENDBRANCH   1   7
BRANCH   1   9
ATOM      9  C   UNL     1       8.240  -2.709  22.525  0.00  0.00    +0.176 C 
BRANCH   9  10
ATOM     10  O   UNL     1       6.818  -2.560  22.591  0.00  0.00    -0.387 OA
ATOM     11  H   UNL     1       6.559  -2.951  23.451  0.00  0.00    +0.210 HD
ENDBRANCH   9  10
BRANCH   9  12
ATOM     12  C   UNL     1       8.849  -1.357  22.129  0.00  0.00    +0.190 C 
BRANCH  12  13
ATOM     13  O   UNL     1      10.065  -1.605  21.418  0.00  0.00    -0.392 OA
ATOM     14  H   UNL     1      10.535  -2.307  21.904  0.00  0.00    +0.210 HD
ENDBRANCH  12  13
ENDBRANCH   9  12
ENDBRANCH   1   9
TORSDOF 8
ENDMDL
MODEL 2
REMARK VINA RESULT:      -3.8      3.145      4.465
REMARK  Name = 
REMARK  8 active torsions:
REMARK  status: ('A' for Active; 'I' for Inactive)
REMARK    1  A    between atoms: O_1  and  C_2
REMARK    2  A    between atoms: C_2  and  C_3
REMARK    3  A    between atoms: C_3  and  O_5
REMARK    4  A    between atoms: C_3  and  C_6
REMARK    5  A    between atoms: C_6  and  O_8
REMARK    6  A    between atoms: C_6  and  C_9
REMARK    7  A    between atoms: C_9  and  C_11
REMARK    8  A    between atoms: C_11  and  O_12
REMARK                            x       y       z     vdW  Elec       q    Type
REMARK                         _______ _______ _______ _____ _____    ______ ____
ROOT
ATOM      1  C   UNL     1       7.061  -5.287  26.601  0.00  0.00    +0.213 C 
ENDROOT
BRANCH   1   2
ATOM      2  C   UNL     1       5.744  -6.053  26.466  0.00  0.00    +0.189 C 
ATOM      3  O   UNL     1       5.268  -6.329  25.359  0.00  0.00    -0.292 OA
BRANCH   2   4
ATOM      4  C   UNL     1       5.000  -6.424  27.743  0.00  0.00    +0.232 C 
BRANCH   4   5
ATOM      5  O   UNL     1       5.537  -7.596  28.345  0.00  0.00    -0.387 OA
ATOM      6  H   UNL     1       6.212  -7.289  28.984  0.00  0.00    +0.210 HD
ENDBRANCH   4   5
ENDBRANCH   2   4
ENDBRANCH   1   2
BRANCH   1   7
ATOM      7  O   UNL     1       7.922  -5.932  27.535  0.00  0.00    -0.382 OA
ATOM      8  H   UNL     1       8.211  -5.251  28.170  0.00  0.00    +0.210 HD
ENDBRANCH   1   7
BRANCH   1   9
ATOM      9  C   UNL     1       7.767  -5.132  25.251  0.00  0.00    +0.176 C 
BRANCH   9  10
ATOM     10  O   UNL     1       7.096  -4.158  24.444  0.00  0.00    -0.387 OA
ATOM     11  H   UNL     1       6.721  -3.513  25.080  0.00  0.00    +0.210 HD
ENDBRANCH   9  10
BRANCH   9  12
ATOM     12  C   UNL     1       9.223  -4.686  25.435  0.00  0.00    +0.190 C 
BRANCH  12  13
ATOM     13  O   UNL     1      10.063  -5.839  25.320  0.00  0.00    -0.392 OA
ATOM     14  H   UNL     1      10.272  -6.123  26.228  0.00  0.00    +0.210 HD
ENDBRANCH  12  13
ENDBRANCH   9  12
ENDBRANCH   1   9
TORSDOF 8
ENDMDL
MODEL 3
REMARK VINA RESULT:      -3.8      7.739      9.357
REMARK  Name = 
REMARK  8 active torsions:
REMARK  status: ('A' for Active; 'I' for Inactive)
REMARK    1  A    between atoms: O_1  and  C_2
REMARK    2  A    between atoms: C_2  and  C_3
REMARK    3  A    between atoms: C_3  and  O_5
REMARK    4  A    between atoms: C_3  and  C_6
REMARK    5  A    between atoms: C_6  and  O_8
REMARK    6  A    between atoms: C_6  and  C_9
REMARK    7  A    between atoms: C_9  and  C_11
REMARK    8  A    between atoms: C_11  and  O_12
REMARK                            x       y       z     vdW  Elec       q    Type
REMARK                         _______ _______ _______ _____ _____    ______ ____
ROOT
ATOM      1  C   UNL     1      11.275   4.617  23.707  0.00  0.00    +0.213 C 
ENDROOT
BRANCH   1   2
ATOM      2  C   UNL     1       9.830   4.998  24.031  0.00  0.00    +0.189 C 
ATOM      3  O   UNL     1       9.550   6.086  24.548  0.00  0.00    -0.292 OA
BRANCH   2   4
ATOM      4  C   UNL     1       8.740   3.972  23.749  0.00  0.00    +0.232 C 
BRANCH   4   5
ATOM      5  O   UNL     1       8.416   3.914  22.365  0.00  0.00    -0.387 OA
ATOM      6  H   UNL     1       8.023   4.781  22.141  0.00  0.00    +0.210 HD
ENDBRANCH   4   5
ENDBRANCH   2   4
ENDBRANCH   1   2
BRANCH   1   7
ATOM      7  O   UNL     1      11.322   3.742  22.583  0.00  0.00    -0.382 OA
ATOM      8  H   UNL     1      12.029   3.094  22.759  0.00  0.00    +0.210 HD
ENDBRANCH   1   7
BRANCH   1   9
ATOM      9  C   UNL     1      12.143   5.852  23.450  0.00  0.00    +0.176 C 
BRANCH   9  10
ATOM     10  O   UNL     1      12.763   6.290  24.665  0.00  0.00    -0.387 OA
ATOM     11  H   UNL     1      13.166   5.485  25.051  0.00  0.00    +0.210 HD
ENDBRANCH   9  10
BRANCH   9  12
ATOM     12  C   UNL     1      13.247   5.552  22.427  0.00  0.00    +0.190 C 
BRANCH  12  13
ATOM     13  O   UNL     1      14.347   4.953  23.119  0.00  0.00    -0.392 OA
ATOM     14  H   UNL     1      13.993   4.601  23.955  0.00  0.00    +0.210 HD
ENDBRANCH  12  13
ENDBRANCH   9  12
ENDBRANCH   1   9
TORSDOF 8
ENDMDL
MODEL 4
REMARK VINA RESULT:      -3.8      2.386      5.124
REMARK  Name = 
REMARK  8 active torsions:
REMARK  status: ('A' for Active; 'I' for Inactive)
REMARK    1  A    between atoms: O_1  and  C_2
REMARK    2  A    between atoms: C_2  and  C_3
REMARK    3  A    between atoms: C_3  and  O_5
REMARK    4  A    between atoms: C_3  and  C_6
REMARK    5  A    between atoms: C_6  and  O_8
REMARK    6  A    between atoms: C_6  and  C_9
REMARK    7  A    between atoms: C_9  and  C_11
REMARK    8  A    between atoms: C_11  and  O_12
REMARK                            x       y       z     vdW  Elec       q    Type
REMARK                         _______ _______ _______ _____ _____    ______ ____
ROOT
ATOM      1  C   UNL     1       8.666  -0.203  23.038  0.00  0.00    +0.213 C 
ENDROOT
BRANCH   1   2
ATOM      2  C   UNL     1       9.965   0.555  23.314  0.00  0.00    +0.189 C 
ATOM      3  O   UNL     1      10.898   0.033  23.935  0.00  0.00    -0.292 OA
BRANCH   2   4
ATOM      4  C   UNL     1      10.061   2.003  22.846  0.00  0.00    +0.232 C 
BRANCH   4   5
ATOM      5  O   UNL     1      10.033   2.101  21.427  0.00  0.00    -0.387 OA
ATOM      6  H   UNL     1       9.189   2.542  21.202  0.00  0.00    +0.210 HD
ENDBRANCH   4   5
ENDBRANCH   2   4
ENDBRANCH   1   2
BRANCH   1   7
ATOM      7  O   UNL     1       7.765   0.606  22.287  0.00  0.00    -0.382 OA
ATOM      8  H   UNL     1       8.177   0.755  21.416  0.00  0.00    +0.210 HD
ENDBRANCH   1   7
BRANCH   1   9
ATOM      9  C   UNL     1       8.924  -1.523  22.308  0.00  0.00    +0.176 C 
BRANCH   9  10
ATOM     10  O   UNL     1      10.213  -1.508  21.685  0.00  0.00    -0.387 OA
ATOM     11  H   UNL     1      10.041  -1.680  20.736  0.00  0.00    +0.210 HD
ENDBRANCH   9  10
BRANCH   9  12
ATOM     12  C   UNL     1       8.870  -2.712  23.276  0.00  0.00    +0.190 C 
BRANCH  12  13
ATOM     13  O   UNL     1      10.189  -2.933  23.787  0.00  0.00    -0.392 OA
ATOM     14  H   UNL     1      10.809  -2.638  23.096  0.00  0.00    +0.210 HD
ENDBRANCH  12  13
ENDBRANCH   9  12
ENDBRANCH   1   9
TORSDOF 8
ENDMDL
MODEL 5
REMARK VINA RESULT:      -3.8      1.736      2.867
REMARK  Name = 
REMARK  8 active torsions:
REMARK  status: ('A' for Active; 'I' for Inactive)
REMARK    1  A    between atoms: O_1  and  C_2
REMARK    2  A    between atoms: C_2  and  C_3
REMARK    3  A    between atoms: C_3  and  O_5
REMARK    4  A    between atoms: C_3  and  C_6
REMARK    5  A    between atoms: C_6  and  O_8
REMARK    6  A    between atoms: C_6  and  C_9
REMARK    7  A    between atoms: C_9  and  C_11
REMARK    8  A    between atoms: C_11  and  O_12
REMARK                            x       y       z     vdW  Elec       q    Type
REMARK                         _______ _______ _______ _____ _____    ______ ____
ROOT
ATOM      1  C   UNL     1       8.952  -0.716  23.469  0.00  0.00    +0.213 C 
ENDROOT
BRANCH   1   2
ATOM      2  C   UNL     1       8.325  -2.093  23.246  0.00  0.00    +0.189 C 
ATOM      3  O   UNL     1       7.448  -2.273  22.393  0.00  0.00    -0.292 OA
BRANCH   2   4
ATOM      4  C   UNL     1       8.774  -3.238  24.147  0.00  0.00    +0.232 C 
BRANCH   4   5
ATOM      5  O   UNL     1      10.179  -3.448  24.070  0.00  0.00    -0.387 OA
ATOM      6  H   UNL     1      10.388  -3.546  23.120  0.00  0.00    +0.210 HD
ENDBRANCH   4   5
ENDBRANCH   2   4
ENDBRANCH   1   2
BRANCH   1   7
ATOM      7  O   UNL     1       9.652  -0.681  24.710  0.00  0.00    -0.382 OA
ATOM      8  H   UNL     1      10.479  -0.188  24.553  0.00  0.00    +0.210 HD
ENDBRANCH   1   7
BRANCH   1   9
ATOM      9  C   UNL     1       9.888  -0.326  22.323  0.00  0.00    +0.176 C 
BRANCH   9  10
ATOM     10  O   UNL     1      10.236  -1.478  21.547  0.00  0.00    -0.387 OA
ATOM     11  H   UNL     1      11.215  -1.474  21.507  0.00  0.00    +0.210 HD
ENDBRANCH   9  10
BRANCH   9  12
ATOM     12  C   UNL     1       9.229   0.700  21.392  0.00  0.00    +0.190 C 
BRANCH  12  13
ATOM     13  O   UNL     1       9.945   1.934  21.507  0.00  0.00    -0.392 OA
ATOM     14  H   UNL     1       9.277   2.643  21.531  0.00  0.00    +0.210 HD
ENDBRANCH  12  13
ENDBRANCH   9  12
ENDBRANCH   1   9
TORSDOF 8
ENDMDL
MODEL 6
REMARK VINA RESULT:      -3.8      3.730      5.444
REMARK  Name = 
REMARK  8 active torsions:
REMARK  status: ('A' for Active; 'I' for Inactive)
REMARK    1  A    between atoms: O_1  and  C_2
REMARK    2  A    between atoms: C_2  and  C_3
REMARK    3  A    between atoms: C_3  and  O_5
REMARK    4  A    between atoms: C_3  and  C_6
REMARK    5  A    between atoms: C_6  and  O_8
REMARK    6  A    between atoms: C_6  and  C_9
REMARK    7  A    between atoms: C_9  and  C_11
REMARK    8  A    between atoms: C_11  and  O_12
REMARK                            x       y       z     vdW  Elec       q    Type
REMARK                         _______ _______ _______ _____ _____    ______ ____
ROOT
ATOM      1  C   UNL     1      10.249   0.416  24.333  0.00  0.00    +0.213 C 
ENDROOT
BRANCH   1   2
ATOM      2  C   UNL     1       9.772   1.825  23.978  0.00  0.00    +0.189 C 
ATOM      3  O   UNL     1       8.827   2.356  24.573  0.00  0.00    -0.292 OA
BRANCH   2   4
ATOM      4  C   UNL     1      10.461   2.544  22.824  0.00  0.00    +0.232 C 
BRANCH   4   5
ATOM      5  O   UNL     1       9.975   2.101  21.562  0.00  0.00    -0.387 OA
ATOM      6  H   UNL     1       9.471   1.281  21.737  0.00  0.00    +0.210 HD
ENDBRANCH   4   5
ENDBRANCH   2   4
ENDBRANCH   1   2
BRANCH   1   7
ATOM      7  O   UNL     1      10.207   0.215  25.743  0.00  0.00    -0.382 OA
ATOM      8  H   UNL     1      10.764   0.908  26.144  0.00  0.00    +0.210 HD
ENDBRANCH   1   7
BRANCH   1   9
ATOM      9  C   UNL     1       9.423  -0.658  23.621  0.00  0.00    +0.176 C 
BRANCH   9  10
ATOM     10  O   UNL     1       8.288  -0.072  22.975  0.00  0.00    -0.387 OA
ATOM     11  H   UNL     1       8.117  -0.639  22.195  0.00  0.00    +0.210 HD
ENDBRANCH   9  10
BRANCH   9  12
ATOM     12  C   UNL     1      10.258  -1.388  22.561  0.00  0.00    +0.190 C 
BRANCH  12  13
ATOM     13  O   UNL     1       9.922  -0.851  21.278  0.00  0.00    -0.392 OA
ATOM     14  H   UNL     1      10.546  -0.122  21.109  0.00  0.00    +0.210 HD
ENDBRANCH  12  13
ENDBRANCH   9  12
ENDBRANCH   1   9
TORSDOF 8
ENDMDL
MODEL 7
REMARK VINA RESULT:      -3.8      2.318      3.685
REMARK  Name = 
REMARK  8 active torsions:
REMARK  status: ('A' for Active; 'I' for Inactive)
REMARK    1  A    between atoms: O_1  and  C_2
REMARK    2  A    between atoms: C_2  and  C_3
REMARK    3  A    between atoms: C_3  and  O_5
REMARK    4  A    between atoms: C_3  and  C_6
REMARK    5  A    between atoms: C_6  and  O_8
REMARK    6  A    between atoms: C_6  and  C_9
REMARK    7  A    between atoms: C_9  and  C_11
REMARK    8  A    between atoms: C_11  and  O_12
REMARK                            x       y       z     vdW  Elec       q    Type
REMARK                         _______ _______ _______ _____ _____    ______ ____
ROOT
ATOM      1  C   UNL     1       9.959  -0.416  22.329  0.00  0.00    +0.213 C 
ENDROOT
BRANCH   1   2
ATOM      2  C   UNL     1       9.996  -0.993  23.745  0.00  0.00    +0.189 C 
ATOM      3  O   UNL     1      10.192  -0.272  24.730  0.00  0.00    -0.292 OA
BRANCH   2   4
ATOM      4  C   UNL     1       9.837  -2.499  23.908  0.00  0.00    +0.232 C 
BRANCH   4   5
ATOM      5  O   UNL     1       8.602  -2.960  23.371  0.00  0.00    -0.387 OA
ATOM      6  H   UNL     1       7.909  -2.381  23.749  0.00  0.00    +0.210 HD
ENDBRANCH   4   5
ENDBRANCH   2   4
ENDBRANCH   1   2
BRANCH   1   7
ATOM      7  O   UNL     1      10.144  -1.448  21.364  0.00  0.00    -0.382 OA
ATOM      8  H   UNL     1      10.704  -2.128  21.781  0.00  0.00    +0.210 HD
ENDBRANCH   1   7
BRANCH   1   9
ATOM      9  C   UNL     1       8.654   0.335  22.056  0.00  0.00    +0.176 C 
BRANCH   9  10
ATOM     10  O   UNL     1       7.677   0.021  23.054  0.00  0.00    -0.387 OA
ATOM     11  H   UNL     1       6.812   0.206  22.633  0.00  0.00    +0.210 HD
ENDBRANCH   9  10
BRANCH   9  12
ATOM     12  C   UNL     1       8.876   1.853  22.059  0.00  0.00    +0.190 C 
BRANCH  12  13
ATOM     13  O   UNL     1      10.194   2.114  21.566  0.00  0.00    -0.392 OA
ATOM     14  H   UNL     1      10.676   1.268  21.600  0.00  0.00    +0.210 HD
ENDBRANCH  12  13
ENDBRANCH   9  12
ENDBRANCH   1   9
TORSDOF 8
ENDMDL
MODEL 8
REMARK VINA RESULT:      -3.7      2.170      4.432
REMARK  Name = 
REMARK  8 active torsions:
REMARK  status: ('A' for Active; 'I' for Inactive)
REMARK    1  A    between atoms: O_1  and  C_2
REMARK    2  A    between atoms: C_2  and  C_3
REMARK    3  A    between atoms: C_3  and  O_5
REMARK    4  A    between atoms: C_3  and  C_6
REMARK    5  A    between atoms: C_6  and  O_8
REMARK    6  A    between atoms: C_6  and  C_9
REMARK    7  A    between atoms: C_9  and  C_11
REMARK    8  A    between atoms: C_11  and  O_12
REMARK                            x       y       z     vdW  Elec       q    Type
REMARK                         _______ _______ _______ _____ _____    ______ ____
ROOT
ATOM      1  C   UNL     1       7.272  -4.740  24.453  0.00  0.00    +0.213 C 
ENDROOT
BRANCH   1   2
ATOM      2  C   UNL     1       7.407  -4.712  22.930  0.00  0.00    +0.189 C 
ATOM      3  O   UNL     1       7.614  -3.657  22.320  0.00  0.00    -0.292 OA
BRANCH   2   4
ATOM      4  C   UNL     1       7.226  -6.022  22.172  0.00  0.00    +0.232 C 
BRANCH   4   5
ATOM      5  O   UNL     1       5.855  -6.394  22.085  0.00  0.00    -0.387 OA
ATOM      6  H   UNL     1       5.770  -6.932  21.272  0.00  0.00    +0.210 HD
ENDBRANCH   4   5
ENDBRANCH   2   4
ENDBRANCH   1   2
BRANCH   1   7
ATOM      7  O   UNL     1       6.243  -5.643  24.848  0.00  0.00    -0.382 OA
ATOM      8  H   UNL     1       6.682  -6.472  25.114  0.00  0.00    +0.210 HD
ENDBRANCH   1   7
BRANCH   1   9
ATOM      9  C   UNL     1       8.592  -5.113  25.133  0.00  0.00    +0.176 C 
BRANCH   9  10
ATOM     10  O   UNL     1       9.688  -4.443  24.500  0.00  0.00    -0.387 OA
ATOM     11  H   UNL     1      10.441  -4.544  25.119  0.00  0.00    +0.210 HD
ENDBRANCH   9  10
BRANCH   9  12
ATOM     12  C   UNL     1       8.581  -4.724  26.617  0.00  0.00    +0.190 C 
BRANCH  12  13
ATOM     13  O   UNL     1       7.977  -5.790  27.355  0.00  0.00    -0.392 OA
ATOM     14  H   UNL     1       7.292  -6.175  26.779  0.00  0.00    +0.210 HD
ENDBRANCH  12  13
ENDBRANCH   9  12
ENDBRANCH   1   9
TORSDOF 8
ENDMDL
MODEL 9
REMARK VINA RESULT:      -3.7      3.567      5.060
REMARK  Name = 
REMARK  8 active torsions:
REMARK  status: ('A' for Active; 'I' for Inactive)
REMARK    1  A    between atoms: O_1  and  C_2
REMARK    2  A    between atoms: C_2  and  C_3
REMARK    3  A    between atoms: C_3  and  O_5
REMARK    4  A    between atoms: C_3  and  C_6
REMARK    5  A    between atoms: C_6  and  O_8
REMARK    6  A    between atoms: C_6  and  C_9
REMARK    7  A    between atoms: C_9  and  C_11
REMARK    8  A    between atoms: C_11  and  O_12
REMARK                            x       y       z     vdW  Elec       q    Type
REMARK                         _______ _______ _______ _____ _____    ______ ____
ROOT
ATOM      1  C   UNL     1       9.594   0.744  23.556  0.00  0.00    +0.213 C 
ENDROOT
BRANCH   1   2
ATOM      2  C   UNL     1       8.580   0.035  22.658  0.00  0.00    +0.189 C 
ATOM      3  O   UNL     1       7.486   0.546  22.392  0.00  0.00    -0.292 OA
BRANCH   2   4
ATOM      4  C   UNL     1       8.932  -1.353  22.138  0.00  0.00    +0.232 C 
BRANCH   4   5
ATOM      5  O   UNL     1      10.099  -1.330  21.324  0.00  0.00    -0.387 OA
ATOM      6  H   UNL     1      10.719  -1.976  21.719  0.00  0.00    +0.210 HD
ENDBRANCH   4   5
ENDBRANCH   2   4
ENDBRANCH   1   2
BRANCH   1   7
ATOM      7  O   UNL     1      10.657  -0.139  23.904  0.00  0.00    -0.382 OA
ATOM      8  H   UNL     1      10.250  -0.999  24.120  0.00  0.00    +0.210 HD
ENDBRANCH   1   7
BRANCH   1   9
ATOM      9  C   UNL     1      10.153   2.007  22.895  0.00  0.00    +0.176 C 
BRANCH   9  10
ATOM     10  O   UNL     1      10.022   1.926  21.471  0.00  0.00    -0.387 OA
ATOM     11  H   UNL     1      10.771   1.368  21.176  0.00  0.00    +0.210 HD
ENDBRANCH   9  10
BRANCH   9  12
ATOM     12  C   UNL     1       9.411   3.260  23.377  0.00  0.00    +0.190 C 
BRANCH  12  13
ATOM     13  O   UNL     1       8.392   3.573  22.422  0.00  0.00    -0.392 OA
ATOM     14  H   UNL     1       8.733   4.309  21.882  0.00  0.00    +0.210 HD
ENDBRANCH  12  13
ENDBRANCH   9  12
ENDBRANCH   1   9
TORSDOF 8
ENDMDL
