MODEL 1
REMARK VINA RESULT:      -4.8      0.000      0.000
REMARK  Name = 
REMARK  5 active torsions:
REMARK  status: ('A' for Active; 'I' for Inactive)
REMARK    1  A    between atoms: O_1  and  C_2
REMARK    2  A    between atoms: C_2  and  C_3
REMARK    3  A    between atoms: C_9  and  O_11
REMARK    4  A    between atoms: C_12  and  O_14
REMARK    5  A    between atoms: C_15  and  O_17
REMARK                            x       y       z     vdW  Elec       q    Type
REMARK                         _______ _______ _______ _____ _____    ______ ____
ROOT
ATOM      1  C   UNL     1       9.561  -1.081  23.904  0.00  0.00    +0.264 C 
ATOM      2  C   UNL     1      10.416   0.139  24.321  0.00  0.00    +0.212 C 
ATOM      3  C   UNL     1      10.005   1.399  23.546  0.00  0.00    +0.182 C 
ATOM      4  C   UNL     1       9.932   1.129  22.044  0.00  0.00    +0.206 C 
ATOM      5  C   UNL     1       9.098  -0.126  21.760  0.00  0.00    +0.331 C 
ATOM      6  F   UNL     1       9.253  -0.445  20.444  0.00  0.00    -0.212 F 
ATOM      7  O   UNL     1       9.539  -1.257  22.487  0.00  0.00    -0.304 OA
ATOM      8  F   UNL     1      10.182  -2.200  24.389  0.00  0.00    -0.205 F 
ENDROOT
BRANCH   2   9
ATOM      9  O   UNL     1      10.350   0.351  25.743  0.00  0.00    -0.383 OA
ATOM     10  H   UNL     1      10.796  -0.391  26.186  0.00  0.00    +0.210 HD
ENDBRANCH   2   9
BRANCH   3  11
ATOM     11  O   UNL     1      10.936   2.464  23.795  0.00  0.00    -0.386 OA
ATOM     12  H   UNL     1      10.838   3.090  23.049  0.00  0.00    +0.210 HD
ENDBRANCH   3  11
BRANCH   4  13
ATOM     13  O   UNL     1       9.415   2.317  21.412  0.00  0.00    -0.384 OA
ATOM     14  H   UNL     1       8.602   2.087  20.928  0.00  0.00    +0.210 HD
ENDBRANCH   4  13
BRANCH   1  15
ATOM     15  C   UNL     1       8.140  -1.086  24.510  0.00  0.00    +0.229 C 
BRANCH  15  16
ATOM     16  O   UNL     1       8.111  -1.483  25.883  0.00  0.00    -0.389 OA
ATOM     17  H   UNL     1       8.769  -2.199  25.976  0.00  0.00    +0.210 HD
ENDBRANCH  15  16
ENDBRANCH   1  15
TORSDOF 5
ENDMDL
MODEL 2
REMARK VINA RESULT:      -4.8      1.902      3.457
REMARK  Name = 
REMARK  5 active torsions:
REMARK  status: ('A' for Active; 'I' for Inactive)
REMARK    1  A    between atoms: O_1  and  C_2
REMARK    2  A    between atoms: C_2  and  C_3
REMARK    3  A    between atoms: C_9  and  O_11
REMARK    4  A    between atoms: C_12  and  O_14
REMARK    5  A    between atoms: C_15  and  O_17
REMARK                            x       y       z     vdW  Elec       q    Type
REMARK                         _______ _______ _______ _____ _____    ______ ____
ROOT
ATOM      1  C   UNL     1       9.567   1.812  23.842  0.00  0.00    +0.264 C 
ATOM      2  C   UNL     1       9.579   0.425  24.524  0.00  0.00    +0.212 C 
ATOM      3  C   UNL     1      10.130  -0.656  23.583  0.00  0.00    +0.182 C 
ATOM      4  C   UNL     1       9.449  -0.601  22.215  0.00  0.00    +0.206 C 
ATOM      5  C   UNL     1       9.460   0.829  21.663  0.00  0.00    +0.331 C 
ATOM      6  F   UNL     1       8.652   0.862  20.566  0.00  0.00    -0.212 F 
ATOM      7  O   UNL     1       8.921   1.774  22.568  0.00  0.00    -0.304 OA
ATOM      8  F   UNL     1       8.789   2.638  24.607  0.00  0.00    -0.205 F 
ENDROOT
BRANCH   2   9
ATOM      9  O   UNL     1      10.313   0.468  25.762  0.00  0.00    -0.383 OA
ATOM     10  H   UNL     1      10.818  -0.359  25.850  0.00  0.00    +0.210 HD
ENDBRANCH   2   9
BRANCH   3  11
ATOM     11  O   UNL     1       9.945  -1.959  24.156  0.00  0.00    -0.386 OA
ATOM     12  H   UNL     1       9.361  -1.834  24.932  0.00  0.00    +0.210 HD
ENDBRANCH   3  11
BRANCH   4  13
ATOM     13  O   UNL     1      10.111  -1.552  21.360  0.00  0.00    -0.384 OA
ATOM     14  H   UNL     1       9.437  -2.075  20.890  0.00  0.00    +0.210 HD
ENDBRANCH   4  13
BRANCH   1  15
ATOM     15  C   UNL     1      10.955   2.485  23.765  0.00  0.00    +0.229 C 
BRANCH  15  16
ATOM     16  O   UNL     1      10.951   3.710  23.027  0.00  0.00    -0.389 OA
ATOM     17  H   UNL     1      11.729   3.678  22.437  0.00  0.00    +0.210 HD
ENDBRANCH  15  16
ENDBRANCH   1  15
TORSDOF 5
ENDMDL
MODEL 3
REMARK VINA RESULT:      -4.7      1.920      3.891
REMARK  Name = 
REMARK  5 active torsions:
REMARK  status: ('A' for Active; 'I' for Inactive)
REMARK    1  A    between atoms: O_1  and  C_2
REMARK    2  A    between atoms: C_2  and  C_3
REMARK    3  A    between atoms: C_9  and  O_11
REMARK    4  A    between atoms: C_12  and  O_14
REMARK    5  A    between atoms: C_15  and  O_17
REMARK                            x       y       z     vdW  Elec       q    Type
REMARK                         _______ _______ _______ _____ _____    ______ ____
ROOT
ATOM      1  C   UNL     1      10.099   1.406  23.848  0.00  0.00    +0.264 C 
ATOM      2  C   UNL     1      10.177   0.964  22.369  0.00  0.00    +0.212 C 
ATOM      3  C   UNL     1       9.169  -0.153  22.065  0.00  0.00    +0.182 C 
ATOM      4  C   UNL     1       9.262  -1.280  23.094  0.00  0.00    +0.206 C 
ATOM      5  C   UNL     1       9.219  -0.716  24.518  0.00  0.00    +0.331 C 
ATOM      6  F   UNL     1       9.531  -1.725  25.380  0.00  0.00    -0.212 F 
ATOM      7  O   UNL     1      10.185   0.294  24.742  0.00  0.00    -0.304 OA
ATOM      8  F   UNL     1      11.213   2.156  24.111  0.00  0.00    -0.205 F 
ENDROOT
BRANCH   2   9
ATOM      9  O   UNL     1       9.997   2.088  21.487  0.00  0.00    -0.383 OA
ATOM     10  H   UNL     1       9.696   1.758  20.624  0.00  0.00    +0.210 HD
ENDBRANCH   2   9
BRANCH   3  11
ATOM     11  O   UNL     1       9.395  -0.686  20.751  0.00  0.00    -0.386 OA
ATOM     12  H   UNL     1       9.951  -1.483  20.873  0.00  0.00    +0.210 HD
ENDBRANCH   3  11
BRANCH   4  13
ATOM     13  O   UNL     1       8.202  -2.215  22.814  0.00  0.00    -0.384 OA
ATOM     14  H   UNL     1       7.539  -1.778  22.250  0.00  0.00    +0.210 HD
ENDBRANCH   4  13
BRANCH   1  15
ATOM     15  C   UNL     1       8.890   2.312  24.169  0.00  0.00    +0.229 C 
BRANCH  15  16
ATOM     16  O   UNL     1       9.047   3.653  23.699  0.00  0.00    -0.389 OA
ATOM     17  H   UNL     1       9.671   4.088  24.312  0.00  0.00    +0.210 HD
ENDBRANCH  15  16
ENDBRANCH   1  15
TORSDOF 5
ENDMDL
MODEL 4
REMARK VINA RESULT:      -4.7      1.651      2.321
REMARK  Name = 
REMARK  5 active torsions:
REMARK  status: ('A' for Active; 'I' for Inactive)
REMARK    1  A    between atoms: O_1  and  C_2
REMARK    2  A    between atoms: C_2  and  C_3
REMARK    3  A    between atoms: C_9  and  O_11
REMARK    4  A    between atoms: C_12  and  O_14
REMARK    5  A    between atoms: C_15  and  O_17
REMARK                            x       y       z     vdW  Elec       q    Type
REMARK                         _______ _______ _______ _____ _____    ______ ____
ROOT
ATOM      1  C   UNL     1       9.845   0.342  24.798  0.00  0.00    +0.264 C 
ATOM      2  C   UNL     1      10.165   1.471  23.791  0.00  0.00    +0.212 C 
ATOM      3  C   UNL     1       9.590   1.159  22.402  0.00  0.00    +0.182 C 
ATOM      4  C   UNL     1       9.965  -0.252  21.949  0.00  0.00    +0.206 C 
ATOM      5  C   UNL     1       9.643  -1.274  23.045  0.00  0.00    +0.331 C 
ATOM      6  F   UNL     1      10.199  -2.465  22.685  0.00  0.00    -0.212 F 
ATOM      7  O   UNL     1      10.218  -0.943  24.295  0.00  0.00    -0.304 OA
ATOM      8  F   UNL     1      10.639   0.535  25.895  0.00  0.00    -0.205 F 
ENDROOT
BRANCH   2   9
ATOM      9  O   UNL     1       9.699   2.742  24.280  0.00  0.00    -0.383 OA
ATOM     10  H   UNL     1       9.248   2.600  25.129  0.00  0.00    +0.210 HD
ENDBRANCH   2   9
BRANCH   3  11
ATOM     11  O   UNL     1      10.068   2.112  21.439  0.00  0.00    -0.386 OA
ATOM     12  H   UNL     1       9.715   1.823  20.573  0.00  0.00    +0.210 HD
ENDBRANCH   3  11
BRANCH   4  13
ATOM     13  O   UNL     1       9.282  -0.507  20.707  0.00  0.00    -0.384 OA
ATOM     14  H   UNL     1       8.456   0.009  20.691  0.00  0.00    +0.210 HD
ENDBRANCH   4  13
BRANCH   1  15
ATOM     15  C   UNL     1       8.390   0.359  25.317  0.00  0.00    +0.229 C 
BRANCH  15  16
ATOM     16  O   UNL     1       8.137   1.406  26.258  0.00  0.00    -0.389 OA
ATOM     17  H   UNL     1       8.939   1.962  26.273  0.00  0.00    +0.210 HD
ENDBRANCH  15  16
ENDBRANCH   1  15
TORSDOF 5
ENDMDL
MODEL 5
REMARK VINA RESULT:      -4.7      4.035      5.006
REMARK  Name = 
REMARK  5 active torsions:
REMARK  status: ('A' for Active; 'I' for Inactive)
REMARK    1  A    between atoms: O_1  and  C_2
REMARK    2  A    between atoms: C_2  and  C_3
REMARK    3  A    between atoms: C_9  and  O_11
REMARK    4  A    between atoms: C_12  and  O_14
REMARK    5  A    between atoms: C_15  and  O_17
REMARK                            x       y       z     vdW  Elec       q    Type
REMARK                         _______ _______ _______ _____ _____    ______ ____
ROOT
ATOM      1  C   UNL     1       8.519  -4.774  24.475  0.00  0.00    +0.264 C 
ATOM      2  C   UNL     1       8.447  -3.284  24.069  0.00  0.00    +0.212 C 
ATOM      3  C   UNL     1       7.168  -2.984  23.274  0.00  0.00    +0.182 C 
ATOM      4  C   UNL     1       6.972  -3.986  22.137  0.00  0.00    +0.206 C 
ATOM      5  C   UNL     1       7.111  -5.423  22.653  0.00  0.00    +0.331 C 
ATOM      6  F   UNL     1       7.154  -6.255  21.575  0.00  0.00    -0.212 F 
ATOM      7  O   UNL     1       8.318  -5.642  23.358  0.00  0.00    -0.304 OA
ATOM      8  F   UNL     1       9.800  -5.024  24.888  0.00  0.00    -0.205 F 
ENDROOT
BRANCH   2   9
ATOM      9  O   UNL     1       8.561  -2.431  25.223  0.00  0.00    -0.383 OA
ATOM     10  H   UNL     1       7.942  -2.747  25.902  0.00  0.00    +0.210 HD
ENDBRANCH   2   9
BRANCH   3  11
ATOM     11  O   UNL     1       7.216  -1.654  22.735  0.00  0.00    -0.386 OA
ATOM     12  H   UNL     1       8.094  -1.564  22.310  0.00  0.00    +0.210 HD
ENDBRANCH   3  11
BRANCH   4  13
ATOM     13  O   UNL     1       5.693  -3.714  21.532  0.00  0.00    -0.384 OA
ATOM     14  H   UNL     1       5.709  -4.029  20.610  0.00  0.00    +0.210 HD
ENDBRANCH   4  13
BRANCH   1  15
ATOM     15  C   UNL     1       7.608  -5.144  25.666  0.00  0.00    +0.229 C 
BRANCH  15  16
ATOM     16  O   UNL     1       8.306  -5.787  26.735  0.00  0.00    -0.389 OA
ATOM     17  H   UNL     1       8.402  -5.119  27.441  0.00  0.00    +0.210 HD
ENDBRANCH  15  16
ENDBRANCH   1  15
TORSDOF 5
ENDMDL
MODEL 6
REMARK VINA RESULT:      -4.7      2.438      4.222
REMARK  Name = 
REMARK  5 active torsions:
REMARK  status: ('A' for Active; 'I' for Inactive)
REMARK    1  A    between atoms: O_1  and  C_2
REMARK    2  A    between atoms: C_2  and  C_3
REMARK    3  A    between atoms: C_9  and  O_11
REMARK    4  A    between atoms: C_12  and  O_14
REMARK    5  A    between atoms: C_15  and  O_17
REMARK                            x       y       z     vdW  Elec       q    Type
REMARK                         _______ _______ _______ _____ _____    ______ ____
ROOT
ATOM      1  C   UNL     1       9.422   0.192  22.918  0.00  0.00    +0.264 C 
ATOM      2  C   UNL     1       9.507  -1.349  22.826  0.00  0.00    +0.212 C 
ATOM      3  C   UNL     1       8.170  -1.957  22.380  0.00  0.00    +0.182 C 
ATOM      4  C   UNL     1       7.007  -1.411  23.208  0.00  0.00    +0.206 C 
ATOM      5  C   UNL     1       7.055   0.120  23.262  0.00  0.00    +0.331 C 
ATOM      6  F   UNL     1       6.144   0.537  24.187  0.00  0.00    -0.212 F 
ATOM      7  O   UNL     1       8.305   0.618  23.701  0.00  0.00    -0.304 OA
ATOM      8  F   UNL     1      10.521   0.622  23.609  0.00  0.00    -0.205 F 
ENDROOT
BRANCH   2   9
ATOM      9  O   UNL     1      10.583  -1.753  21.960  0.00  0.00    -0.383 OA
ATOM     10  H   UNL     1      11.305  -2.104  22.508  0.00  0.00    +0.210 HD
ENDBRANCH   2   9
BRANCH   3  11
ATOM     11  O   UNL     1       8.208  -3.388  22.496  0.00  0.00    -0.386 OA
ATOM     12  H   UNL     1       7.381  -3.646  22.953  0.00  0.00    +0.210 HD
ENDBRANCH   3  11
BRANCH   4  13
ATOM     13  O   UNL     1       5.787  -1.928  22.641  0.00  0.00    -0.384 OA
ATOM     14  H   UNL     1       5.401  -1.251  22.056  0.00  0.00    +0.210 HD
ENDBRANCH   4  13
BRANCH   1  15
ATOM     15  C   UNL     1       9.473   0.905  21.548  0.00  0.00    +0.229 C 
BRANCH  15  16
ATOM     16  O   UNL     1      10.137   2.170  21.593  0.00  0.00    -0.389 OA
ATOM     17  H   UNL     1      11.015   2.006  21.989  0.00  0.00    +0.210 HD
ENDBRANCH  15  16
ENDBRANCH   1  15
TORSDOF 5
ENDMDL
MODEL 7
REMARK VINA RESULT:      -4.7      1.913      3.134
REMARK  Name = 
REMARK  5 active torsions:
REMARK  status: ('A' for Active; 'I' for Inactive)
REMARK    1  A    between atoms: O_1  and  C_2
REMARK    2  A    between atoms: C_2  and  C_3
REMARK    3  A    between atoms: C_9  and  O_11
REMARK    4  A    between atoms: C_12  and  O_14
REMARK    5  A    between atoms: C_15  and  O_17
REMARK                            x       y       z     vdW  Elec       q    Type
REMARK                         _______ _______ _______ _____ _____    ______ ____
ROOT
ATOM      1  C   UNL     1       8.734  -0.774  23.411  0.00  0.00    +0.264 C 
ATOM      2  C   UNL     1       9.085   0.054  22.153  0.00  0.00    +0.212 C 
ATOM      3  C   UNL     1       9.868   1.323  22.521  0.00  0.00    +0.182 C 
ATOM      4  C   UNL     1       9.180   2.094  23.647  0.00  0.00    +0.206 C 
ATOM      5  C   UNL     1       8.842   1.160  24.814  0.00  0.00    +0.331 C 
ATOM      6  F   UNL     1       8.038   1.842  25.679  0.00  0.00    -0.212 F 
ATOM      7  O   UNL     1       8.103   0.022  24.415  0.00  0.00    -0.304 OA
ATOM      8  F   UNL     1       7.789  -1.694  23.045  0.00  0.00    -0.205 F 
ENDROOT
BRANCH   2   9
ATOM      9  O   UNL     1       9.801  -0.746  21.194  0.00  0.00    -0.383 OA
ATOM     10  H   UNL     1      10.609  -1.084  21.617  0.00  0.00    +0.210 HD
ENDBRANCH   2   9
BRANCH   3  11
ATOM     11  O   UNL     1      10.006   2.174  21.373  0.00  0.00    -0.386 OA
ATOM     12  H   UNL     1      10.959   2.394  21.311  0.00  0.00    +0.210 HD
ENDBRANCH   3  11
BRANCH   4  13
ATOM     13  O   UNL     1      10.041   3.188  24.016  0.00  0.00    -0.384 OA
ATOM     14  H   UNL     1      10.731   2.855  24.618  0.00  0.00    +0.210 HD
ENDBRANCH   4  13
BRANCH   1  15
ATOM     15  C   UNL     1       9.920  -1.585  23.978  0.00  0.00    +0.229 C 
BRANCH  15  16
ATOM     16  O   UNL     1      10.358  -2.632  23.108  0.00  0.00    -0.389 OA
ATOM     17  H   UNL     1       9.664  -3.319  23.133  0.00  0.00    +0.210 HD
ENDBRANCH  15  16
ENDBRANCH   1  15
TORSDOF 5
ENDMDL
MODEL 8
REMARK VINA RESULT:      -4.6      1.999      2.904
REMARK  Name = 
REMARK  5 active torsions:
REMARK  status: ('A' for Active; 'I' for Inactive)
REMARK    1  A    between atoms: O_1  and  C_2
REMARK    2  A    between atoms: C_2  and  C_3
REMARK    3  A    between atoms: C_9  and  O_11
REMARK    4  A    between atoms: C_12  and  O_14
REMARK    5  A    between atoms: C_15  and  O_17
REMARK                            x       y       z     vdW  Elec       q    Type
REMARK                         _______ _______ _______ _____ _____    ______ ____
ROOT
ATOM      1  C   UNL     1       8.671  -0.977  24.062  0.00  0.00    +0.264 C 
ATOM      2  C   UNL     1       7.643  -0.072  23.343  0.00  0.00    +0.212 C 
ATOM      3  C   UNL     1       8.316   0.786  22.262  0.00  0.00    +0.182 C 
ATOM      4  C   UNL     1       9.553   1.500  22.807  0.00  0.00    +0.206 C 
ATOM      5  C   UNL     1      10.470   0.510  23.535  0.00  0.00    +0.331 C 
ATOM      6  F   UNL     1      11.427   1.227  24.188  0.00  0.00    -0.212 F 
ATOM      7  O   UNL     1       9.797  -0.235  24.533  0.00  0.00    -0.304 OA
ATOM      8  F   UNL     1       8.070  -1.460  25.192  0.00  0.00    -0.205 F 
ENDROOT
BRANCH   2   9
ATOM      9  O   UNL     1       6.563  -0.853  22.799  0.00  0.00    -0.383 OA
ATOM     10  H   UNL     1       6.005  -0.270  22.256  0.00  0.00    +0.210 HD
ENDBRANCH   2   9
BRANCH   3  11
ATOM     11  O   UNL     1       7.391   1.758  21.749  0.00  0.00    -0.386 OA
ATOM     12  H   UNL     1       7.196   2.366  22.492  0.00  0.00    +0.210 HD
ENDBRANCH   3  11
BRANCH   4  13
ATOM     13  O   UNL     1      10.191   2.170  21.704  0.00  0.00    -0.384 OA
ATOM     14  H   UNL     1       9.666   2.019  20.898  0.00  0.00    +0.210 HD
ENDBRANCH   4  13
BRANCH   1  15
ATOM     15  C   UNL     1       9.096  -2.215  23.243  0.00  0.00    +0.229 C 
BRANCH  15  16
ATOM     16  O   UNL     1      10.095  -3.007  23.891  0.00  0.00    -0.389 OA
ATOM     17  H   UNL     1      10.412  -2.481  24.651  0.00  0.00    +0.210 HD
ENDBRANCH  15  16
ENDBRANCH   1  15
TORSDOF 5
ENDMDL
MODEL 9
REMARK VINA RESULT:      -4.6      4.258      5.945
REMARK  Name = 
REMARK  5 active torsions:
REMARK  status: ('A' for Active; 'I' for Inactive)
REMARK    1  A    between atoms: O_1  and  C_2
REMARK    2  A    between atoms: C_2  and  C_3
REMARK    3  A    between atoms: C_9  and  O_11
REMARK    4  A    between atoms: C_12  and  O_14
REMARK    5  A    between atoms: C_15  and  O_17
REMARK                            x       y       z     vdW  Elec       q    Type
REMARK                         _______ _______ _______ _____ _____    ______ ____
ROOT
ATOM      1  C   UNL     1       6.300  -5.098  23.160  0.00  0.00    +0.264 C 
ATOM      2  C   UNL     1       6.369  -3.624  22.699  0.00  0.00    +0.212 C 
ATOM      3  C   UNL     1       7.819  -3.121  22.653  0.00  0.00    +0.182 C 
ATOM      4  C   UNL     1       8.559  -3.439  23.952  0.00  0.00    +0.206 C 
ATOM      5  C   UNL     1       8.380  -4.914  24.328  0.00  0.00    +0.331 C 
ATOM      6  F   UNL     1       8.861  -5.087  25.592  0.00  0.00    -0.212 F 
ATOM      7  O   UNL     1       7.023  -5.312  24.374  0.00  0.00    -0.304 OA
ATOM      8  F   UNL     1       4.996  -5.368  23.474  0.00  0.00    -0.205 F 
ENDROOT
BRANCH   2   9
ATOM      9  O   UNL     1       5.713  -3.452  21.429  0.00  0.00    -0.383 OA
ATOM     10  H   UNL     1       4.916  -2.911  21.564  0.00  0.00    +0.210 HD
ENDBRANCH   2   9
BRANCH   3  11
ATOM     11  O   UNL     1       7.848  -1.704  22.422  0.00  0.00    -0.386 OA
ATOM     12  H   UNL     1       8.605  -1.360  22.939  0.00  0.00    +0.210 HD
ENDBRANCH   3  11
BRANCH   4  13
ATOM     13  O   UNL     1       9.936  -3.054  23.775  0.00  0.00    -0.384 OA
ATOM     14  H   UNL     1      10.496  -3.848  23.850  0.00  0.00    +0.210 HD
ENDBRANCH   4  13
BRANCH   1  15
ATOM     15  C   UNL     1       6.695  -6.116  22.067  0.00  0.00    +0.229 C 
BRANCH  15  16
ATOM     16  O   UNL     1       5.630  -6.414  21.160  0.00  0.00    -0.389 OA
ATOM     17  H   UNL     1       5.841  -5.949  20.327  0.00  0.00    +0.210 HD
ENDBRANCH  15  16
ENDBRANCH   1  15
TORSDOF 5
ENDMDL
