MODEL 1
REMARK VINA RESULT:      -7.6      0.000      0.000
REMARK  Name = 
REMARK  4 active torsions:
REMARK  status: ('A' for Active; 'I' for Inactive)
REMARK    1  A    between atoms: O_1  and  C_2
REMARK    2  A    between atoms: C_3  and  C_4
REMARK    3  A    between atoms: C_4  and  C_5
REMARK    4  A    between atoms: C_6  and  O_7
REMARK                            x       y       z     vdW  Elec       q    Type
REMARK                         _______ _______ _______ _____ _____    ______ ____
ROOT
ATOM      1  C   UNL     1       7.847  -3.506  22.567  0.00  0.00    +0.092 C 
ENDROOT
BRANCH   1  12
ATOM      2  C   UNL     1       7.544  -1.080  23.291  0.00  0.00    +0.138 A 
ATOM      3  C   UNL     1       8.161   0.159  23.772  0.00  0.00    +0.059 A 
ATOM      4  C   UNL     1       7.469   1.371  23.875  0.00  0.00    +0.015 A 
ATOM      5  C   UNL     1       8.152   2.557  24.167  0.00  0.00    +0.001 A 
ATOM      6  C   UNL     1       9.535   2.542  24.345  0.00  0.00    +0.004 A 
ATOM      7  C   UNL     1      10.229   1.335  24.291  0.00  0.00    +0.047 A 
ATOM      8  C   UNL     1       9.527   0.157  24.031  0.00  0.00    +0.143 A 
ATOM      9  O   UNL     1      10.251  -1.046  24.063  0.00  0.00    -0.422 OA
ATOM     10  C   UNL     1       9.607  -2.258  23.871  0.00  0.00    +0.344 A 
ATOM     11  O   UNL     1      10.165  -3.329  24.103  0.00  0.00    -0.245 OA
ATOM     12  C   UNL     1       8.246  -2.228  23.274  0.00  0.00    +0.084 A 
BRANCH   2  13
ATOM     13  O   UNL     1       6.284  -0.914  22.761  0.00  0.00    -0.506 OA
ATOM     14  H   UNL     1       6.307  -0.405  21.922  0.00  0.00    +0.292 HD
ENDBRANCH   2  13
ENDBRANCH   1  12
BRANCH   1  15
ATOM     15  C   UNL     1       6.758  -4.278  23.267  0.00  0.00    +0.084 A 
ATOM     16  C   UNL     1       5.438  -4.242  22.579  0.00  0.00    +0.344 A 
ATOM     17  O   UNL     1       5.285  -3.556  21.570  0.00  0.00    -0.245 OA
ATOM     18  O   UNL     1       4.414  -5.033  23.061  0.00  0.00    -0.422 OA
ATOM     19  C   UNL     1       4.532  -5.640  24.322  0.00  0.00    +0.143 A 
ATOM     20  C   UNL     1       3.367  -6.196  24.861  0.00  0.00    +0.047 A 
ATOM     21  C   UNL     1       3.408  -6.716  26.155  0.00  0.00    +0.004 A 
ATOM     22  C   UNL     1       4.595  -6.669  26.885  0.00  0.00    +0.001 A 
ATOM     23  C   UNL     1       5.756  -6.135  26.313  0.00  0.00    +0.015 A 
ATOM     24  C   UNL     1       5.737  -5.623  25.010  0.00  0.00    +0.059 A 
ATOM     25  C   UNL     1       6.907  -5.025  24.376  0.00  0.00    +0.138 A 
BRANCH  25  26
ATOM     26  O   UNL     1       8.097  -5.279  25.013  0.00  0.00    -0.506 OA
ATOM     27  H   UNL     1       8.738  -4.557  24.884  0.00  0.00    +0.292 HD
ENDBRANCH  25  26
ENDBRANCH   1  15
TORSDOF 4
ENDMDL
MODEL 2
REMARK VINA RESULT:      -7.5      1.614      7.364
REMARK  Name = 
REMARK  4 active torsions:
REMARK  status: ('A' for Active; 'I' for Inactive)
REMARK    1  A    between atoms: O_1  and  C_2
REMARK    2  A    between atoms: C_3  and  C_4
REMARK    3  A    between atoms: C_4  and  C_5
REMARK    4  A    between atoms: C_6  and  O_7
REMARK                            x       y       z     vdW  Elec       q    Type
REMARK                         _______ _______ _______ _____ _____    ______ ____
ROOT
ATOM      1  C   UNL     1       9.469  -3.546  24.503  0.00  0.00    +0.092 C 
ENDROOT
BRANCH   1  12
ATOM      2  C   UNL     1       7.485  -4.641  25.672  0.00  0.00    +0.138 A 
ATOM      3  C   UNL     1       6.241  -5.404  25.553  0.00  0.00    +0.059 A 
ATOM      4  C   UNL     1       5.550  -5.923  26.654  0.00  0.00    +0.015 A 
ATOM      5  C   UNL     1       4.470  -6.794  26.470  0.00  0.00    +0.001 A 
ATOM      6  C   UNL     1       4.080  -7.163  25.184  0.00  0.00    +0.004 A 
ATOM      7  C   UNL     1       4.729  -6.617  24.078  0.00  0.00    +0.047 A 
ATOM      8  C   UNL     1       5.783  -5.725  24.279  0.00  0.00    +0.143 A 
ATOM      9  O   UNL     1       6.359  -5.138  23.140  0.00  0.00    -0.422 OA
ATOM     10  C   UNL     1       7.370  -4.200  23.269  0.00  0.00    +0.344 A 
ATOM     11  O   UNL     1       7.742  -3.517  22.317  0.00  0.00    -0.245 OA
ATOM     12  C   UNL     1       8.068  -4.115  24.579  0.00  0.00    +0.084 A 
BRANCH   2  13
ATOM     13  O   UNL     1       8.030  -4.643  26.937  0.00  0.00    -0.506 OA
ATOM     14  H   UNL     1       8.959  -4.959  26.931  0.00  0.00    +0.292 HD
ENDBRANCH   2  13
ENDBRANCH   1  12
BRANCH   1  15
ATOM     15  C   UNL     1       9.513  -2.046  24.349  0.00  0.00    +0.084 A 
ATOM     16  C   UNL     1       9.148  -1.291  25.578  0.00  0.00    +0.344 A 
ATOM     17  O   UNL     1       8.770  -1.890  26.584  0.00  0.00    -0.245 OA
ATOM     18  O   UNL     1       9.296   0.083  25.585  0.00  0.00    -0.422 OA
ATOM     19  C   UNL     1       9.520   0.768  24.380  0.00  0.00    +0.143 A 
ATOM     20  C   UNL     1       9.391   2.160  24.418  0.00  0.00    +0.047 A 
ATOM     21  C   UNL     1       9.499   2.877  23.227  0.00  0.00    +0.004 A 
ATOM     22  C   UNL     1       9.727   2.202  22.028  0.00  0.00    +0.001 A 
ATOM     23  C   UNL     1       9.884   0.811  22.019  0.00  0.00    +0.015 A 
ATOM     24  C   UNL     1       9.793   0.076  23.209  0.00  0.00    +0.059 A 
ATOM     25  C   UNL     1       9.915  -1.376  23.254  0.00  0.00    +0.138 A 
BRANCH  25  26
ATOM     26  O   UNL     1      10.433  -1.945  22.116  0.00  0.00    -0.506 OA
ATOM     27  H   UNL     1      10.616  -2.894  22.236  0.00  0.00    +0.292 HD
ENDBRANCH  25  26
ENDBRANCH   1  15
TORSDOF 4
ENDMDL
MODEL 3
REMARK VINA RESULT:      -7.4      1.678      2.799
REMARK  Name = 
REMARK  4 active torsions:
REMARK  status: ('A' for Active; 'I' for Inactive)
REMARK    1  A    between atoms: O_1  and  C_2
REMARK    2  A    between atoms: C_3  and  C_4
REMARK    3  A    between atoms: C_4  and  C_5
REMARK    4  A    between atoms: C_6  and  O_7
REMARK                            x       y       z     vdW  Elec       q    Type
REMARK                         _______ _______ _______ _____ _____    ______ ____
ROOT
ATOM      1  C   UNL     1       9.408  -3.645  24.695  0.00  0.00    +0.092 C 
ENDROOT
BRANCH   1  12
ATOM      2  C   UNL     1       9.478  -1.572  23.213  0.00  0.00    +0.138 A 
ATOM      3  C   UNL     1       9.599  -0.115  23.121  0.00  0.00    +0.059 A 
ATOM      4  C   UNL     1       9.739   0.569  21.907  0.00  0.00    +0.015 A 
ATOM      5  C   UNL     1      10.031   1.937  21.892  0.00  0.00    +0.001 A 
ATOM      6  C   UNL     1      10.198   2.631  23.090  0.00  0.00    +0.004 A 
ATOM      7  C   UNL     1      10.016   1.972  24.305  0.00  0.00    +0.047 A 
ATOM      8  C   UNL     1       9.693   0.615  24.301  0.00  0.00    +0.143 A 
ATOM      9  O   UNL     1       9.441   0.008  25.543  0.00  0.00    -0.422 OA
ATOM     10  C   UNL     1       9.058  -1.322  25.609  0.00  0.00    +0.344 A 
ATOM     11  O   UNL     1       8.627  -1.818  26.648  0.00  0.00    -0.245 OA
ATOM     12  C   UNL     1       9.283  -2.165  24.405  0.00  0.00    +0.084 A 
BRANCH   2  13
ATOM     13  O   UNL     1       9.712  -2.233  22.028  0.00  0.00    -0.506 OA
ATOM     14  H   UNL     1       8.881  -2.566  21.628  0.00  0.00    +0.292 HD
ENDBRANCH   2  13
ENDBRANCH   1  12
BRANCH   1  15
ATOM     15  C   UNL     1       8.086  -4.361  24.802  0.00  0.00    +0.084 A 
ATOM     16  C   UNL     1       7.827  -4.982  26.129  0.00  0.00    +0.344 A 
ATOM     17  O   UNL     1       8.690  -4.953  27.005  0.00  0.00    -0.245 OA
ATOM     18  O   UNL     1       6.585  -5.537  26.375  0.00  0.00    -0.422 OA
ATOM     19  C   UNL     1       5.693  -5.753  25.313  0.00  0.00    +0.143 A 
ATOM     20  C   UNL     1       4.579  -6.555  25.584  0.00  0.00    +0.047 A 
ATOM     21  C   UNL     1       3.720  -6.887  24.537  0.00  0.00    +0.004 A 
ATOM     22  C   UNL     1       3.984  -6.423  23.248  0.00  0.00    +0.001 A 
ATOM     23  C   UNL     1       5.088  -5.596  23.008  0.00  0.00    +0.015 A 
ATOM     24  C   UNL     1       5.953  -5.240  24.050  0.00  0.00    +0.059 A 
ATOM     25  C   UNL     1       7.135  -4.410  23.851  0.00  0.00    +0.138 A 
BRANCH  25  26
ATOM     26  O   UNL     1       7.174  -3.745  22.649  0.00  0.00    -0.506 OA
ATOM     27  H   UNL     1       6.321  -3.324  22.441  0.00  0.00    +0.292 HD
ENDBRANCH  25  26
ENDBRANCH   1  15
TORSDOF 4
ENDMDL
MODEL 4
REMARK VINA RESULT:      -7.4      1.441      6.577
REMARK  Name = 
REMARK  4 active torsions:
REMARK  status: ('A' for Active; 'I' for Inactive)
REMARK    1  A    between atoms: O_1  and  C_2
REMARK    2  A    between atoms: C_3  and  C_4
REMARK    3  A    between atoms: C_4  and  C_5
REMARK    4  A    between atoms: C_6  and  O_7
REMARK                            x       y       z     vdW  Elec       q    Type
REMARK                         _______ _______ _______ _____ _____    ______ ____
ROOT
ATOM      1  C   UNL     1       7.888  -4.200  22.516  0.00  0.00    +0.092 C 
ENDROOT
BRANCH   1  12
ATOM      2  C   UNL     1       6.378  -5.380  24.198  0.00  0.00    +0.138 A 
ATOM      3  C   UNL     1       6.115  -5.736  25.594  0.00  0.00    +0.059 A 
ATOM      4  C   UNL     1       4.926  -6.339  26.022  0.00  0.00    +0.015 A 
ATOM      5  C   UNL     1       4.657  -6.491  27.386  0.00  0.00    +0.001 A 
ATOM      6  C   UNL     1       5.569  -6.029  28.335  0.00  0.00    +0.004 A 
ATOM      7  C   UNL     1       6.777  -5.469  27.922  0.00  0.00    +0.047 A 
ATOM      8  C   UNL     1       7.043  -5.355  26.558  0.00  0.00    +0.143 A 
ATOM      9  O   UNL     1       8.302  -4.858  26.185  0.00  0.00    -0.422 OA
ATOM     10  C   UNL     1       8.656  -4.772  24.848  0.00  0.00    +0.344 A 
ATOM     11  O   UNL     1       9.813  -4.548  24.499  0.00  0.00    -0.245 OA
ATOM     12  C   UNL     1       7.566  -4.859  23.840  0.00  0.00    +0.084 A 
BRANCH   2  13
ATOM     13  O   UNL     1       5.285  -5.503  23.369  0.00  0.00    -0.506 OA
ATOM     14  H   UNL     1       5.346  -6.304  22.805  0.00  0.00    +0.292 HD
ENDBRANCH   2  13
ENDBRANCH   1  12
BRANCH   1  15
ATOM     15  C   UNL     1       7.931  -2.694  22.575  0.00  0.00    +0.084 A 
ATOM     16  C   UNL     1       6.598  -2.045  22.696  0.00  0.00    +0.344 A 
ATOM     17  O   UNL     1       5.573  -2.724  22.664  0.00  0.00    -0.245 OA
ATOM     18  O   UNL     1       6.538  -0.680  22.903  0.00  0.00    -0.422 OA
ATOM     19  C   UNL     1       7.688   0.105  22.727  0.00  0.00    +0.143 A 
ATOM     20  C   UNL     1       7.500   1.491  22.686  0.00  0.00    +0.047 A 
ATOM     21  C   UNL     1       8.595   2.309  22.407  0.00  0.00    +0.004 A 
ATOM     22  C   UNL     1       9.846   1.739  22.172  0.00  0.00    +0.001 A 
ATOM     23  C   UNL     1      10.016   0.351  22.250  0.00  0.00    +0.015 A 
ATOM     24  C   UNL     1       8.931  -0.484  22.543  0.00  0.00    +0.059 A 
ATOM     25  C   UNL     1       9.043  -1.937  22.604  0.00  0.00    +0.138 A 
BRANCH  25  26
ATOM     26  O   UNL     1      10.331  -2.411  22.666  0.00  0.00    -0.506 OA
ATOM     27  H   UNL     1      10.472  -2.976  23.446  0.00  0.00    +0.292 HD
ENDBRANCH  25  26
ENDBRANCH   1  15
TORSDOF 4
ENDMDL
MODEL 5
REMARK VINA RESULT:      -7.3      1.717      6.940
REMARK  Name = 
REMARK  4 active torsions:
REMARK  status: ('A' for Active; 'I' for Inactive)
REMARK    1  A    between atoms: O_1  and  C_2
REMARK    2  A    between atoms: C_3  and  C_4
REMARK    3  A    between atoms: C_4  and  C_5
REMARK    4  A    between atoms: C_6  and  O_7
REMARK                            x       y       z     vdW  Elec       q    Type
REMARK                         _______ _______ _______ _____ _____    ______ ____
ROOT
ATOM      1  C   UNL     1       9.674  -3.386  24.452  0.00  0.00    +0.092 C 
ENDROOT
BRANCH   1  12
ATOM      2  C   UNL     1       7.573  -4.427  23.450  0.00  0.00    +0.138 A 
ATOM      3  C   UNL     1       6.292  -5.100  23.675  0.00  0.00    +0.059 A 
ATOM      4  C   UNL     1       5.362  -5.342  22.658  0.00  0.00    +0.015 A 
ATOM      5  C   UNL     1       4.084  -5.824  22.963  0.00  0.00    +0.001 A 
ATOM      6  C   UNL     1       3.721  -6.055  24.289  0.00  0.00    +0.004 A 
ATOM      7  C   UNL     1       4.653  -5.863  25.307  0.00  0.00    +0.047 A 
ATOM      8  C   UNL     1       5.933  -5.413  24.982  0.00  0.00    +0.143 A 
ATOM      9  O   UNL     1       6.865  -5.307  26.028  0.00  0.00    -0.422 OA
ATOM     10  C   UNL     1       8.171  -4.922  25.769  0.00  0.00    +0.344 A 
ATOM     11  O   UNL     1       9.055  -5.026  26.617  0.00  0.00    -0.245 OA
ATOM     12  C   UNL     1       8.452  -4.279  24.458  0.00  0.00    +0.084 A 
BRANCH   2  13
ATOM     13  O   UNL     1       7.706  -3.873  22.196  0.00  0.00    -0.506 OA
ATOM     14  H   UNL     1       7.996  -2.936  22.242  0.00  0.00    +0.292 HD
ENDBRANCH   2  13
ENDBRANCH   1  12
BRANCH   1  15
ATOM     15  C   UNL     1       9.369  -1.933  24.188  0.00  0.00    +0.084 A 
ATOM     16  C   UNL     1       8.952  -1.164  25.392  0.00  0.00    +0.344 A 
ATOM     17  O   UNL     1       8.806  -1.735  26.471  0.00  0.00    -0.245 OA
ATOM     18  O   UNL     1       8.790   0.204  25.285  0.00  0.00    -0.422 OA
ATOM     19  C   UNL     1       8.751   0.807  24.018  0.00  0.00    +0.143 A 
ATOM     20  C   UNL     1       8.319   2.136  23.970  0.00  0.00    +0.047 A 
ATOM     21  C   UNL     1       8.161   2.747  22.726  0.00  0.00    +0.004 A 
ATOM     22  C   UNL     1       8.429   2.028  21.561  0.00  0.00    +0.001 A 
ATOM     23  C   UNL     1       8.891   0.709  21.635  0.00  0.00    +0.015 A 
ATOM     24  C   UNL     1       9.070   0.085  22.876  0.00  0.00    +0.059 A 
ATOM     25  C   UNL     1       9.516  -1.296  23.012  0.00  0.00    +0.138 A 
BRANCH  25  26
ATOM     26  O   UNL     1      10.047  -1.844  21.869  0.00  0.00    -0.506 OA
ATOM     27  H   UNL     1      10.990  -1.623  21.767  0.00  0.00    +0.292 HD
ENDBRANCH  25  26
ENDBRANCH   1  15
TORSDOF 4
ENDMDL
MODEL 6
REMARK VINA RESULT:      -7.1      2.040      2.684
REMARK  Name = 
REMARK  4 active torsions:
REMARK  status: ('A' for Active; 'I' for Inactive)
REMARK    1  A    between atoms: O_1  and  C_2
REMARK    2  A    between atoms: C_3  and  C_4
REMARK    3  A    between atoms: C_4  and  C_5
REMARK    4  A    between atoms: C_6  and  O_7
REMARK                            x       y       z     vdW  Elec       q    Type
REMARK                         _______ _______ _______ _____ _____    ______ ____
ROOT
ATOM      1  C   UNL     1       8.344  -2.892  26.115  0.00  0.00    +0.092 C 
ENDROOT
BRANCH   1  12
ATOM      2  C   UNL     1       8.938  -0.504  25.445  0.00  0.00    +0.138 A 
ATOM      3  C   UNL     1       9.427   0.410  24.410  0.00  0.00    +0.059 A 
ATOM      4  C   UNL     1       9.415   1.803  24.548  0.00  0.00    +0.015 A 
ATOM      5  C   UNL     1       9.725   2.627  23.461  0.00  0.00    +0.001 A 
ATOM      6  C   UNL     1      10.036   2.066  22.223  0.00  0.00    +0.004 A 
ATOM      7  C   UNL     1      10.098   0.680  22.085  0.00  0.00    +0.047 A 
ATOM      8  C   UNL     1       9.818  -0.127  23.188  0.00  0.00    +0.143 A 
ATOM      9  O   UNL     1       9.967  -1.514  23.027  0.00  0.00    -0.422 OA
ATOM     10  C   UNL     1       9.762  -2.371  24.097  0.00  0.00    +0.344 A 
ATOM     11  O   UNL     1      10.089  -3.555  24.047  0.00  0.00    -0.245 OA
ATOM     12  C   UNL     1       9.035  -1.836  25.278  0.00  0.00    +0.084 A 
BRANCH   2  13
ATOM     13  O   UNL     1       8.282   0.118  26.483  0.00  0.00    -0.506 OA
ATOM     14  H   UNL     1       7.365  -0.216  26.586  0.00  0.00    +0.292 HD
ENDBRANCH   2  13
ENDBRANCH   1  12
BRANCH   1  15
ATOM     15  C   UNL     1       6.973  -3.270  25.614  0.00  0.00    +0.084 A 
ATOM     16  C   UNL     1       5.861  -2.482  26.210  0.00  0.00    +0.344 A 
ATOM     17  O   UNL     1       6.091  -1.658  27.095  0.00  0.00    -0.245 OA
ATOM     18  O   UNL     1       4.583  -2.651  25.714  0.00  0.00    -0.422 OA
ATOM     19  C   UNL     1       4.300  -3.732  24.864  0.00  0.00    +0.143 A 
ATOM     20  C   UNL     1       2.949  -3.999  24.618  0.00  0.00    +0.047 A 
ATOM     21  C   UNL     1       2.613  -5.125  23.868  0.00  0.00    +0.004 A 
ATOM     22  C   UNL     1       3.618  -5.962  23.382  0.00  0.00    +0.001 A 
ATOM     23  C   UNL     1       4.965  -5.656  23.614  0.00  0.00    +0.015 A 
ATOM     24  C   UNL     1       5.320  -4.521  24.353  0.00  0.00    +0.059 A 
ATOM     25  C   UNL     1       6.704  -4.173  24.654  0.00  0.00    +0.138 A 
BRANCH  25  26
ATOM     26  O   UNL     1       7.641  -4.847  23.908  0.00  0.00    -0.506 OA
ATOM     27  H   UNL     1       7.273  -5.161  23.062  0.00  0.00    +0.292 HD
ENDBRANCH  25  26
ENDBRANCH   1  15
TORSDOF 4
ENDMDL
MODEL 7
REMARK VINA RESULT:      -7.1      2.254      4.290
REMARK  Name = 
REMARK  4 active torsions:
REMARK  status: ('A' for Active; 'I' for Inactive)
REMARK    1  A    between atoms: O_1  and  C_2
REMARK    2  A    between atoms: C_3  and  C_4
REMARK    3  A    between atoms: C_4  and  C_5
REMARK    4  A    between atoms: C_6  and  O_7
REMARK                            x       y       z     vdW  Elec       q    Type
REMARK                         _______ _______ _______ _____ _____    ______ ____
ROOT
ATOM      1  C   UNL     1       9.336   0.246  21.850  0.00  0.00    +0.092 C 
ENDROOT
BRANCH   1  12
ATOM      2  C   UNL     1       8.334   2.533  22.371  0.00  0.00    +0.138 A 
ATOM      3  C   UNL     1       8.513   3.861  22.960  0.00  0.00    +0.059 A 
ATOM      4  C   UNL     1       7.579   4.895  22.822  0.00  0.00    +0.015 A 
ATOM      5  C   UNL     1       7.885   6.192  23.251  0.00  0.00    +0.001 A 
ATOM      6  C   UNL     1       9.132   6.468  23.810  0.00  0.00    +0.004 A 
ATOM      7  C   UNL     1      10.053   5.438  23.996  0.00  0.00    +0.047 A 
ATOM      8  C   UNL     1       9.719   4.145  23.593  0.00  0.00    +0.143 A 
ATOM      9  O   UNL     1      10.642   3.124  23.870  0.00  0.00    -0.422 OA
ATOM     10  C   UNL     1      10.351   1.807  23.549  0.00  0.00    +0.344 A 
ATOM     11  O   UNL     1      11.034   0.875  23.967  0.00  0.00    -0.245 OA
ATOM     12  C   UNL     1       9.239   1.562  22.593  0.00  0.00    +0.084 A 
BRANCH   2  13
ATOM     13  O   UNL     1       7.269   2.439  21.503  0.00  0.00    -0.506 OA
ATOM     14  H   UNL     1       7.464   2.869  20.643  0.00  0.00    +0.292 HD
ENDBRANCH   2  13
ENDBRANCH   1  12
BRANCH   1  15
ATOM     15  C   UNL     1       8.709  -0.916  22.578  0.00  0.00    +0.084 A 
ATOM     16  C   UNL     1       9.659  -2.004  22.934  0.00  0.00    +0.344 A 
ATOM     17  O   UNL     1      10.832  -1.946  22.569  0.00  0.00    -0.245 OA
ATOM     18  O   UNL     1       9.214  -3.044  23.727  0.00  0.00    -0.422 OA
ATOM     19  C   UNL     1       7.839  -3.209  23.957  0.00  0.00    +0.143 A 
ATOM     20  C   UNL     1       7.441  -4.420  24.534  0.00  0.00    +0.047 A 
ATOM     21  C   UNL     1       6.079  -4.676  24.686  0.00  0.00    +0.004 A 
ATOM     22  C   UNL     1       5.143  -3.733  24.260  0.00  0.00    +0.001 A 
ATOM     23  C   UNL     1       5.566  -2.515  23.715  0.00  0.00    +0.015 A 
ATOM     24  C   UNL     1       6.930  -2.235  23.569  0.00  0.00    +0.059 A 
ATOM     25  C   UNL     1       7.427  -0.998  22.977  0.00  0.00    +0.138 A 
BRANCH  25  26
ATOM     26  O   UNL     1       6.489  -0.000  22.861  0.00  0.00    -0.506 OA
ATOM     27  H   UNL     1       6.326   0.237  21.931  0.00  0.00    +0.292 HD
ENDBRANCH  25  26
ENDBRANCH   1  15
TORSDOF 4
ENDMDL
MODEL 8
REMARK VINA RESULT:      -7.0      1.827      2.997
REMARK  Name = 
REMARK  4 active torsions:
REMARK  status: ('A' for Active; 'I' for Inactive)
REMARK    1  A    between atoms: O_1  and  C_2
REMARK    2  A    between atoms: C_3  and  C_4
REMARK    3  A    between atoms: C_4  and  C_5
REMARK    4  A    between atoms: C_6  and  O_7
REMARK                            x       y       z     vdW  Elec       q    Type
REMARK                         _______ _______ _______ _____ _____    ______ ____
ROOT
ATOM      1  C   UNL     1       9.795  -2.432  24.219  0.00  0.00    +0.092 C 
ENDROOT
BRANCH   1  12
ATOM      2  C   UNL     1       9.517   0.088  24.494  0.00  0.00    +0.138 A 
ATOM      3  C   UNL     1       9.084   1.360  23.912  0.00  0.00    +0.059 A 
ATOM      4  C   UNL     1       9.009   2.553  24.642  0.00  0.00    +0.015 A 
ATOM      5  C   UNL     1       8.419   3.692  24.083  0.00  0.00    +0.001 A 
ATOM      6  C   UNL     1       7.888   3.645  22.795  0.00  0.00    +0.004 A 
ATOM      7  C   UNL     1       7.998   2.478  22.040  0.00  0.00    +0.047 A 
ATOM      8  C   UNL     1       8.618   1.361  22.601  0.00  0.00    +0.143 A 
ATOM      9  O   UNL     1       8.778   0.232  21.782  0.00  0.00    -0.422 OA
ATOM     10  C   UNL     1       9.437  -0.892  22.255  0.00  0.00    +0.344 A 
ATOM     11  O   UNL     1       9.779  -1.804  21.505  0.00  0.00    -0.245 OA
ATOM     12  C   UNL     1       9.627  -1.010  23.725  0.00  0.00    +0.084 A 
BRANCH   2  13
ATOM     13  O   UNL     1       9.654   0.112  25.865  0.00  0.00    -0.506 OA
ATOM     14  H   UNL     1       9.226   0.902  26.258  0.00  0.00    +0.292 HD
ENDBRANCH   2  13
ENDBRANCH   1  12
BRANCH   1  15
ATOM     15  C   UNL     1       8.495  -3.130  24.528  0.00  0.00    +0.084 A 
ATOM     16  C   UNL     1       8.044  -2.995  25.939  0.00  0.00    +0.344 A 
ATOM     17  O   UNL     1       8.754  -2.419  26.763  0.00  0.00    -0.245 OA
ATOM     18  O   UNL     1       6.797  -3.474  26.289  0.00  0.00    -0.422 OA
ATOM     19  C   UNL     1       6.095  -4.309  25.405  0.00  0.00    +0.143 A 
ATOM     20  C   UNL     1       4.977  -4.971  25.923  0.00  0.00    +0.047 A 
ATOM     21  C   UNL     1       4.309  -5.892  25.117  0.00  0.00    +0.004 A 
ATOM     22  C   UNL     1       4.763  -6.139  23.821  0.00  0.00    +0.001 A 
ATOM     23  C   UNL     1       5.866  -5.441  23.314  0.00  0.00    +0.015 A 
ATOM     24  C   UNL     1       6.540  -4.502  24.105  0.00  0.00    +0.059 A 
ATOM     25  C   UNL     1       7.713  -3.771  23.641  0.00  0.00    +0.138 A 
BRANCH  25  26
ATOM     26  O   UNL     1       7.925  -3.827  22.284  0.00  0.00    -0.506 OA
ATOM     27  H   UNL     1       7.927  -4.744  21.956  0.00  0.00    +0.292 HD
ENDBRANCH  25  26
ENDBRANCH   1  15
TORSDOF 4
ENDMDL
MODEL 9
REMARK VINA RESULT:      -7.0      1.291      7.285
REMARK  Name = 
REMARK  4 active torsions:
REMARK  status: ('A' for Active; 'I' for Inactive)
REMARK    1  A    between atoms: O_1  and  C_2
REMARK    2  A    between atoms: C_3  and  C_4
REMARK    3  A    between atoms: C_4  and  C_5
REMARK    4  A    between atoms: C_6  and  O_7
REMARK                            x       y       z     vdW  Elec       q    Type
REMARK                         _______ _______ _______ _____ _____    ______ ____
ROOT
ATOM      1  C   UNL     1       7.409  -4.373  23.727  0.00  0.00    +0.092 C 
ENDROOT
BRANCH   1  12
ATOM      2  C   UNL     1       6.969  -5.108  26.129  0.00  0.00    +0.138 A 
ATOM      3  C   UNL     1       6.011  -5.602  27.120  0.00  0.00    +0.059 A 
ATOM      4  C   UNL     1       6.381  -6.027  28.401  0.00  0.00    +0.015 A 
ATOM      5  C   UNL     1       5.452  -6.655  29.238  0.00  0.00    +0.001 A 
ATOM      6  C   UNL     1       4.148  -6.875  28.796  0.00  0.00    +0.004 A 
ATOM      7  C   UNL     1       3.754  -6.415  27.541  0.00  0.00    +0.047 A 
ATOM      8  C   UNL     1       4.684  -5.761  26.732  0.00  0.00    +0.143 A 
ATOM      9  O   UNL     1       4.227  -5.245  25.509  0.00  0.00    -0.422 OA
ATOM     10  C   UNL     1       5.082  -4.534  24.683  0.00  0.00    +0.344 A 
ATOM     11  O   UNL     1       4.666  -3.893  23.721  0.00  0.00    -0.245 OA
ATOM     12  C   UNL     1       6.543  -4.655  24.936  0.00  0.00    +0.084 A 
BRANCH   2  13
ATOM     13  O   UNL     1       8.288  -5.282  26.485  0.00  0.00    -0.506 OA
ATOM     14  H   UNL     1       8.817  -5.655  25.747  0.00  0.00    +0.292 HD
ENDBRANCH   2  13
ENDBRANCH   1  12
BRANCH   1  15
ATOM     15  C   UNL     1       8.062  -3.014  23.746  0.00  0.00    +0.084 A 
ATOM     16  C   UNL     1       9.501  -3.027  24.124  0.00  0.00    +0.344 A 
ATOM     17  O   UNL     1      10.043  -4.079  24.462  0.00  0.00    -0.245 OA
ATOM     18  O   UNL     1      10.226  -1.854  24.032  0.00  0.00    -0.422 OA
ATOM     19  C   UNL     1       9.558  -0.632  23.853  0.00  0.00    +0.143 A 
ATOM     20  C   UNL     1      10.316   0.528  24.038  0.00  0.00    +0.047 A 
ATOM     21  C   UNL     1       9.676   1.766  23.976  0.00  0.00    +0.004 A 
ATOM     22  C   UNL     1       8.303   1.826  23.738  0.00  0.00    +0.001 A 
ATOM     23  C   UNL     1       7.570   0.652  23.525  0.00  0.00    +0.015 A 
ATOM     24  C   UNL     1       8.200  -0.598  23.569  0.00  0.00    +0.059 A 
ATOM     25  C   UNL     1       7.482  -1.854  23.387  0.00  0.00    +0.138 A 
BRANCH  25  26
ATOM     26  O   UNL     1       6.218  -1.723  22.864  0.00  0.00    -0.506 OA
ATOM     27  H   UNL     1       5.531  -1.830  23.545  0.00  0.00    +0.292 HD
ENDBRANCH  25  26
ENDBRANCH   1  15
TORSDOF 4
ENDMDL
