MODEL 1
REMARK VINA RESULT:      -6.1      0.000      0.000
REMARK  Name = 
REMARK  3 active torsions:
REMARK  status: ('A' for Active; 'I' for Inactive)
REMARK    1  A    between atoms: O_1  and  C_2
REMARK    2  A    between atoms: C_3  and  O_4
REMARK    3  A    between atoms: C_6  and  C_9
REMARK                            x       y       z     vdW  Elec       q    Type
REMARK                         _______ _______ _______ _____ _____    ______ ____
ROOT
ATOM      1  C   UNL     1       8.373  -4.651  26.498  0.00  0.00    +0.158 A 
ATOM      2  C   UNL     1       7.770  -3.411  26.681  0.00  0.00    +0.050 A 
ATOM      3  C   UNL     1       8.084  -2.339  25.835  0.00  0.00    +0.012 A 
ATOM      4  C   UNL     1       8.995  -2.484  24.772  0.00  0.00    -0.014 A 
ATOM      5  C   UNL     1       9.565  -3.760  24.595  0.00  0.00    +0.057 A 
ATOM      6  C   UNL     1       9.273  -4.827  25.452  0.00  0.00    +0.159 A 
ENDROOT
BRANCH   4   7
ATOM      7  C   UNL     1       9.356  -1.348  23.888  0.00  0.00    -0.018 A 
ATOM      8  C   UNL     1       9.235  -1.443  22.489  0.00  0.00    +0.008 A 
ATOM      9  C   UNL     1       9.560  -0.374  21.645  0.00  0.00    +0.001 A 
ATOM     10  C   UNL     1      10.034   0.817  22.185  0.00  0.00    +0.000 A 
ATOM     11  C   UNL     1      10.178   0.938  23.562  0.00  0.00    +0.001 A 
ATOM     12  C   UNL     1       9.837  -0.128  24.403  0.00  0.00    +0.008 A 
ENDBRANCH   4   7
BRANCH   1  13
ATOM     13  O   UNL     1       8.019  -5.620  27.389  0.00  0.00    -0.503 OA
ATOM     14  H   UNL     1       7.077  -5.584  27.589  0.00  0.00    +0.292 HD
ENDBRANCH   1  13
BRANCH   6  15
ATOM     15  O   UNL     1       9.922  -5.996  25.177  0.00  0.00    -0.503 OA
ATOM     16  H   UNL     1       9.504  -6.740  25.625  0.00  0.00    +0.292 HD
ENDBRANCH   6  15
TORSDOF 3
ENDMDL
MODEL 2
REMARK VINA RESULT:      -6.0      3.404      5.281
REMARK  Name = 
REMARK  3 active torsions:
REMARK  status: ('A' for Active; 'I' for Inactive)
REMARK    1  A    between atoms: O_1  and  C_2
REMARK    2  A    between atoms: C_3  and  O_4
REMARK    3  A    between atoms: C_6  and  C_9
REMARK                            x       y       z     vdW  Elec       q    Type
REMARK                         _______ _______ _______ _____ _____    ______ ____
ROOT
ATOM      1  C   UNL     1       9.963  -1.048  23.248  0.00  0.00    +0.158 A 
ATOM      2  C   UNL     1      10.195  -0.443  24.478  0.00  0.00    +0.050 A 
ATOM      3  C   UNL     1      10.318   0.949  24.572  0.00  0.00    +0.012 A 
ATOM      4  C   UNL     1      10.192   1.775  23.439  0.00  0.00    -0.014 A 
ATOM      5  C   UNL     1       9.926   1.135  22.213  0.00  0.00    +0.057 A 
ATOM      6  C   UNL     1       9.827  -0.257  22.111  0.00  0.00    +0.159 A 
ENDROOT
BRANCH   4   7
ATOM      7  C   UNL     1      10.347   3.250  23.523  0.00  0.00    -0.018 A 
ATOM      8  C   UNL     1      11.606   3.862  23.370  0.00  0.00    +0.008 A 
ATOM      9  C   UNL     1      11.763   5.251  23.435  0.00  0.00    +0.001 A 
ATOM     10  C   UNL     1      10.661   6.065  23.674  0.00  0.00    +0.000 A 
ATOM     11  C   UNL     1       9.407   5.490  23.843  0.00  0.00    +0.001 A 
ATOM     12  C   UNL     1       9.251   4.101  23.762  0.00  0.00    +0.008 A 
ENDBRANCH   4   7
BRANCH   1  13
ATOM     13  O   UNL     1       9.886  -2.409  23.259  0.00  0.00    -0.503 OA
ATOM     14  H   UNL     1       9.933  -2.754  24.158  0.00  0.00    +0.292 HD
ENDBRANCH   1  13
BRANCH   6  15
ATOM     15  O   UNL     1       9.597  -0.739  20.855  0.00  0.00    -0.503 OA
ATOM     16  H   UNL     1      10.424  -0.933  20.399  0.00  0.00    +0.292 HD
ENDBRANCH   6  15
TORSDOF 3
ENDMDL
MODEL 3
REMARK VINA RESULT:      -5.8      3.367      5.838
REMARK  Name = 
REMARK  3 active torsions:
REMARK  status: ('A' for Active; 'I' for Inactive)
REMARK    1  A    between atoms: O_1  and  C_2
REMARK    2  A    between atoms: C_3  and  O_4
REMARK    3  A    between atoms: C_6  and  C_9
REMARK                            x       y       z     vdW  Elec       q    Type
REMARK                         _______ _______ _______ _____ _____    ______ ____
ROOT
ATOM      1  C   UNL     1       9.987   1.122  22.166  0.00  0.00    +0.158 A 
ATOM      2  C   UNL     1       9.380   0.210  21.310  0.00  0.00    +0.050 A 
ATOM      3  C   UNL     1       9.031  -1.067  21.767  0.00  0.00    +0.012 A 
ATOM      4  C   UNL     1       9.261  -1.459  23.100  0.00  0.00    -0.014 A 
ATOM      5  C   UNL     1       9.848  -0.501  23.950  0.00  0.00    +0.057 A 
ATOM      6  C   UNL     1      10.221   0.766  23.491  0.00  0.00    +0.159 A 
ENDROOT
BRANCH   4   7
ATOM      7  C   UNL     1       8.919  -2.819  23.587  0.00  0.00    -0.018 A 
ATOM      8  C   UNL     1       9.654  -3.431  24.621  0.00  0.00    +0.008 A 
ATOM      9  C   UNL     1       9.334  -4.707  25.098  0.00  0.00    +0.001 A 
ATOM     10  C   UNL     1       8.276  -5.414  24.535  0.00  0.00    +0.000 A 
ATOM     11  C   UNL     1       7.540  -4.843  23.504  0.00  0.00    +0.001 A 
ATOM     12  C   UNL     1       7.854  -3.559  23.041  0.00  0.00    +0.008 A 
ENDBRANCH   4   7
BRANCH   1  13
ATOM     13  O   UNL     1      10.312   2.327  21.618  0.00  0.00    -0.503 OA
ATOM     14  H   UNL     1       9.863   3.050  22.072  0.00  0.00    +0.292 HD
ENDBRANCH   1  13
BRANCH   6  15
ATOM     15  O   UNL     1      10.807   1.578  24.419  0.00  0.00    -0.503 OA
ATOM     16  H   UNL     1      10.769   2.502  24.148  0.00  0.00    +0.292 HD
ENDBRANCH   6  15
TORSDOF 3
ENDMDL
MODEL 4
REMARK VINA RESULT:      -5.8      3.777      5.663
REMARK  Name = 
REMARK  3 active torsions:
REMARK  status: ('A' for Active; 'I' for Inactive)
REMARK    1  A    between atoms: O_1  and  C_2
REMARK    2  A    between atoms: C_3  and  O_4
REMARK    3  A    between atoms: C_6  and  C_9
REMARK                            x       y       z     vdW  Elec       q    Type
REMARK                         _______ _______ _______ _____ _____    ______ ____
ROOT
ATOM      1  C   UNL     1      10.425   1.736  23.454  0.00  0.00    +0.158 A 
ATOM      2  C   UNL     1      10.676   0.886  24.525  0.00  0.00    +0.050 A 
ATOM      3  C   UNL     1      10.167  -0.420  24.528  0.00  0.00    +0.012 A 
ATOM      4  C   UNL     1       9.409  -0.915  23.450  0.00  0.00    -0.014 A 
ATOM      5  C   UNL     1       9.199  -0.040  22.367  0.00  0.00    +0.057 A 
ATOM      6  C   UNL     1       9.685   1.272  22.371  0.00  0.00    +0.159 A 
ENDROOT
BRANCH   4   7
ATOM      7  C   UNL     1       8.842  -2.287  23.456  0.00  0.00    -0.018 A 
ATOM      8  C   UNL     1       7.870  -2.680  22.516  0.00  0.00    +0.008 A 
ATOM      9  C   UNL     1       7.337  -3.975  22.504  0.00  0.00    +0.001 A 
ATOM     10  C   UNL     1       7.753  -4.906  23.449  0.00  0.00    +0.000 A 
ATOM     11  C   UNL     1       8.701  -4.545  24.398  0.00  0.00    +0.001 A 
ATOM     12  C   UNL     1       9.243  -3.254  24.397  0.00  0.00    +0.008 A 
ENDBRANCH   4   7
BRANCH   1  13
ATOM     13  O   UNL     1      10.942   2.993  23.559  0.00  0.00    -0.503 OA
ATOM     14  H   UNL     1      10.806   3.354  24.442  0.00  0.00    +0.292 HD
ENDBRANCH   1  13
BRANCH   6  15
ATOM     15  O   UNL     1       9.378   2.015  21.267  0.00  0.00    -0.503 OA
ATOM     16  H   UNL     1       9.084   2.899  21.512  0.00  0.00    +0.292 HD
ENDBRANCH   6  15
TORSDOF 3
ENDMDL
MODEL 5
REMARK VINA RESULT:      -5.7      3.432      5.587
REMARK  Name = 
REMARK  3 active torsions:
REMARK  status: ('A' for Active; 'I' for Inactive)
REMARK    1  A    between atoms: O_1  and  C_2
REMARK    2  A    between atoms: C_3  and  O_4
REMARK    3  A    between atoms: C_6  and  C_9
REMARK                            x       y       z     vdW  Elec       q    Type
REMARK                         _______ _______ _______ _____ _____    ______ ____
ROOT
ATOM      1  C   UNL     1       9.514  -0.588  22.499  0.00  0.00    +0.158 A 
ATOM      2  C   UNL     1       9.521   0.395  21.516  0.00  0.00    +0.050 A 
ATOM      3  C   UNL     1       9.830   1.722  21.841  0.00  0.00    +0.012 A 
ATOM      4  C   UNL     1      10.160   2.097  23.157  0.00  0.00    -0.014 A 
ATOM      5  C   UNL     1      10.175   1.073  24.124  0.00  0.00    +0.057 A 
ATOM      6  C   UNL     1       9.843  -0.248  23.808  0.00  0.00    +0.159 A 
ENDROOT
BRANCH   4   7
ATOM      7  C   UNL     1      10.462   3.506  23.518  0.00  0.00    -0.018 A 
ATOM      8  C   UNL     1      11.738   4.059  23.298  0.00  0.00    +0.008 A 
ATOM      9  C   UNL     1      12.031   5.389  23.623  0.00  0.00    +0.001 A 
ATOM     10  C   UNL     1      11.054   6.196  24.195  0.00  0.00    +0.000 A 
ATOM     11  C   UNL     1       9.788   5.675  24.438  0.00  0.00    +0.001 A 
ATOM     12  C   UNL     1       9.495   4.349  24.097  0.00  0.00    +0.008 A 
ENDBRANCH   4   7
BRANCH   1  13
ATOM     13  O   UNL     1       9.175  -1.842  22.085  0.00  0.00    -0.503 OA
ATOM     14  H   UNL     1       9.765  -2.505  22.461  0.00  0.00    +0.292 HD
ENDBRANCH   1  13
BRANCH   6  15
ATOM     15  O   UNL     1       9.871  -1.127  24.852  0.00  0.00    -0.503 OA
ATOM     16  H   UNL     1      10.207  -1.987  24.575  0.00  0.00    +0.292 HD
ENDBRANCH   6  15
TORSDOF 3
ENDMDL
MODEL 6
REMARK VINA RESULT:      -5.5      0.752      2.211
REMARK  Name = 
REMARK  3 active torsions:
REMARK  status: ('A' for Active; 'I' for Inactive)
REMARK    1  A    between atoms: O_1  and  C_2
REMARK    2  A    between atoms: C_3  and  O_4
REMARK    3  A    between atoms: C_6  and  C_9
REMARK                            x       y       z     vdW  Elec       q    Type
REMARK                         _______ _______ _______ _____ _____    ______ ____
ROOT
ATOM      1  C   UNL     1       8.384  -4.757  26.269  0.00  0.00    +0.158 A 
ATOM      2  C   UNL     1       9.452  -4.837  25.382  0.00  0.00    +0.050 A 
ATOM      3  C   UNL     1       9.776  -3.748  24.563  0.00  0.00    +0.012 A 
ATOM      4  C   UNL     1       9.052  -2.543  24.623  0.00  0.00    -0.014 A 
ATOM      5  C   UNL     1       7.996  -2.483  25.553  0.00  0.00    +0.057 A 
ATOM      6  C   UNL     1       7.654  -3.577  26.355  0.00  0.00    +0.159 A 
ENDROOT
BRANCH   4   7
ATOM      7  C   UNL     1       9.370  -1.393  23.740  0.00  0.00    -0.018 A 
ATOM      8  C   UNL     1       9.931  -0.208  24.255  0.00  0.00    +0.008 A 
ATOM      9  C   UNL     1      10.247   0.878  23.430  0.00  0.00    +0.001 A 
ATOM     10  C   UNL     1       9.989   0.811  22.065  0.00  0.00    +0.000 A 
ATOM     11  C   UNL     1       9.423  -0.339  21.528  0.00  0.00    +0.001 A 
ATOM     12  C   UNL     1       9.123  -1.429  22.354  0.00  0.00    +0.008 A 
ENDBRANCH   4   7
BRANCH   1  13
ATOM     13  O   UNL     1       8.135  -5.879  27.002  0.00  0.00    -0.503 OA
ATOM     14  H   UNL     1       8.757  -6.583  26.786  0.00  0.00    +0.292 HD
ENDBRANCH   1  13
BRANCH   6  15
ATOM     15  O   UNL     1       6.589  -3.383  27.188  0.00  0.00    -0.503 OA
ATOM     16  H   UNL     1       6.182  -4.221  27.434  0.00  0.00    +0.292 HD
ENDBRANCH   6  15
TORSDOF 3
ENDMDL
MODEL 7
REMARK VINA RESULT:      -5.4      3.769      6.019
REMARK  Name = 
REMARK  3 active torsions:
REMARK  status: ('A' for Active; 'I' for Inactive)
REMARK    1  A    between atoms: O_1  and  C_2
REMARK    2  A    between atoms: C_3  and  O_4
REMARK    3  A    between atoms: C_6  and  C_9
REMARK                            x       y       z     vdW  Elec       q    Type
REMARK                         _______ _______ _______ _____ _____    ______ ____
ROOT
ATOM      1  C   UNL     1       8.592   1.383  21.946  0.00  0.00    +0.158 A 
ATOM      2  C   UNL     1       9.741   0.605  21.868  0.00  0.00    +0.050 A 
ATOM      3  C   UNL     1       9.738  -0.714  22.341  0.00  0.00    +0.012 A 
ATOM      4  C   UNL     1       8.579  -1.295  22.888  0.00  0.00    -0.014 A 
ATOM      5  C   UNL     1       7.423  -0.491  22.924  0.00  0.00    +0.057 A 
ATOM      6  C   UNL     1       7.428   0.834  22.475  0.00  0.00    +0.159 A 
ENDROOT
BRANCH   4   7
ATOM      7  C   UNL     1       8.572  -2.682  23.417  0.00  0.00    -0.018 A 
ATOM      8  C   UNL     1       9.465  -3.082  24.430  0.00  0.00    +0.008 A 
ATOM      9  C   UNL     1       9.460  -4.383  24.947  0.00  0.00    +0.001 A 
ATOM     10  C   UNL     1       8.569  -5.326  24.446  0.00  0.00    +0.000 A 
ATOM     11  C   UNL     1       7.684  -4.966  23.436  0.00  0.00    +0.001 A 
ATOM     12  C   UNL     1       7.682  -3.659  22.933  0.00  0.00    +0.008 A 
ENDBRANCH   4   7
BRANCH   1  13
ATOM     13  O   UNL     1       8.706   2.660  21.483  0.00  0.00    -0.503 OA
ATOM     14  H   UNL     1       8.802   2.676  20.524  0.00  0.00    +0.292 HD
ENDBRANCH   1  13
BRANCH   6  15
ATOM     15  O   UNL     1       6.244   1.501  22.600  0.00  0.00    -0.503 OA
ATOM     16  H   UNL     1       6.371   2.453  22.526  0.00  0.00    +0.292 HD
ENDBRANCH   6  15
TORSDOF 3
ENDMDL
MODEL 8
REMARK VINA RESULT:      -5.4      1.782      2.499
REMARK  Name = 
REMARK  3 active torsions:
REMARK  status: ('A' for Active; 'I' for Inactive)
REMARK    1  A    between atoms: O_1  and  C_2
REMARK    2  A    between atoms: C_3  and  O_4
REMARK    3  A    between atoms: C_6  and  C_9
REMARK                            x       y       z     vdW  Elec       q    Type
REMARK                         _______ _______ _______ _____ _____    ______ ____
ROOT
ATOM      1  C   UNL     1       6.305  -5.716  25.791  0.00  0.00    +0.158 A 
ATOM      2  C   UNL     1       5.813  -5.145  24.623  0.00  0.00    +0.050 A 
ATOM      3  C   UNL     1       6.535  -4.142  23.965  0.00  0.00    +0.012 A 
ATOM      4  C   UNL     1       7.780  -3.696  24.448  0.00  0.00    -0.014 A 
ATOM      5  C   UNL     1       8.266  -4.316  25.615  0.00  0.00    +0.057 A 
ATOM      6  C   UNL     1       7.536  -5.301  26.289  0.00  0.00    +0.159 A 
ENDROOT
BRANCH   4   7
ATOM      7  C   UNL     1       8.541  -2.614  23.773  0.00  0.00    -0.018 A 
ATOM      8  C   UNL     1       9.385  -1.753  24.499  0.00  0.00    +0.008 A 
ATOM      9  C   UNL     1      10.117  -0.737  23.872  0.00  0.00    +0.001 A 
ATOM     10  C   UNL     1      10.006  -0.546  22.500  0.00  0.00    +0.000 A 
ATOM     11  C   UNL     1       9.170  -1.372  21.757  0.00  0.00    +0.001 A 
ATOM     12  C   UNL     1       8.452  -2.396  22.385  0.00  0.00    +0.008 A 
ENDBRANCH   4   7
BRANCH   1  13
ATOM     13  O   UNL     1       5.515  -6.665  26.369  0.00  0.00    -0.503 OA
ATOM     14  H   UNL     1       5.748  -6.796  27.295  0.00  0.00    +0.292 HD
ENDBRANCH   1  13
BRANCH   6  15
ATOM     15  O   UNL     1       8.118  -5.790  27.423  0.00  0.00    -0.503 OA
ATOM     16  H   UNL     1       8.793  -5.188  27.756  0.00  0.00    +0.292 HD
ENDBRANCH   6  15
TORSDOF 3
ENDMDL
MODEL 9
REMARK VINA RESULT:      -5.4      2.591      3.099
REMARK  Name = 
REMARK  3 active torsions:
REMARK  status: ('A' for Active; 'I' for Inactive)
REMARK    1  A    between atoms: O_1  and  C_2
REMARK    2  A    between atoms: C_3  and  O_4
REMARK    3  A    between atoms: C_6  and  C_9
REMARK                            x       y       z     vdW  Elec       q    Type
REMARK                         _______ _______ _______ _____ _____    ______ ____
ROOT
ATOM      1  C   UNL     1       6.991  -4.812  22.916  0.00  0.00    +0.158 A 
ATOM      2  C   UNL     1       7.998  -4.669  23.864  0.00  0.00    +0.050 A 
ATOM      3  C   UNL     1       8.696  -3.460  23.980  0.00  0.00    +0.012 A 
ATOM      4  C   UNL     1       8.391  -2.355  23.163  0.00  0.00    -0.014 A 
ATOM      5  C   UNL     1       7.345  -2.522  22.235  0.00  0.00    +0.057 A 
ATOM      6  C   UNL     1       6.662  -3.735  22.099  0.00  0.00    +0.159 A 
ENDROOT
BRANCH   4   7
ATOM      7  C   UNL     1       9.142  -1.078  23.259  0.00  0.00    -0.018 A 
ATOM      8  C   UNL     1       9.215  -0.189  22.169  0.00  0.00    +0.008 A 
ATOM      9  C   UNL     1       9.911   1.023  22.252  0.00  0.00    +0.001 A 
ATOM     10  C   UNL     1      10.568   1.369  23.428  0.00  0.00    +0.000 A 
ATOM     11  C   UNL     1      10.526   0.506  24.517  0.00  0.00    +0.001 A 
ATOM     12  C   UNL     1       9.817  -0.698  24.435  0.00  0.00    +0.008 A 
ENDBRANCH   4   7
BRANCH   1  13
ATOM     13  O   UNL     1       6.392  -6.036  22.866  0.00  0.00    -0.503 OA
ATOM     14  H   UNL     1       6.298  -6.342  21.957  0.00  0.00    +0.292 HD
ENDBRANCH   1  13
BRANCH   6  15
ATOM     15  O   UNL     1       5.693  -3.760  21.138  0.00  0.00    -0.503 OA
ATOM     16  H   UNL     1       5.822  -4.497  20.532  0.00  0.00    +0.292 HD
ENDBRANCH   6  15
TORSDOF 3
ENDMDL
