MODEL 1
REMARK VINA RESULT:      -4.2      0.000      0.000
REMARK  Name = 
REMARK  33 active torsions:
REMARK  status: ('A' for Active; 'I' for Inactive)
REMARK    1  A    between atoms: C_1  and  C_2
REMARK    2  A    between atoms: N_4  and  C_5
REMARK    3  A    between atoms: N_4  and  C_38
REMARK    4  A    between atoms: C_5  and  C_6
REMARK    5  A    between atoms: C_6  and  O_7
REMARK    6  A    between atoms: C_6  and  C_8
REMARK    7  A    between atoms: C_8  and  N_9
REMARK    8  A    between atoms: N_9  and  C_13
REMARK    9  A    between atoms: C_10  and  C_11
REMARK   10  A    between atoms: C_16  and  C_17
REMARK   11  A    between atoms: N_19  and  C_20
REMARK   12  A    between atoms: C_20  and  C_21
REMARK   13  A    between atoms: C_21  and  O_22
REMARK   14  A    between atoms: C_21  and  C_23
REMARK   15  A    between atoms: C_23  and  O_24
REMARK   16  A    between atoms: C_27  and  C_28
REMARK   17  A    between atoms: N_30  and  C_31
REMARK   18  A    between atoms: C_31  and  C_32
REMARK   19  A    between atoms: C_32  and  O_33
REMARK   20  A    between atoms: C_32  and  C_34
REMARK   21  A    between atoms: C_34  and  O_35
REMARK   22  A    between atoms: C_41  and  C_42
REMARK   23  A    between atoms: N_44  and  C_45
REMARK   24  A    between atoms: C_45  and  C_46
REMARK   25  A    between atoms: C_46  and  O_47
REMARK   26  A    between atoms: C_46  and  C_48
REMARK   27  A    between atoms: C_48  and  O_49
REMARK   28  A    between atoms: C_52  and  C_53
REMARK   29  A    between atoms: N_55  and  C_56
REMARK   30  A    between atoms: C_56  and  C_57
REMARK   31  A    between atoms: C_57  and  O_58
REMARK   32  A    between atoms: C_57  and  C_59
REMARK   33  A    between atoms: C_59  and  O_60
REMARK                            x       y       z     vdW  Elec       q    Type
REMARK                         _______ _______ _______ _____ _____    ______ ____
ROOT
ATOM      1  C   UNL     1       7.338  -0.896  23.534  0.00  0.00    +0.150 C 
ENDROOT
BRANCH   1   2
ATOM      2  O   UNL     1       7.770  -0.230  22.350  0.00  0.00    -0.389 OA
ATOM      3  H   UNL     1       7.004   0.004  21.791  0.00  0.00    +0.210 HD
ENDBRANCH   1   2
BRANCH   1   4
ATOM      4  C   UNL     1       6.711   0.218  24.378  0.00  0.00    +0.146 C 
BRANCH   4   5
ATOM      5  N   UNL     1       7.606   1.422  24.591  0.00  0.00    -0.267 N 
ATOM      6  C   UNL     1       9.001   1.504  24.705  0.00  0.00    +0.217 C 
ATOM      7  O   UNL     1       9.550   2.623  24.808  0.00  0.00    -0.276 OA
ATOM      8  C   UNL     1       9.906   0.291  24.818  0.00  0.00    +0.109 C 
BRANCH   5   9
ATOM      9  C   UNL     1       6.901   2.656  24.865  0.00  0.00    +0.064 A 
ATOM     10  C   UNL     1       6.750   3.081  26.212  0.00  0.00    +0.049 A 
ATOM     11  I   UNL     1       7.116   1.644  27.805  0.00  0.00    -0.041 I 
ATOM     12  C   UNL     1       6.216   4.359  26.518  0.00  0.00    +0.065 A 
ATOM     13  C   UNL     1       5.655   5.139  25.463  0.00  0.00    +0.040 A 
ATOM     14  I   UNL     1       4.709   7.032  25.951  0.00  0.00    -0.042 I 
ATOM     15  C   UNL     1       5.715   4.695  24.113  0.00  0.00    +0.065 A 
ATOM     16  C   UNL     1       6.428   3.500  23.829  0.00  0.00    +0.049 A 
ATOM     17  I   UNL     1       7.050   3.113  21.793  0.00  0.00    -0.041 I 
BRANCH  15  18
ATOM     18  C   UNL     1       4.870   5.289  23.017  0.00  0.00    +0.246 C 
ATOM     19  N   UNL     1       3.662   4.705  22.707  0.00  0.00    -0.309 N 
ATOM     20  H   UNL     1       3.366   3.857  23.177  0.00  0.00    +0.149 HD
ATOM     21  O   UNL     1       5.297   6.258  22.397  0.00  0.00    -0.270 OA
BRANCH  19  22
ATOM     22  C   UNL     1       2.852   5.141  21.568  0.00  0.00    +0.138 C 
BRANCH  22  23
ATOM     23  C   UNL     1       1.914   4.028  21.076  0.00  0.00    +0.157 C 
BRANCH  23  24
ATOM     24  O   UNL     1       0.746   3.988  21.916  0.00  0.00    -0.388 OA
ATOM     25  H   UNL     1       1.034   3.720  22.807  0.00  0.00    +0.210 HD
ENDBRANCH  23  24
BRANCH  23  26
ATOM     26  C   UNL     1       1.511   4.218  19.606  0.00  0.00    +0.188 C 
BRANCH  26  27
ATOM     27  O   UNL     1       2.607   3.988  18.726  0.00  0.00    -0.392 OA
ATOM     28  H   UNL     1       2.324   4.204  17.819  0.00  0.00    +0.210 HD
ENDBRANCH  26  27
ENDBRANCH  23  26
ENDBRANCH  22  23
ENDBRANCH  19  22
ENDBRANCH  15  18
BRANCH  12  29
ATOM     29  C   UNL     1       6.178   4.821  27.936  0.00  0.00    +0.246 C 
ATOM     30  N   UNL     1       5.021   4.625  28.660  0.00  0.00    -0.309 N 
ATOM     31  H   UNL     1       4.172   4.279  28.214  0.00  0.00    +0.149 HD
ATOM     32  O   UNL     1       7.164   5.390  28.424  0.00  0.00    -0.270 OA
BRANCH  30  33
ATOM     33  C   UNL     1       4.927   4.984  30.070  0.00  0.00    +0.138 C 
BRANCH  33  34
ATOM     34  C   UNL     1       3.720   5.877  30.407  0.00  0.00    +0.157 C 
BRANCH  34  35
ATOM     35  O   UNL     1       3.793   7.090  29.645  0.00  0.00    -0.388 OA
ATOM     36  H   UNL     1       3.183   7.734  30.047  0.00  0.00    +0.210 HD
ENDBRANCH  34  35
BRANCH  34  37
ATOM     37  C   UNL     1       2.407   5.126  30.117  0.00  0.00    +0.188 C 
BRANCH  37  38
ATOM     38  O   UNL     1       2.597   3.715  30.073  0.00  0.00    -0.392 OA
ATOM     39  H   UNL     1       2.446   3.417  29.159  0.00  0.00    +0.210 HD
ENDBRANCH  37  38
ENDBRANCH  34  37
ENDBRANCH  33  34
ENDBRANCH  30  33
ENDBRANCH  12  29
ENDBRANCH   5   9
ENDBRANCH   4   5
ENDBRANCH   1   4
BRANCH   1  40
ATOM     40  C   UNL     1       6.520  -2.163  23.225  0.00  0.00    +0.146 C 
BRANCH  40  43
ATOM     41  C   UNL     1       7.477  -4.847  25.929  0.00  0.00    +0.109 C 
ATOM     42  C   UNL     1       7.636  -3.839  24.801  0.00  0.00    +0.217 C 
ATOM     43  N   UNL     1       6.495  -3.133  24.388  0.00  0.00    -0.267 N 
ATOM     44  O   UNL     1       8.732  -3.702  24.262  0.00  0.00    -0.276 OA
BRANCH  43  45
ATOM     45  C   UNL     1       5.196  -3.574  24.795  0.00  0.00    +0.064 A 
ATOM     46  C   UNL     1       4.540  -4.615  24.086  0.00  0.00    +0.049 A 
ATOM     47  I   UNL     1       5.669  -5.681  22.555  0.00  0.00    -0.041 I 
ATOM     48  C   UNL     1       3.221  -4.991  24.427  0.00  0.00    +0.065 A 
ATOM     49  C   UNL     1       2.580  -4.318  25.514  0.00  0.00    +0.040 A 
ATOM     50  I   UNL     1       0.443  -4.570  25.810  0.00  0.00    -0.042 I 
ATOM     51  C   UNL     1       3.265  -3.353  26.303  0.00  0.00    +0.065 A 
ATOM     52  C   UNL     1       4.573  -2.977  25.924  0.00  0.00    +0.049 A 
ATOM     53  I   UNL     1       5.712  -1.548  27.093  0.00  0.00    -0.041 I 
BRANCH  48  54
ATOM     54  C   UNL     1       2.521  -6.119  23.737  0.00  0.00    +0.246 C 
ATOM     55  N   UNL     1       2.586  -7.380  24.305  0.00  0.00    -0.309 N 
ATOM     56  H   UNL     1       2.737  -7.436  25.305  0.00  0.00    +0.149 HD
ATOM     57  O   UNL     1       1.886  -5.895  22.712  0.00  0.00    -0.270 OA
BRANCH  55  58
ATOM     58  C   UNL     1       1.823  -8.479  23.719  0.00  0.00    +0.138 C 
BRANCH  58  59
ATOM     59  C   UNL     1       1.140  -9.351  24.781  0.00  0.00    +0.157 C 
BRANCH  59  60
ATOM     60  O   UNL     1       2.054 -10.359  25.227  0.00  0.00    -0.388 OA
ATOM     61  H   UNL     1       2.954  -9.981  25.223  0.00  0.00    +0.210 HD
ENDBRANCH  59  60
BRANCH  59  62
ATOM     62  C   UNL     1       0.665  -8.497  25.971  0.00  0.00    +0.188 C 
BRANCH  62  63
ATOM     63  O   UNL     1       1.724  -8.256  26.893  0.00  0.00    -0.392 OA
ATOM     64  H   UNL     1       2.113  -9.113  27.145  0.00  0.00    +0.210 HD
ENDBRANCH  62  63
ENDBRANCH  59  62
ENDBRANCH  58  59
ENDBRANCH  55  58
ENDBRANCH  48  54
BRANCH  51  65
ATOM     65  C   UNL     1       2.607  -2.664  27.458  0.00  0.00    +0.246 C 
ATOM     66  N   UNL     1       1.981  -1.459  27.212  0.00  0.00    -0.309 N 
ATOM     67  H   UNL     1       1.992  -1.030  26.293  0.00  0.00    +0.149 HD
ATOM     68  O   UNL     1       2.640  -3.175  28.573  0.00  0.00    -0.270 OA
BRANCH  66  69
ATOM     69  C   UNL     1       1.285  -0.729  28.271  0.00  0.00    +0.138 C 
BRANCH  69  70
ATOM     70  C   UNL     1       1.784   0.717  28.389  0.00  0.00    +0.157 C 
BRANCH  70  71
ATOM     71  O   UNL     1       2.516   0.858  29.616  0.00  0.00    -0.388 OA
ATOM     72  H   UNL     1       3.295   1.415  29.434  0.00  0.00    +0.210 HD
ENDBRANCH  70  71
BRANCH  70  73
ATOM     73  C   UNL     1       2.657   1.115  27.186  0.00  0.00    +0.188 C 
BRANCH  73  74
ATOM     74  O   UNL     1       3.358   2.332  27.430  0.00  0.00    -0.392 OA
ATOM     75  H   UNL     1       4.040   2.435  26.744  0.00  0.00    +0.210 HD
ENDBRANCH  73  74
ENDBRANCH  70  73
ENDBRANCH  69  70
ENDBRANCH  66  69
ENDBRANCH  51  65
ENDBRANCH  43  45
ENDBRANCH  40  43
ENDBRANCH   1  40
TORSDOF 31
ENDMDL
MODEL 2
REMARK VINA RESULT:      -2.9      1.657      6.942
REMARK  Name = 
REMARK  33 active torsions:
REMARK  status: ('A' for Active; 'I' for Inactive)
REMARK    1  A    between atoms: C_1  and  C_2
REMARK    2  A    between atoms: N_4  and  C_5
REMARK    3  A    between atoms: N_4  and  C_38
REMARK    4  A    between atoms: C_5  and  C_6
REMARK    5  A    between atoms: C_6  and  O_7
REMARK    6  A    between atoms: C_6  and  C_8
REMARK    7  A    between atoms: C_8  and  N_9
REMARK    8  A    between atoms: N_9  and  C_13
REMARK    9  A    between atoms: C_10  and  C_11
REMARK   10  A    between atoms: C_16  and  C_17
REMARK   11  A    between atoms: N_19  and  C_20
REMARK   12  A    between atoms: C_20  and  C_21
REMARK   13  A    between atoms: C_21  and  O_22
REMARK   14  A    between atoms: C_21  and  C_23
REMARK   15  A    between atoms: C_23  and  O_24
REMARK   16  A    between atoms: C_27  and  C_28
REMARK   17  A    between atoms: N_30  and  C_31
REMARK   18  A    between atoms: C_31  and  C_32
REMARK   19  A    between atoms: C_32  and  O_33
REMARK   20  A    between atoms: C_32  and  C_34
REMARK   21  A    between atoms: C_34  and  O_35
REMARK   22  A    between atoms: C_41  and  C_42
REMARK   23  A    between atoms: N_44  and  C_45
REMARK   24  A    between atoms: C_45  and  C_46
REMARK   25  A    between atoms: C_46  and  O_47
REMARK   26  A    between atoms: C_46  and  C_48
REMARK   27  A    between atoms: C_48  and  O_49
REMARK   28  A    between atoms: C_52  and  C_53
REMARK   29  A    between atoms: N_55  and  C_56
REMARK   30  A    between atoms: C_56  and  C_57
REMARK   31  A    between atoms: C_57  and  O_58
REMARK   32  A    between atoms: C_57  and  C_59
REMARK   33  A    between atoms: C_59  and  O_60
REMARK                            x       y       z     vdW  Elec       q    Type
REMARK                         _______ _______ _______ _____ _____    ______ ____
ROOT
ATOM      1  C   UNL     1       6.796  -0.277  24.693  0.00  0.00    +0.150 C 
ENDROOT
BRANCH   1   2
ATOM      2  O   UNL     1       8.132  -0.490  25.145  0.00  0.00    -0.389 OA
ATOM      3  H   UNL     1       8.136  -1.051  25.945  0.00  0.00    +0.210 HD
ENDBRANCH   1   2
BRANCH   1   4
ATOM      4  C   UNL     1       6.933   0.826  23.639  0.00  0.00    +0.146 C 
BRANCH   4   5
ATOM      5  N   UNL     1       7.033   2.227  24.208  0.00  0.00    -0.267 N 
ATOM      6  C   UNL     1       8.160   3.007  24.501  0.00  0.00    +0.217 C 
ATOM      7  O   UNL     1       8.015   4.181  24.905  0.00  0.00    -0.276 OA
ATOM      8  C   UNL     1       9.581   2.475  24.459  0.00  0.00    +0.109 C 
BRANCH   5   9
ATOM      9  C   UNL     1       5.774   2.788  24.653  0.00  0.00    +0.064 A 
ATOM     10  C   UNL     1       4.770   3.080  23.693  0.00  0.00    +0.049 A 
ATOM     11  I   UNL     1       5.329   3.158  21.591  0.00  0.00    -0.041 I 
ATOM     12  C   UNL     1       3.468   3.472  24.095  0.00  0.00    +0.065 A 
ATOM     13  C   UNL     1       3.232   3.755  25.474  0.00  0.00    +0.040 A 
ATOM     14  I   UNL     1       1.279   4.493  26.071  0.00  0.00    -0.042 I 
ATOM     15  C   UNL     1       4.250   3.555  26.447  0.00  0.00    +0.065 A 
ATOM     16  C   UNL     1       5.478   2.979  26.026  0.00  0.00    +0.049 A 
ATOM     17  I   UNL     1       6.792   2.117  27.514  0.00  0.00    -0.041 I 
BRANCH  15  18
ATOM     18  C   UNL     1       4.183   4.135  27.835  0.00  0.00    +0.246 C 
ATOM     19  N   UNL     1       4.776   5.353  28.085  0.00  0.00    -0.309 N 
ATOM     20  H   UNL     1       5.294   5.830  27.356  0.00  0.00    +0.149 HD
ATOM     21  O   UNL     1       3.634   3.489  28.723  0.00  0.00    -0.270 OA
BRANCH  19  22
ATOM     22  C   UNL     1       4.869   5.915  29.433  0.00  0.00    +0.138 C 
BRANCH  22  23
ATOM     23  C   UNL     1       6.277   5.741  30.026  0.00  0.00    +0.157 C 
BRANCH  23  24
ATOM     24  O   UNL     1       6.433   4.387  30.485  0.00  0.00    -0.388 OA
ATOM     25  H   UNL     1       5.680   4.186  31.070  0.00  0.00    +0.210 HD
ENDBRANCH  23  24
BRANCH  23  26
ATOM     26  C   UNL     1       7.378   6.096  29.016  0.00  0.00    +0.188 C 
BRANCH  26  27
ATOM     27  O   UNL     1       6.954   7.106  28.107  0.00  0.00    -0.392 OA
ATOM     28  H   UNL     1       7.261   6.865  27.214  0.00  0.00    +0.210 HD
ENDBRANCH  26  27
ENDBRANCH  23  26
ENDBRANCH  22  23
ENDBRANCH  19  22
ENDBRANCH  15  18
BRANCH  12  29
ATOM     29  C   UNL     1       2.403   3.658  23.067  0.00  0.00    +0.246 C 
ATOM     30  N   UNL     1       2.168   4.929  22.588  0.00  0.00    -0.309 N 
ATOM     31  H   UNL     1       2.624   5.742  23.003  0.00  0.00    +0.149 HD
ATOM     32  O   UNL     1       1.739   2.685  22.685  0.00  0.00    -0.270 OA
BRANCH  30  33
ATOM     33  C   UNL     1       1.195   5.185  21.533  0.00  0.00    +0.138 C 
BRANCH  33  34
ATOM     34  C   UNL     1       1.825   5.608  20.194  0.00  0.00    +0.157 C 
BRANCH  34  35
ATOM     35  O   UNL     1       3.028   6.348  20.442  0.00  0.00    -0.388 OA
ATOM     36  H   UNL     1       3.784   5.762  20.258  0.00  0.00    +0.210 HD
ENDBRANCH  34  35
BRANCH  34  37
ATOM     37  C   UNL     1       2.113   4.368  19.327  0.00  0.00    +0.188 C 
BRANCH  37  38
ATOM     38  O   UNL     1       2.292   4.707  17.954  0.00  0.00    -0.392 OA
ATOM     39  H   UNL     1       2.907   4.064  17.561  0.00  0.00    +0.210 HD
ENDBRANCH  37  38
ENDBRANCH  34  37
ENDBRANCH  33  34
ENDBRANCH  30  33
ENDBRANCH  12  29
ENDBRANCH   5   9
ENDBRANCH   4   5
ENDBRANCH   1   4
BRANCH   1  40
ATOM     40  C   UNL     1       6.090  -1.594  24.323  0.00  0.00    +0.146 C 
BRANCH  40  43
ATOM     41  C   UNL     1       6.947  -4.293  27.046  0.00  0.00    +0.109 C 
ATOM     42  C   UNL     1       7.144  -3.290  25.919  0.00  0.00    +0.217 C 
ATOM     43  N   UNL     1       6.025  -2.562  25.487  0.00  0.00    -0.267 N 
ATOM     44  O   UNL     1       8.252  -3.176  25.399  0.00  0.00    -0.276 OA
BRANCH  43  45
ATOM     45  C   UNL     1       4.711  -2.976  25.872  0.00  0.00    +0.064 A 
ATOM     46  C   UNL     1       4.111  -2.446  27.047  0.00  0.00    +0.049 A 
ATOM     47  I   UNL     1       5.131  -0.813  28.071  0.00  0.00    -0.041 I 
ATOM     48  C   UNL     1       2.852  -2.920  27.481  0.00  0.00    +0.065 A 
ATOM     49  C   UNL     1       2.193  -3.919  26.699  0.00  0.00    +0.040 A 
ATOM     50  I   UNL     1       0.475  -4.957  27.529  0.00  0.00    -0.042 I 
ATOM     51  C   UNL     1       2.730  -4.375  25.463  0.00  0.00    +0.065 A 
ATOM     52  C   UNL     1       4.001  -3.905  25.066  0.00  0.00    +0.049 A 
ATOM     53  I   UNL     1       4.880  -4.510  23.176  0.00  0.00    -0.041 I 
BRANCH  48  54
ATOM     54  C   UNL     1       2.168  -2.346  28.681  0.00  0.00    +0.246 C 
ATOM     55  N   UNL     1       1.328  -1.260  28.505  0.00  0.00    -0.309 N 
ATOM     56  H   UNL     1       0.900  -1.143  27.594  0.00  0.00    +0.149 HD
ATOM     57  O   UNL     1       2.341  -2.868  29.778  0.00  0.00    -0.270 OA
BRANCH  55  58
ATOM     58  C   UNL     1       0.560  -0.746  29.636  0.00  0.00    +0.138 C 
BRANCH  58  59
ATOM     59  C   UNL     1       0.872   0.726  29.937  0.00  0.00    +0.157 C 
BRANCH  59  60
ATOM     60  O   UNL     1       2.273   0.870  30.194  0.00  0.00    -0.388 OA
ATOM     61  H   UNL     1       2.426   1.755  30.576  0.00  0.00    +0.210 HD
ENDBRANCH  59  60
BRANCH  59  62
ATOM     62  C   UNL     1       0.449   1.629  28.763  0.00  0.00    +0.188 C 
BRANCH  62  63
ATOM     63  O   UNL     1       0.771   2.994  29.016  0.00  0.00    -0.392 OA
ATOM     64  H   UNL     1       0.460   3.527  28.263  0.00  0.00    +0.210 HD
ENDBRANCH  62  63
ENDBRANCH  59  62
ENDBRANCH  58  59
ENDBRANCH  55  58
ENDBRANCH  48  54
BRANCH  51  65
ATOM     65  C   UNL     1       2.030  -5.402  24.627  0.00  0.00    +0.246 C 
ATOM     66  N   UNL     1       2.394  -6.722  24.799  0.00  0.00    -0.309 N 
ATOM     67  H   UNL     1       3.133  -6.993  25.439  0.00  0.00    +0.149 HD
ATOM     68  O   UNL     1       1.169  -5.053  23.826  0.00  0.00    -0.270 OA
BRANCH  66  69
ATOM     69  C   UNL     1       1.745  -7.797  24.050  0.00  0.00    +0.138 C 
BRANCH  69  70
ATOM     70  C   UNL     1       1.285  -8.935  24.971  0.00  0.00    +0.157 C 
BRANCH  70  71
ATOM     71  O   UNL     1       2.352  -9.886  25.103  0.00  0.00    -0.388 OA
ATOM     72  H   UNL     1       1.966 -10.778  25.022  0.00  0.00    +0.210 HD
ENDBRANCH  70  71
BRANCH  70  73
ATOM     73  C   UNL     1       0.851  -8.408  26.350  0.00  0.00    +0.188 C 
BRANCH  73  74
ATOM     74  O   UNL     1       1.962  -8.287  27.235  0.00  0.00    -0.392 OA
ATOM     75  H   UNL     1       2.686  -7.846  26.758  0.00  0.00    +0.210 HD
ENDBRANCH  73  74
ENDBRANCH  70  73
ENDBRANCH  69  70
ENDBRANCH  66  69
ENDBRANCH  51  65
ENDBRANCH  43  45
ENDBRANCH  40  43
ENDBRANCH   1  40
TORSDOF 31
ENDMDL
MODEL 3
REMARK VINA RESULT:      -2.5      1.934      2.546
REMARK  Name = 
REMARK  33 active torsions:
REMARK  status: ('A' for Active; 'I' for Inactive)
REMARK    1  A    between atoms: C_1  and  C_2
REMARK    2  A    between atoms: N_4  and  C_5
REMARK    3  A    between atoms: N_4  and  C_38
REMARK    4  A    between atoms: C_5  and  C_6
REMARK    5  A    between atoms: C_6  and  O_7
REMARK    6  A    between atoms: C_6  and  C_8
REMARK    7  A    between atoms: C_8  and  N_9
REMARK    8  A    between atoms: N_9  and  C_13
REMARK    9  A    between atoms: C_10  and  C_11
REMARK   10  A    between atoms: C_16  and  C_17
REMARK   11  A    between atoms: N_19  and  C_20
REMARK   12  A    between atoms: C_20  and  C_21
REMARK   13  A    between atoms: C_21  and  O_22
REMARK   14  A    between atoms: C_21  and  C_23
REMARK   15  A    between atoms: C_23  and  O_24
REMARK   16  A    between atoms: C_27  and  C_28
REMARK   17  A    between atoms: N_30  and  C_31
REMARK   18  A    between atoms: C_31  and  C_32
REMARK   19  A    between atoms: C_32  and  O_33
REMARK   20  A    between atoms: C_32  and  C_34
REMARK   21  A    between atoms: C_34  and  O_35
REMARK   22  A    between atoms: C_41  and  C_42
REMARK   23  A    between atoms: N_44  and  C_45
REMARK   24  A    between atoms: C_45  and  C_46
REMARK   25  A    between atoms: C_46  and  O_47
REMARK   26  A    between atoms: C_46  and  C_48
REMARK   27  A    between atoms: C_48  and  O_49
REMARK   28  A    between atoms: C_52  and  C_53
REMARK   29  A    between atoms: N_55  and  C_56
REMARK   30  A    between atoms: C_56  and  C_57
REMARK   31  A    between atoms: C_57  and  O_58
REMARK   32  A    between atoms: C_57  and  C_59
REMARK   33  A    between atoms: C_59  and  O_60
REMARK                            x       y       z     vdW  Elec       q    Type
REMARK                         _______ _______ _______ _____ _____    ______ ____
ROOT
ATOM      1  C   UNL     1       6.983   0.797  23.287  0.00  0.00    +0.150 C 
ENDROOT
BRANCH   1   2
ATOM      2  O   UNL     1       7.394   1.736  22.296  0.00  0.00    -0.389 OA
ATOM      3  H   UNL     1       8.074   2.338  22.657  0.00  0.00    +0.210 HD
ENDBRANCH   1   2
BRANCH   1   4
ATOM      4  C   UNL     1       5.804   1.484  23.983  0.00  0.00    +0.146 C 
BRANCH   4   5
ATOM      5  N   UNL     1       6.108   2.874  24.504  0.00  0.00    -0.267 N 
ATOM      6  C   UNL     1       7.245   3.366  25.160  0.00  0.00    +0.217 C 
ATOM      7  O   UNL     1       7.319   4.582  25.446  0.00  0.00    -0.276 OA
ATOM      8  C   UNL     1       8.376   2.484  25.653  0.00  0.00    +0.109 C 
BRANCH   5   9
ATOM      9  C   UNL     1       4.994   3.797  24.445  0.00  0.00    +0.064 A 
ATOM     10  C   UNL     1       4.044   3.801  25.500  0.00  0.00    +0.049 A 
ATOM     11  I   UNL     1       4.004   2.113  26.873  0.00  0.00    -0.041 I 
ATOM     12  C   UNL     1       3.034   4.794  25.569  0.00  0.00    +0.065 A 
ATOM     13  C   UNL     1       2.866   5.680  24.463  0.00  0.00    +0.040 A 
ATOM     14  I   UNL     1       1.231   7.108  24.504  0.00  0.00    -0.042 I 
ATOM     15  C   UNL     1       3.752   5.639  23.351  0.00  0.00    +0.065 A 
ATOM     16  C   UNL     1       4.865   4.757  23.410  0.00  0.00    +0.049 A 
ATOM     17  I   UNL     1       6.527   5.080  22.063  0.00  0.00    -0.041 I 
BRANCH  15  18
ATOM     18  C   UNL     1       3.444   6.296  22.032  0.00  0.00    +0.246 C 
ATOM     19  N   UNL     1       2.282   5.966  21.370  0.00  0.00    -0.309 N 
ATOM     20  H   UNL     1       1.665   5.253  21.742  0.00  0.00    +0.149 HD
ATOM     21  O   UNL     1       4.257   7.084  21.556  0.00  0.00    -0.270 OA
BRANCH  19  22
ATOM     22  C   UNL     1       1.981   6.459  20.025  0.00  0.00    +0.138 C 
BRANCH  22  23
ATOM     23  C   UNL     1       0.847   5.659  19.366  0.00  0.00    +0.157 C 
BRANCH  23  24
ATOM     24  O   UNL     1       0.443   6.321  18.154  0.00  0.00    -0.388 OA
ATOM     25  H   UNL     1       0.497   5.670  17.432  0.00  0.00    +0.210 HD
ENDBRANCH  23  24
BRANCH  23  26
ATOM     26  C   UNL     1       1.256   4.208  19.072  0.00  0.00    +0.188 C 
BRANCH  26  27
ATOM     27  O   UNL     1       2.660   4.088  18.869  0.00  0.00    -0.392 OA
ATOM     28  H   UNL     1       2.810   3.576  18.054  0.00  0.00    +0.210 HD
ENDBRANCH  26  27
ENDBRANCH  23  26
ENDBRANCH  22  23
ENDBRANCH  19  22
ENDBRANCH  15  18
BRANCH  12  29
ATOM     29  C   UNL     1       2.124   4.840  26.750  0.00  0.00    +0.246 C 
ATOM     30  N   UNL     1       2.542   5.517  27.875  0.00  0.00    -0.309 N 
ATOM     31  H   UNL     1       3.492   5.880  27.950  0.00  0.00    +0.149 HD
ATOM     32  O   UNL     1       1.032   4.256  26.708  0.00  0.00    -0.270 OA
BRANCH  30  33
ATOM     33  C   UNL     1       1.684   5.668  29.045  0.00  0.00    +0.138 C 
BRANCH  33  34
ATOM     34  C   UNL     1       1.777   4.500  30.042  0.00  0.00    +0.157 C 
BRANCH  34  35
ATOM     35  O   UNL     1       1.206   3.322  29.457  0.00  0.00    -0.388 OA
ATOM     36  H   UNL     1       0.359   3.572  29.046  0.00  0.00    +0.210 HD
ENDBRANCH  34  35
BRANCH  34  37
ATOM     37  C   UNL     1       3.245   4.257  30.440  0.00  0.00    +0.188 C 
BRANCH  37  38
ATOM     38  O   UNL     1       3.993   5.469  30.485  0.00  0.00    -0.392 OA
ATOM     39  H   UNL     1       3.653   6.062  29.793  0.00  0.00    +0.210 HD
ENDBRANCH  37  38
ENDBRANCH  34  37
ENDBRANCH  33  34
ENDBRANCH  30  33
ENDBRANCH  12  29
ENDBRANCH   5   9
ENDBRANCH   4   5
ENDBRANCH   1   4
BRANCH   1  40
ATOM     40  C   UNL     1       6.801  -0.618  22.709  0.00  0.00    +0.146 C 
BRANCH  40  43
ATOM     41  C   UNL     1       8.797  -3.400  24.634  0.00  0.00    +0.109 C 
ATOM     42  C   UNL     1       8.507  -2.266  23.663  0.00  0.00    +0.217 C 
ATOM     43  N   UNL     1       7.223  -1.699  23.682  0.00  0.00    -0.267 N 
ATOM     44  O   UNL     1       9.378  -1.910  22.872  0.00  0.00    -0.276 OA
BRANCH  43  45
ATOM     45  C   UNL     1       6.156  -2.370  24.360  0.00  0.00    +0.064 A 
ATOM     46  C   UNL     1       5.323  -3.280  23.655  0.00  0.00    +0.049 A 
ATOM     47  I   UNL     1       5.882  -3.812  21.616  0.00  0.00    -0.041 I 
ATOM     48  C   UNL     1       4.213  -3.874  24.297  0.00  0.00    +0.065 A 
ATOM     49  C   UNL     1       3.969  -3.559  25.670  0.00  0.00    +0.040 A 
ATOM     50  I   UNL     1       2.072  -4.117  26.569  0.00  0.00    -0.042 I 
ATOM     51  C   UNL     1       4.859  -2.738  26.417  0.00  0.00    +0.065 A 
ATOM     52  C   UNL     1       5.946  -2.136  25.745  0.00  0.00    +0.049 A 
ATOM     53  I   UNL     1       7.381  -0.907  26.812  0.00  0.00    -0.041 I 
BRANCH  48  54
ATOM     54  C   UNL     1       3.348  -4.878  23.601  0.00  0.00    +0.246 C 
ATOM     55  N   UNL     1       3.604  -6.222  23.804  0.00  0.00    -0.309 N 
ATOM     56  H   UNL     1       4.062  -6.486  24.669  0.00  0.00    +0.149 HD
ATOM     57  O   UNL     1       2.420  -4.487  22.900  0.00  0.00    -0.270 OA
BRANCH  55  58
ATOM     58  C   UNL     1       2.711  -7.226  23.230  0.00  0.00    +0.138 C 
BRANCH  58  59
ATOM     59  C   UNL     1       1.660  -7.719  24.234  0.00  0.00    +0.157 C 
BRANCH  59  60
ATOM     60  O   UNL     1       0.746  -8.598  23.570  0.00  0.00    -0.388 OA
ATOM     61  H   UNL     1       1.252  -9.345  23.199  0.00  0.00    +0.210 HD
ENDBRANCH  59  60
BRANCH  59  62
ATOM     62  C   UNL     1       2.328  -8.440  25.420  0.00  0.00    +0.188 C 
BRANCH  62  63
ATOM     63  O   UNL     1       3.730  -8.186  25.460  0.00  0.00    -0.392 OA
ATOM     64  H   UNL     1       3.912  -7.583  26.202  0.00  0.00    +0.210 HD
ENDBRANCH  62  63
ENDBRANCH  59  62
ENDBRANCH  58  59
ENDBRANCH  55  58
ENDBRANCH  48  54
BRANCH  51  65
ATOM     65  C   UNL     1       4.622  -2.425  27.862  0.00  0.00    +0.246 C 
ATOM     66  N   UNL     1       4.283  -1.128  28.189  0.00  0.00    -0.309 N 
ATOM     67  H   UNL     1       4.229  -0.398  27.486  0.00  0.00    +0.149 HD
ATOM     68  O   UNL     1       4.734  -3.311  28.704  0.00  0.00    -0.270 OA
BRANCH  66  69
ATOM     69  C   UNL     1       4.002  -0.736  29.569  0.00  0.00    +0.138 C 
BRANCH  69  70
ATOM     70  C   UNL     1       2.513  -0.434  29.784  0.00  0.00    +0.157 C 
BRANCH  70  71
ATOM     71  O   UNL     1       2.377   0.903  30.288  0.00  0.00    -0.388 OA
ATOM     72  H   UNL     1       1.490   1.223  30.045  0.00  0.00    +0.210 HD
ENDBRANCH  70  71
BRANCH  70  73
ATOM     73  C   UNL     1       1.706  -0.610  28.485  0.00  0.00    +0.188 C 
BRANCH  73  74
ATOM     74  O   UNL     1       1.191  -1.934  28.366  0.00  0.00    -0.392 OA
ATOM     75  H   UNL     1       1.723  -2.520  28.932  0.00  0.00    +0.210 HD
ENDBRANCH  73  74
ENDBRANCH  70  73
ENDBRANCH  69  70
ENDBRANCH  66  69
ENDBRANCH  51  65
ENDBRANCH  43  45
ENDBRANCH  40  43
ENDBRANCH   1  40
TORSDOF 31
ENDMDL
MODEL 4
REMARK VINA RESULT:      -2.4      1.688      6.685
REMARK  Name = 
REMARK  33 active torsions:
REMARK  status: ('A' for Active; 'I' for Inactive)
REMARK    1  A    between atoms: C_1  and  C_2
REMARK    2  A    between atoms: N_4  and  C_5
REMARK    3  A    between atoms: N_4  and  C_38
REMARK    4  A    between atoms: C_5  and  C_6
REMARK    5  A    between atoms: C_6  and  O_7
REMARK    6  A    between atoms: C_6  and  C_8
REMARK    7  A    between atoms: C_8  and  N_9
REMARK    8  A    between atoms: N_9  and  C_13
REMARK    9  A    between atoms: C_10  and  C_11
REMARK   10  A    between atoms: C_16  and  C_17
REMARK   11  A    between atoms: N_19  and  C_20
REMARK   12  A    between atoms: C_20  and  C_21
REMARK   13  A    between atoms: C_21  and  O_22
REMARK   14  A    between atoms: C_21  and  C_23
REMARK   15  A    between atoms: C_23  and  O_24
REMARK   16  A    between atoms: C_27  and  C_28
REMARK   17  A    between atoms: N_30  and  C_31
REMARK   18  A    between atoms: C_31  and  C_32
REMARK   19  A    between atoms: C_32  and  O_33
REMARK   20  A    between atoms: C_32  and  C_34
REMARK   21  A    between atoms: C_34  and  O_35
REMARK   22  A    between atoms: C_41  and  C_42
REMARK   23  A    between atoms: N_44  and  C_45
REMARK   24  A    between atoms: C_45  and  C_46
REMARK   25  A    between atoms: C_46  and  O_47
REMARK   26  A    between atoms: C_46  and  C_48
REMARK   27  A    between atoms: C_48  and  O_49
REMARK   28  A    between atoms: C_52  and  C_53
REMARK   29  A    between atoms: N_55  and  C_56
REMARK   30  A    between atoms: C_56  and  C_57
REMARK   31  A    between atoms: C_57  and  O_58
REMARK   32  A    between atoms: C_57  and  C_59
REMARK   33  A    between atoms: C_59  and  O_60
REMARK                            x       y       z     vdW  Elec       q    Type
REMARK                         _______ _______ _______ _____ _____    ______ ____
ROOT
ATOM      1  C   UNL     1       7.231  -0.414  23.647  0.00  0.00    +0.150 C 
ENDROOT
BRANCH   1   2
ATOM      2  O   UNL     1       8.654  -0.374  23.569  0.00  0.00    -0.389 OA
ATOM      3  H   UNL     1       9.033  -0.041  24.406  0.00  0.00    +0.210 HD
ENDBRANCH   1   2
BRANCH   1   4
ATOM      4  C   UNL     1       6.777   0.692  22.689  0.00  0.00    +0.146 C 
BRANCH   4   5
ATOM      5  N   UNL     1       7.081   2.097  23.167  0.00  0.00    -0.267 N 
ATOM      6  C   UNL     1       8.261   2.848  23.077  0.00  0.00    +0.217 C 
ATOM      7  O   UNL     1       8.276   4.032  23.479  0.00  0.00    -0.276 OA
ATOM      8  C   UNL     1       9.585   2.276  22.608  0.00  0.00    +0.109 C 
BRANCH   5   9
ATOM      9  C   UNL     1       6.037   2.701  23.969  0.00  0.00    +0.064 A 
ATOM     10  C   UNL     1       4.809   3.054  23.351  0.00  0.00    +0.049 A 
ATOM     11  I   UNL     1       4.726   3.153  21.178  0.00  0.00    -0.041 I 
ATOM     12  C   UNL     1       3.703   3.492  24.123  0.00  0.00    +0.065 A 
ATOM     13  C   UNL     1       3.897   3.755  25.512  0.00  0.00    +0.040 A 
ATOM     14  I   UNL     1       2.244   4.561  26.666  0.00  0.00    -0.042 I 
ATOM     15  C   UNL     1       5.147   3.493  26.139  0.00  0.00    +0.065 A 
ATOM     16  C   UNL     1       6.169   2.875  25.369  0.00  0.00    +0.049 A 
ATOM     17  I   UNL     1       7.822   1.929  26.395  0.00  0.00    -0.041 I 
BRANCH  15  18
ATOM     18  C   UNL     1       5.519   4.046  27.489  0.00  0.00    +0.246 C 
ATOM     19  N   UNL     1       4.989   3.470  28.622  0.00  0.00    -0.309 N 
ATOM     20  H   UNL     1       4.317   2.714  28.547  0.00  0.00    +0.149 HD
ATOM     21  O   UNL     1       6.257   5.025  27.547  0.00  0.00    -0.270 OA
BRANCH  19  22
ATOM     22  C   UNL     1       5.196   4.035  29.956  0.00  0.00    +0.138 C 
BRANCH  22  23
ATOM     23  C   UNL     1       4.178   5.143  30.271  0.00  0.00    +0.157 C 
BRANCH  23  24
ATOM     24  O   UNL     1       4.183   6.107  29.202  0.00  0.00    -0.388 OA
ATOM     25  H   UNL     1       3.476   6.752  29.386  0.00  0.00    +0.210 HD
ENDBRANCH  23  24
BRANCH  23  26
ATOM     26  C   UNL     1       2.762   4.586  30.483  0.00  0.00    +0.188 C 
BRANCH  26  27
ATOM     27  O   UNL     1       2.703   3.187  30.222  0.00  0.00    -0.392 OA
ATOM     28  H   UNL     1       3.217   3.002  29.415  0.00  0.00    +0.210 HD
ENDBRANCH  26  27
ENDBRANCH  23  26
ENDBRANCH  22  23
ENDBRANCH  19  22
ENDBRANCH  15  18
BRANCH  12  29
ATOM     29  C   UNL     1       2.392   3.744  23.458  0.00  0.00    +0.246 C 
ATOM     30  N   UNL     1       2.184   4.967  22.858  0.00  0.00    -0.309 N 
ATOM     31  H   UNL     1       2.857   5.727  22.962  0.00  0.00    +0.149 HD
ATOM     32  O   UNL     1       1.514   2.870  23.476  0.00  0.00    -0.270 OA
BRANCH  30  33
ATOM     33  C   UNL     1       0.959   5.267  22.126  0.00  0.00    +0.138 C 
BRANCH  33  34
ATOM     34  C   UNL     1       1.168   5.461  20.614  0.00  0.00    +0.157 C 
BRANCH  34  35
ATOM     35  O   UNL     1       2.302   6.311  20.392  0.00  0.00    -0.388 OA
ATOM     36  H   UNL     1       1.971   7.202  20.178  0.00  0.00    +0.210 HD
ENDBRANCH  34  35
BRANCH  34  37
ATOM     37  C   UNL     1       1.362   4.098  19.925  0.00  0.00    +0.188 C 
BRANCH  37  38
ATOM     38  O   UNL     1       1.960   4.231  18.638  0.00  0.00    -0.392 OA
ATOM     39  H   UNL     1       2.875   4.536  18.759  0.00  0.00    +0.210 HD
ENDBRANCH  37  38
ENDBRANCH  34  37
ENDBRANCH  33  34
ENDBRANCH  30  33
ENDBRANCH  12  29
ENDBRANCH   5   9
ENDBRANCH   4   5
ENDBRANCH   1   4
BRANCH   1  40
ATOM     40  C   UNL     1       6.678  -1.840  23.473  0.00  0.00    +0.146 C 
BRANCH  40  43
ATOM     41  C   UNL     1       7.875  -3.893  26.601  0.00  0.00    +0.109 C 
ATOM     42  C   UNL     1       7.941  -3.022  25.356  0.00  0.00    +0.217 C 
ATOM     43  N   UNL     1       6.730  -2.641  24.758  0.00  0.00    -0.267 N 
ATOM     44  O   UNL     1       9.037  -2.715  24.890  0.00  0.00    -0.276 OA
BRANCH  43  45
ATOM     45  C   UNL     1       5.515  -3.303  25.121  0.00  0.00    +0.064 A 
ATOM     46  C   UNL     1       4.628  -2.706  26.057  0.00  0.00    +0.049 A 
ATOM     47  I   UNL     1       5.041  -0.664  26.701  0.00  0.00    -0.041 I 
ATOM     48  C   UNL     1       3.473  -3.397  26.487  0.00  0.00    +0.065 A 
ATOM     49  C   UNL     1       3.209  -4.692  25.941  0.00  0.00    +0.040 A 
ATOM     50  I   UNL     1       1.693  -5.946  26.860  0.00  0.00    -0.042 I 
ATOM     51  C   UNL     1       4.028  -5.253  24.922  0.00  0.00    +0.065 A 
ATOM     52  C   UNL     1       5.190  -4.552  24.528  0.00  0.00    +0.049 A 
ATOM     53  I   UNL     1       6.473  -5.308  22.950  0.00  0.00    -0.041 I 
BRANCH  48  54
ATOM     54  C   UNL     1       2.490  -2.775  27.429  0.00  0.00    +0.246 C 
ATOM     55  N   UNL     1       2.683  -2.944  28.789  0.00  0.00    -0.309 N 
ATOM     56  H   UNL     1       3.629  -3.113  29.110  0.00  0.00    +0.149 HD
ATOM     57  O   UNL     1       1.563  -2.110  26.977  0.00  0.00    -0.270 OA
BRANCH  55  58
ATOM     58  C   UNL     1       1.808  -2.259  29.737  0.00  0.00    +0.138 C 
BRANCH  58  59
ATOM     59  C   UNL     1       2.490  -1.056  30.402  0.00  0.00    +0.157 C 
BRANCH  59  60
ATOM     60  O   UNL     1       3.907  -1.260  30.411  0.00  0.00    -0.388 OA
ATOM     61  H   UNL     1       4.256  -0.956  31.270  0.00  0.00    +0.210 HD
ENDBRANCH  59  60
BRANCH  59  62
ATOM     62  C   UNL     1       2.144   0.250  29.663  0.00  0.00    +0.188 C 
BRANCH  62  63
ATOM     63  O   UNL     1       1.107   0.047  28.706  0.00  0.00    -0.392 OA
ATOM     64  H   UNL     1       0.259  -0.013  29.181  0.00  0.00    +0.210 HD
ENDBRANCH  62  63
ENDBRANCH  59  62
ENDBRANCH  58  59
ENDBRANCH  55  58
ENDBRANCH  48  54
BRANCH  51  65
ATOM     65  C   UNL     1       3.742  -6.597  24.327  0.00  0.00    +0.246 C 
ATOM     66  N   UNL     1       2.701  -6.690  23.427  0.00  0.00    -0.309 N 
ATOM     67  H   UNL     1       2.121  -5.890  23.197  0.00  0.00    +0.149 HD
ATOM     68  O   UNL     1       4.425  -7.564  24.649  0.00  0.00    -0.270 OA
BRANCH  66  69
ATOM     69  C   UNL     1       2.368  -7.954  22.772  0.00  0.00    +0.138 C 
BRANCH  69  70
ATOM     70  C   UNL     1       0.980  -8.463  23.186  0.00  0.00    +0.157 C 
BRANCH  70  71
ATOM     71  O   UNL     1       0.541  -9.444  22.236  0.00  0.00    -0.388 OA
ATOM     72  H   UNL     1       1.265  -9.584  21.598  0.00  0.00    +0.210 HD
ENDBRANCH  70  71
BRANCH  70  73
ATOM     73  C   UNL     1       0.995  -9.050  24.609  0.00  0.00    +0.188 C 
BRANCH  73  74
ATOM     74  O   UNL     1       2.305  -9.463  24.989  0.00  0.00    -0.392 OA
ATOM     75  H   UNL     1       2.435  -9.242  25.927  0.00  0.00    +0.210 HD
ENDBRANCH  73  74
ENDBRANCH  70  73
ENDBRANCH  69  70
ENDBRANCH  66  69
ENDBRANCH  51  65
ENDBRANCH  43  45
ENDBRANCH  40  43
ENDBRANCH   1  40
TORSDOF 31
ENDMDL
MODEL 5
REMARK VINA RESULT:      -2.2      2.846      9.779
REMARK  Name = 
REMARK  33 active torsions:
REMARK  status: ('A' for Active; 'I' for Inactive)
REMARK    1  A    between atoms: C_1  and  C_2
REMARK    2  A    between atoms: N_4  and  C_5
REMARK    3  A    between atoms: N_4  and  C_38
REMARK    4  A    between atoms: C_5  and  C_6
REMARK    5  A    between atoms: C_6  and  O_7
REMARK    6  A    between atoms: C_6  and  C_8
REMARK    7  A    between atoms: C_8  and  N_9
REMARK    8  A    between atoms: N_9  and  C_13
REMARK    9  A    between atoms: C_10  and  C_11
REMARK   10  A    between atoms: C_16  and  C_17
REMARK   11  A    between atoms: N_19  and  C_20
REMARK   12  A    between atoms: C_20  and  C_21
REMARK   13  A    between atoms: C_21  and  O_22
REMARK   14  A    between atoms: C_21  and  C_23
REMARK   15  A    between atoms: C_23  and  O_24
REMARK   16  A    between atoms: C_27  and  C_28
REMARK   17  A    between atoms: N_30  and  C_31
REMARK   18  A    between atoms: C_31  and  C_32
REMARK   19  A    between atoms: C_32  and  O_33
REMARK   20  A    between atoms: C_32  and  C_34
REMARK   21  A    between atoms: C_34  and  O_35
REMARK   22  A    between atoms: C_41  and  C_42
REMARK   23  A    between atoms: N_44  and  C_45
REMARK   24  A    between atoms: C_45  and  C_46
REMARK   25  A    between atoms: C_46  and  O_47
REMARK   26  A    between atoms: C_46  and  C_48
REMARK   27  A    between atoms: C_48  and  O_49
REMARK   28  A    between atoms: C_52  and  C_53
REMARK   29  A    between atoms: N_55  and  C_56
REMARK   30  A    between atoms: C_56  and  C_57
REMARK   31  A    between atoms: C_57  and  O_58
REMARK   32  A    between atoms: C_57  and  C_59
REMARK   33  A    between atoms: C_59  and  O_60
REMARK                            x       y       z     vdW  Elec       q    Type
REMARK                         _______ _______ _______ _____ _____    ______ ____
ROOT
ATOM      1  C   UNL     1       6.761   2.682  24.336  0.00  0.00    +0.150 C 
ENDROOT
BRANCH   1   2
ATOM      2  O   UNL     1       5.340   2.569  24.355  0.00  0.00    -0.389 OA
ATOM      3  H   UNL     1       4.943   3.341  24.803  0.00  0.00    +0.210 HD
ENDBRANCH   1   2
BRANCH   1   4
ATOM      4  C   UNL     1       7.229   1.359  23.719  0.00  0.00    +0.146 C 
BRANCH   4   5
ATOM      5  N   UNL     1       7.995   0.462  24.670  0.00  0.00    -0.267 N 
ATOM      6  C   UNL     1       9.324   0.532  25.109  0.00  0.00    +0.217 C 
ATOM      7  O   UNL     1       9.741  -0.281  25.962  0.00  0.00    -0.276 OA
ATOM      8  C   UNL     1      10.349   1.489  24.527  0.00  0.00    +0.109 C 
BRANCH   5   9
ATOM      9  C   UNL     1       7.286  -0.736  25.072  0.00  0.00    +0.064 A 
ATOM     10  C   UNL     1       7.554  -1.956  24.397  0.00  0.00    +0.049 A 
ATOM     11  I   UNL     1       8.607  -1.885  22.493  0.00  0.00    -0.041 I 
ATOM     12  C   UNL     1       7.011  -3.181  24.862  0.00  0.00    +0.065 A 
ATOM     13  C   UNL     1       6.038  -3.148  25.904  0.00  0.00    +0.040 A 
ATOM     14  I   UNL     1       5.100  -5.008  26.519  0.00  0.00    -0.042 I 
ATOM     15  C   UNL     1       5.685  -1.925  26.538  0.00  0.00    +0.065 A 
ATOM     16  C   UNL     1       6.393  -0.749  26.172  0.00  0.00    +0.049 A 
ATOM     17  I   UNL     1       6.325   0.965  27.491  0.00  0.00    -0.041 I 
BRANCH  15  18
ATOM     18  C   UNL     1       4.455  -1.769  27.392  0.00  0.00    +0.246 C 
ATOM     19  N   UNL     1       3.245  -1.506  26.787  0.00  0.00    -0.309 N 
ATOM     20  H   UNL     1       3.191  -1.370  25.784  0.00  0.00    +0.149 HD
ATOM     21  O   UNL     1       4.565  -1.840  28.612  0.00  0.00    -0.270 OA
BRANCH  19  22
ATOM     22  C   UNL     1       2.035  -1.208  27.556  0.00  0.00    +0.138 C 
BRANCH  22  23
ATOM     23  C   UNL     1       1.033  -2.373  27.515  0.00  0.00    +0.157 C 
BRANCH  23  24
ATOM     24  O   UNL     1       1.293  -3.180  26.352  0.00  0.00    -0.388 OA
ATOM     25  H   UNL     1       1.823  -3.945  26.640  0.00  0.00    +0.210 HD
ENDBRANCH  23  24
BRANCH  23  26
ATOM     26  C   UNL     1       1.091  -3.231  28.787  0.00  0.00    +0.188 C 
BRANCH  26  27
ATOM     27  O   UNL     1       1.970  -4.341  28.634  0.00  0.00    -0.392 OA
ATOM     28  H   UNL     1       1.445  -5.114  28.359  0.00  0.00    +0.210 HD
ENDBRANCH  26  27
ENDBRANCH  23  26
ENDBRANCH  22  23
ENDBRANCH  19  22
ENDBRANCH  15  18
BRANCH  12  29
ATOM     29  C   UNL     1       7.405  -4.459  24.201  0.00  0.00    +0.246 C 
ATOM     30  N   UNL     1       7.152  -4.608  22.855  0.00  0.00    -0.309 N 
ATOM     31  H   UNL     1       6.607  -3.916  22.341  0.00  0.00    +0.149 HD
ATOM     32  O   UNL     1       7.923  -5.364  24.871  0.00  0.00    -0.270 OA
BRANCH  30  33
ATOM     33  C   UNL     1       7.569  -5.797  22.121  0.00  0.00    +0.138 C 
BRANCH  33  34
ATOM     34  C   UNL     1       6.432  -6.800  21.861  0.00  0.00    +0.157 C 
BRANCH  34  35
ATOM     35  O   UNL     1       5.695  -7.015  23.073  0.00  0.00    -0.388 OA
ATOM     36  H   UNL     1       6.335  -7.136  23.796  0.00  0.00    +0.210 HD
ENDBRANCH  34  35
BRANCH  34  37
ATOM     37  C   UNL     1       5.509  -6.280  20.743  0.00  0.00    +0.188 C 
BRANCH  37  38
ATOM     38  O   UNL     1       6.066  -5.153  20.073  0.00  0.00    -0.392 OA
ATOM     39  H   UNL     1       5.336  -4.568  19.805  0.00  0.00    +0.210 HD
ENDBRANCH  37  38
ENDBRANCH  34  37
ENDBRANCH  33  34
ENDBRANCH  30  33
ENDBRANCH  12  29
ENDBRANCH   5   9
ENDBRANCH   4   5
ENDBRANCH   1   4
BRANCH   1  40
ATOM     40  C   UNL     1       7.232   4.012  23.720  0.00  0.00    +0.146 C 
BRANCH  40  43
ATOM     41  C   UNL     1       7.302   7.108  26.136  0.00  0.00    +0.109 C 
ATOM     42  C   UNL     1       7.804   5.978  25.251  0.00  0.00    +0.217 C 
ATOM     43  N   UNL     1       6.850   5.208  24.567  0.00  0.00    -0.267 N 
ATOM     44  O   UNL     1       9.010   5.747  25.191  0.00  0.00    -0.276 OA
BRANCH  43  45
ATOM     45  C   UNL     1       5.471   5.285  24.938  0.00  0.00    +0.064 A 
ATOM     46  C   UNL     1       5.074   5.015  26.275  0.00  0.00    +0.049 A 
ATOM     47  I   UNL     1       6.636   4.750  27.773  0.00  0.00    -0.041 I 
ATOM     48  C   UNL     1       3.705   5.002  26.625  0.00  0.00    +0.065 A 
ATOM     49  C   UNL     1       2.739   5.289  25.611  0.00  0.00    +0.040 A 
ATOM     50  I   UNL     1       0.640   4.885  25.995  0.00  0.00    -0.042 I 
ATOM     51  C   UNL     1       3.127   5.671  24.297  0.00  0.00    +0.065 A 
ATOM     52  C   UNL     1       4.501   5.651  23.967  0.00  0.00    +0.049 A 
ATOM     53  I   UNL     1       5.190   6.261  22.001  0.00  0.00    -0.041 I 
BRANCH  48  54
ATOM     54  C   UNL     1       3.256   4.775  28.034  0.00  0.00    +0.246 C 
ATOM     55  N   UNL     1       3.090   3.473  28.472  0.00  0.00    -0.309 N 
ATOM     56  H   UNL     1       3.629   2.751  28.008  0.00  0.00    +0.149 HD
ATOM     57  O   UNL     1       3.078   5.741  28.770  0.00  0.00    -0.270 OA
BRANCH  55  58
ATOM     58  C   UNL     1       2.761   3.214  29.871  0.00  0.00    +0.138 C 
BRANCH  58  59
ATOM     59  C   UNL     1       1.688   2.128  30.030  0.00  0.00    +0.157 C 
BRANCH  59  60
ATOM     60  O   UNL     1       1.002   1.954  28.786  0.00  0.00    -0.388 OA
ATOM     61  H   UNL     1       0.253   1.345  28.930  0.00  0.00    +0.210 HD
ENDBRANCH  59  60
BRANCH  59  62
ATOM     62  C   UNL     1       2.316   0.797  30.485  0.00  0.00    +0.188 C 
BRANCH  62  63
ATOM     63  O   UNL     1       3.642   0.651  29.985  0.00  0.00    -0.392 OA
ATOM     64  H   UNL     1       4.067  -0.090  30.453  0.00  0.00    +0.210 HD
ENDBRANCH  62  63
ENDBRANCH  59  62
ENDBRANCH  58  59
ENDBRANCH  55  58
ENDBRANCH  48  54
BRANCH  51  65
ATOM     65  C   UNL     1       2.120   5.999  23.237  0.00  0.00    +0.246 C 
ATOM     66  N   UNL     1       1.829   5.022  22.308  0.00  0.00    -0.309 N 
ATOM     67  H   UNL     1       2.301   4.124  22.311  0.00  0.00    +0.149 HD
ATOM     68  O   UNL     1       1.591   7.105  23.221  0.00  0.00    -0.270 OA
BRANCH  66  69
ATOM     69  C   UNL     1       0.837   5.240  21.257  0.00  0.00    +0.138 C 
BRANCH  69  70
ATOM     70  C   UNL     1       1.489   5.354  19.872  0.00  0.00    +0.157 C 
BRANCH  70  71
ATOM     71  O   UNL     1       2.659   6.180  19.975  0.00  0.00    -0.388 OA
ATOM     72  H   UNL     1       2.635   6.821  19.242  0.00  0.00    +0.210 HD
ENDBRANCH  70  71
BRANCH  70  73
ATOM     73  C   UNL     1       1.847   3.972  19.298  0.00  0.00    +0.188 C 
BRANCH  73  74
ATOM     74  O   UNL     1       2.335   4.073  17.963  0.00  0.00    -0.392 OA
ATOM     75  H   UNL     1       2.453   5.015  17.751  0.00  0.00    +0.210 HD
ENDBRANCH  73  74
ENDBRANCH  70  73
ENDBRANCH  69  70
ENDBRANCH  66  69
ENDBRANCH  51  65
ENDBRANCH  43  45
ENDBRANCH  40  43
ENDBRANCH   1  40
TORSDOF 31
ENDMDL
MODEL 6
REMARK VINA RESULT:      -2.2      1.666      9.977
REMARK  Name = 
REMARK  33 active torsions:
REMARK  status: ('A' for Active; 'I' for Inactive)
REMARK    1  A    between atoms: C_1  and  C_2
REMARK    2  A    between atoms: N_4  and  C_5
REMARK    3  A    between atoms: N_4  and  C_38
REMARK    4  A    between atoms: C_5  and  C_6
REMARK    5  A    between atoms: C_6  and  O_7
REMARK    6  A    between atoms: C_6  and  C_8
REMARK    7  A    between atoms: C_8  and  N_9
REMARK    8  A    between atoms: N_9  and  C_13
REMARK    9  A    between atoms: C_10  and  C_11
REMARK   10  A    between atoms: C_16  and  C_17
REMARK   11  A    between atoms: N_19  and  C_20
REMARK   12  A    between atoms: C_20  and  C_21
REMARK   13  A    between atoms: C_21  and  O_22
REMARK   14  A    between atoms: C_21  and  C_23
REMARK   15  A    between atoms: C_23  and  O_24
REMARK   16  A    between atoms: C_27  and  C_28
REMARK   17  A    between atoms: N_30  and  C_31
REMARK   18  A    between atoms: C_31  and  C_32
REMARK   19  A    between atoms: C_32  and  O_33
REMARK   20  A    between atoms: C_32  and  C_34
REMARK   21  A    between atoms: C_34  and  O_35
REMARK   22  A    between atoms: C_41  and  C_42
REMARK   23  A    between atoms: N_44  and  C_45
REMARK   24  A    between atoms: C_45  and  C_46
REMARK   25  A    between atoms: C_46  and  O_47
REMARK   26  A    between atoms: C_46  and  C_48
REMARK   27  A    between atoms: C_48  and  O_49
REMARK   28  A    between atoms: C_52  and  C_53
REMARK   29  A    between atoms: N_55  and  C_56
REMARK   30  A    between atoms: C_56  and  C_57
REMARK   31  A    between atoms: C_57  and  O_58
REMARK   32  A    between atoms: C_57  and  C_59
REMARK   33  A    between atoms: C_59  and  O_60
REMARK                            x       y       z     vdW  Elec       q    Type
REMARK                         _______ _______ _______ _____ _____    ______ ____
ROOT
ATOM      1  C   UNL     1       6.453  -0.431  23.946  0.00  0.00    +0.150 C 
ENDROOT
BRANCH   1   2
ATOM      2  O   UNL     1       5.247   0.104  24.486  0.00  0.00    -0.389 OA
ATOM      3  H   UNL     1       4.791  -0.565  25.033  0.00  0.00    +0.210 HD
ENDBRANCH   1   2
BRANCH   1   4
ATOM      4  C   UNL     1       6.121  -1.904  23.686  0.00  0.00    +0.146 C 
BRANCH   4   5
ATOM      5  N   UNL     1       6.355  -2.817  24.873  0.00  0.00    -0.267 N 
ATOM      6  C   UNL     1       7.551  -3.245  25.465  0.00  0.00    +0.217 C 
ATOM      7  O   UNL     1       7.516  -3.952  26.496  0.00  0.00    -0.276 OA
ATOM      8  C   UNL     1       8.921  -2.988  24.866  0.00  0.00    +0.109 C 
BRANCH   5   9
ATOM      9  C   UNL     1       5.162  -3.462  25.382  0.00  0.00    +0.064 A 
ATOM     10  C   UNL     1       4.785  -4.727  24.858  0.00  0.00    +0.049 A 
ATOM     11  I   UNL     1       5.692  -5.397  22.997  0.00  0.00    -0.041 I 
ATOM     12  C   UNL     1       3.725  -5.469  25.439  0.00  0.00    +0.065 A 
ATOM     13  C   UNL     1       2.916  -4.847  26.436  0.00  0.00    +0.040 A 
ATOM     14  I   UNL     1       1.206  -5.929  27.222  0.00  0.00    -0.042 I 
ATOM     15  C   UNL     1       3.220  -3.543  26.916  0.00  0.00    +0.065 A 
ATOM     16  C   UNL     1       4.403  -2.912  26.445  0.00  0.00    +0.049 A 
ATOM     17  I   UNL     1       5.212  -1.243  27.559  0.00  0.00    -0.041 I 
BRANCH  15  18
ATOM     18  C   UNL     1       2.243  -2.710  27.702  0.00  0.00    +0.246 C 
ATOM     19  N   UNL     1       1.364  -1.889  27.030  0.00  0.00    -0.309 N 
ATOM     20  H   UNL     1       1.407  -1.809  26.021  0.00  0.00    +0.149 HD
ATOM     21  O   UNL     1       2.279  -2.751  28.928  0.00  0.00    -0.270 OA
BRANCH  19  22
ATOM     22  C   UNL     1       0.481  -0.952  27.727  0.00  0.00    +0.138 C 
BRANCH  22  23
ATOM     23  C   UNL     1       1.152   0.414  27.937  0.00  0.00    +0.157 C 
BRANCH  23  24
ATOM     24  O   UNL     1       2.050   0.333  29.058  0.00  0.00    -0.388 OA
ATOM     25  H   UNL     1       2.922   0.649  28.759  0.00  0.00    +0.210 HD
ENDBRANCH  23  24
BRANCH  23  26
ATOM     26  C   UNL     1       1.901   0.891  26.684  0.00  0.00    +0.188 C 
BRANCH  26  27
ATOM     27  O   UNL     1       1.159   1.873  25.969  0.00  0.00    -0.392 OA
ATOM     28  H   UNL     1       1.675   2.700  25.956  0.00  0.00    +0.210 HD
ENDBRANCH  26  27
ENDBRANCH  23  26
ENDBRANCH  22  23
ENDBRANCH  19  22
ENDBRANCH  15  18
BRANCH  12  29
ATOM     29  C   UNL     1       3.428  -6.844  24.941  0.00  0.00    +0.246 C 
ATOM     30  N   UNL     1       2.355  -7.018  24.094  0.00  0.00    -0.309 N 
ATOM     31  H   UNL     1       1.706  -6.256  23.900  0.00  0.00    +0.149 HD
ATOM     32  O   UNL     1       4.127  -7.797  25.312  0.00  0.00    -0.270 OA
BRANCH  30  33
ATOM     33  C   UNL     1       2.041  -8.316  23.507  0.00  0.00    +0.138 C 
BRANCH  33  34
ATOM     34  C   UNL     1       1.524  -8.238  22.060  0.00  0.00    +0.157 C 
BRANCH  34  35
ATOM     35  O   UNL     1       0.451  -9.173  21.883  0.00  0.00    -0.388 OA
ATOM     36  H   UNL     1       0.693  -9.997  22.341  0.00  0.00    +0.210 HD
ENDBRANCH  34  35
BRANCH  34  37
ATOM     37  C   UNL     1       1.061  -6.805  21.738  0.00  0.00    +0.188 C 
BRANCH  37  38
ATOM     38  O   UNL     1       0.446  -6.178  22.860  0.00  0.00    -0.392 OA
ATOM     39  H   UNL     1       0.474  -6.800  23.608  0.00  0.00    +0.210 HD
ENDBRANCH  37  38
ENDBRANCH  34  37
ENDBRANCH  33  34
ENDBRANCH  30  33
ENDBRANCH  12  29
ENDBRANCH   5   9
ENDBRANCH   4   5
ENDBRANCH   1   4
BRANCH   1  40
ATOM     40  C   UNL     1       7.012   0.432  22.801  0.00  0.00    +0.146 C 
BRANCH  40  43
ATOM     41  C   UNL     1      10.213   2.421  23.908  0.00  0.00    +0.109 C 
ATOM     42  C   UNL     1       9.357   1.312  23.318  0.00  0.00    +0.217 C 
ATOM     43  N   UNL     1       7.966   1.500  23.294  0.00  0.00    -0.267 N 
ATOM     44  O   UNL     1       9.893   0.280  22.921  0.00  0.00    -0.276 OA
BRANCH  43  45
ATOM     45  C   UNL     1       7.373   2.542  24.075  0.00  0.00    +0.064 A 
ATOM     46  C   UNL     1       7.281   2.413  25.487  0.00  0.00    +0.049 A 
ATOM     47  I   UNL     1       8.298   0.730  26.430  0.00  0.00    -0.041 I 
ATOM     48  C   UNL     1       6.616   3.398  26.252  0.00  0.00    +0.065 A 
ATOM     49  C   UNL     1       6.064   4.530  25.575  0.00  0.00    +0.040 A 
ATOM     50  I   UNL     1       4.698   5.843  26.637  0.00  0.00    -0.042 I 
ATOM     51  C   UNL     1       6.246   4.726  24.178  0.00  0.00    +0.065 A 
ATOM     52  C   UNL     1       6.893   3.715  23.433  0.00  0.00    +0.049 A 
ATOM     53  I   UNL     1       7.256   3.948  21.307  0.00  0.00    -0.041 I 
BRANCH  48  54
ATOM     54  C   UNL     1       6.548   3.321  27.745  0.00  0.00    +0.246 C 
ATOM     55  N   UNL     1       5.577   2.520  28.320  0.00  0.00    -0.309 N 
ATOM     56  H   UNL     1       5.228   1.742  27.774  0.00  0.00    +0.149 HD
ATOM     57  O   UNL     1       7.370   3.938  28.415  0.00  0.00    -0.270 OA
BRANCH  55  58
ATOM     58  C   UNL     1       5.554   2.335  29.769  0.00  0.00    +0.138 C 
BRANCH  58  59
ATOM     59  C   UNL     1       4.684   3.380  30.480  0.00  0.00    +0.157 C 
BRANCH  59  60
ATOM     60  O   UNL     1       5.136   4.693  30.128  0.00  0.00    -0.388 OA
ATOM     61  H   UNL     1       4.570   5.345  30.582  0.00  0.00    +0.210 HD
ENDBRANCH  59  60
BRANCH  59  62
ATOM     62  C   UNL     1       3.201   3.209  30.105  0.00  0.00    +0.188 C 
BRANCH  62  63
ATOM     63  O   UNL     1       3.020   3.201  28.691  0.00  0.00    -0.392 OA
ATOM     64  H   UNL     1       2.584   4.033  28.433  0.00  0.00    +0.210 HD
ENDBRANCH  62  63
ENDBRANCH  59  62
ENDBRANCH  58  59
ENDBRANCH  55  58
ENDBRANCH  48  54
BRANCH  51  65
ATOM     65  C   UNL     1       5.692   5.924  23.468  0.00  0.00    +0.246 C 
ATOM     66  N   UNL     1       4.451   5.801  22.880  0.00  0.00    -0.309 N 
ATOM     67  H   UNL     1       3.939   4.925  22.891  0.00  0.00    +0.149 HD
ATOM     68  O   UNL     1       6.343   6.963  23.427  0.00  0.00    -0.270 OA
BRANCH  66  69
ATOM     69  C   UNL     1       3.816   6.925  22.193  0.00  0.00    +0.138 C 
BRANCH  69  70
ATOM     70  C   UNL     1       2.831   6.451  21.116  0.00  0.00    +0.157 C 
BRANCH  70  71
ATOM     71  O   UNL     1       1.494   6.756  21.542  0.00  0.00    -0.388 OA
ATOM     72  H   UNL     1       0.966   6.947  20.745  0.00  0.00    +0.210 HD
ENDBRANCH  70  71
BRANCH  70  73
ATOM     73  C   UNL     1       3.129   7.099  19.752  0.00  0.00    +0.188 C 
BRANCH  73  74
ATOM     74  O   UNL     1       2.472   6.408  18.692  0.00  0.00    -0.392 OA
ATOM     75  H   UNL     1       2.533   5.453  18.866  0.00  0.00    +0.210 HD
ENDBRANCH  73  74
ENDBRANCH  70  73
ENDBRANCH  69  70
ENDBRANCH  66  69
ENDBRANCH  51  65
ENDBRANCH  43  45
ENDBRANCH  40  43
ENDBRANCH   1  40
TORSDOF 31
ENDMDL
MODEL 7
REMARK VINA RESULT:      -1.7      1.673      9.968
REMARK  Name = 
REMARK  33 active torsions:
REMARK  status: ('A' for Active; 'I' for Inactive)
REMARK    1  A    between atoms: C_1  and  C_2
REMARK    2  A    between atoms: N_4  and  C_5
REMARK    3  A    between atoms: N_4  and  C_38
REMARK    4  A    between atoms: C_5  and  C_6
REMARK    5  A    between atoms: C_6  and  O_7
REMARK    6  A    between atoms: C_6  and  C_8
REMARK    7  A    between atoms: C_8  and  N_9
REMARK    8  A    between atoms: N_9  and  C_13
REMARK    9  A    between atoms: C_10  and  C_11
REMARK   10  A    between atoms: C_16  and  C_17
REMARK   11  A    between atoms: N_19  and  C_20
REMARK   12  A    between atoms: C_20  and  C_21
REMARK   13  A    between atoms: C_21  and  O_22
REMARK   14  A    between atoms: C_21  and  C_23
REMARK   15  A    between atoms: C_23  and  O_24
REMARK   16  A    between atoms: C_27  and  C_28
REMARK   17  A    between atoms: N_30  and  C_31
REMARK   18  A    between atoms: C_31  and  C_32
REMARK   19  A    between atoms: C_32  and  O_33
REMARK   20  A    between atoms: C_32  and  C_34
REMARK   21  A    between atoms: C_34  and  O_35
REMARK   22  A    between atoms: C_41  and  C_42
REMARK   23  A    between atoms: N_44  and  C_45
REMARK   24  A    between atoms: C_45  and  C_46
REMARK   25  A    between atoms: C_46  and  O_47
REMARK   26  A    between atoms: C_46  and  C_48
REMARK   27  A    between atoms: C_48  and  O_49
REMARK   28  A    between atoms: C_52  and  C_53
REMARK   29  A    between atoms: N_55  and  C_56
REMARK   30  A    between atoms: C_56  and  C_57
REMARK   31  A    between atoms: C_57  and  O_58
REMARK   32  A    between atoms: C_57  and  C_59
REMARK   33  A    between atoms: C_59  and  O_60
REMARK                            x       y       z     vdW  Elec       q    Type
REMARK                         _______ _______ _______ _____ _____    ______ ____
ROOT
ATOM      1  C   UNL     1       6.404   0.490  24.385  0.00  0.00    +0.150 C 
ENDROOT
BRANCH   1   2
ATOM      2  O   UNL     1       5.083   0.639  24.899  0.00  0.00    -0.389 OA
ATOM      3  H   UNL     1       4.912  -0.020  25.599  0.00  0.00    +0.210 HD
ENDBRANCH   1   2
BRANCH   1   4
ATOM      4  C   UNL     1       6.419  -0.930  23.809  0.00  0.00    +0.146 C 
BRANCH   4   5
ATOM      5  N   UNL     1       6.854  -1.999  24.790  0.00  0.00    -0.267 N 
ATOM      6  C   UNL     1       8.137  -2.447  25.131  0.00  0.00    +0.217 C 
ATOM      7  O   UNL     1       8.277  -3.304  26.031  0.00  0.00    -0.276 OA
ATOM      8  C   UNL     1       9.395  -2.029  24.393  0.00  0.00    +0.109 C 
BRANCH   5   9
ATOM      9  C   UNL     1       5.770  -2.777  25.354  0.00  0.00    +0.064 A 
ATOM     10  C   UNL     1       5.332  -3.944  24.674  0.00  0.00    +0.049 A 
ATOM     11  I   UNL     1       5.935  -4.233  22.603  0.00  0.00    -0.041 I 
ATOM     12  C   UNL     1       4.393  -4.825  25.269  0.00  0.00    +0.065 A 
ATOM     13  C   UNL     1       3.747  -4.426  26.477  0.00  0.00    +0.040 A 
ATOM     14  I   UNL     1       2.205  -5.706  27.312  0.00  0.00    -0.042 I 
ATOM     15  C   UNL     1       4.105  -3.216  27.133  0.00  0.00    +0.065 A 
ATOM     16  C   UNL     1       5.185  -2.459  26.605  0.00  0.00    +0.049 A 
ATOM     17  I   UNL     1       6.138  -0.979  27.864  0.00  0.00    -0.041 I 
BRANCH  15  18
ATOM     18  C   UNL     1       3.256  -2.580  28.201  0.00  0.00    +0.246 C 
ATOM     19  N   UNL     1       2.235  -1.731  27.834  0.00  0.00    -0.309 N 
ATOM     20  H   UNL     1       2.088  -1.497  26.859  0.00  0.00    +0.149 HD
ATOM     21  O   UNL     1       3.518  -2.803  29.379  0.00  0.00    -0.270 OA
BRANCH  19  22
ATOM     22  C   UNL     1       1.457  -0.973  28.815  0.00  0.00    +0.138 C 
BRANCH  22  23
ATOM     23  C   UNL     1       1.658   0.542  28.654  0.00  0.00    +0.157 C 
BRANCH  23  24
ATOM     24  O   UNL     1       2.932   0.913  29.212  0.00  0.00    -0.388 OA
ATOM     25  H   UNL     1       3.504   1.193  28.475  0.00  0.00    +0.210 HD
ENDBRANCH  23  24
BRANCH  23  26
ATOM     26  C   UNL     1       1.566   0.986  27.186  0.00  0.00    +0.188 C 
BRANCH  26  27
ATOM     27  O   UNL     1       2.717   0.594  26.445  0.00  0.00    -0.392 OA
ATOM     28  H   UNL     1       2.432   0.004  25.724  0.00  0.00    +0.210 HD
ENDBRANCH  26  27
ENDBRANCH  23  26
ENDBRANCH  22  23
ENDBRANCH  19  22
ENDBRANCH  15  18
BRANCH  12  29
ATOM     29  C   UNL     1       4.041  -6.101  24.581  0.00  0.00    +0.246 C 
ATOM     30  N   UNL     1       2.984  -6.102  23.697  0.00  0.00    -0.309 N 
ATOM     31  H   UNL     1       2.380  -5.286  23.597  0.00  0.00    +0.149 HD
ATOM     32  O   UNL     1       4.681  -7.132  24.832  0.00  0.00    -0.270 OA
BRANCH  30  33
ATOM     33  C   UNL     1       2.621  -7.289  22.932  0.00  0.00    +0.138 C 
BRANCH  33  34
ATOM     34  C   UNL     1       1.104  -7.485  22.766  0.00  0.00    +0.157 C 
BRANCH  34  35
ATOM     35  O   UNL     1       0.854  -8.461  21.745  0.00  0.00    -0.388 OA
ATOM     36  H   UNL     1       0.952  -8.022  20.881  0.00  0.00    +0.210 HD
ENDBRANCH  34  35
BRANCH  34  37
ATOM     37  C   UNL     1       0.474  -7.917  24.103  0.00  0.00    +0.188 C 
BRANCH  37  38
ATOM     38  O   UNL     1       1.405  -8.605  24.934  0.00  0.00    -0.392 OA
ATOM     39  H   UNL     1       0.966  -8.808  25.778  0.00  0.00    +0.210 HD
ENDBRANCH  37  38
ENDBRANCH  34  37
ENDBRANCH  33  34
ENDBRANCH  30  33
ENDBRANCH  12  29
ENDBRANCH   5   9
ENDBRANCH   4   5
ENDBRANCH   1   4
BRANCH   1  40
ATOM     40  C   UNL     1       6.820   1.673  23.492  0.00  0.00    +0.146 C 
BRANCH  40  43
ATOM     41  C   UNL     1       8.674   4.290  25.760  0.00  0.00    +0.109 C 
ATOM     42  C   UNL     1       8.441   3.050  24.910  0.00  0.00    +0.217 C 
ATOM     43  N   UNL     1       7.188   2.903  24.296  0.00  0.00    -0.267 N 
ATOM     44  O   UNL     1       9.328   2.204  24.819  0.00  0.00    -0.276 OA
BRANCH  43  45
ATOM     45  C   UNL     1       6.089   3.720  24.711  0.00  0.00    +0.064 A 
ATOM     46  C   UNL     1       5.779   3.853  26.091  0.00  0.00    +0.049 A 
ATOM     47  I   UNL     1       7.171   3.006  27.540  0.00  0.00    -0.041 I 
ATOM     48  C   UNL     1       4.641   4.584  26.500  0.00  0.00    +0.065 A 
ATOM     49  C   UNL     1       3.831   5.203  25.496  0.00  0.00    +0.040 A 
ATOM     50  I   UNL     1       1.876   5.980  26.037  0.00  0.00    -0.042 I 
ATOM     51  C   UNL     1       4.192   5.171  24.121  0.00  0.00    +0.065 A 
ATOM     52  C   UNL     1       5.320   4.412  23.737  0.00  0.00    +0.049 A 
ATOM     53  I   UNL     1       5.974   4.342  21.669  0.00  0.00    -0.041 I 
BRANCH  48  54
ATOM     54  C   UNL     1       4.316   4.790  27.946  0.00  0.00    +0.246 C 
ATOM     55  N   UNL     1       3.545   3.838  28.590  0.00  0.00    -0.309 N 
ATOM     56  H   UNL     1       3.562   2.894  28.222  0.00  0.00    +0.149 HD
ATOM     57  O   UNL     1       4.764   5.773  28.528  0.00  0.00    -0.270 OA
BRANCH  55  58
ATOM     58  C   UNL     1       3.303   3.951  30.026  0.00  0.00    +0.138 C 
BRANCH  58  59
ATOM     59  C   UNL     1       1.967   4.635  30.344  0.00  0.00    +0.157 C 
BRANCH  59  60
ATOM     60  O   UNL     1       1.909   5.899  29.674  0.00  0.00    -0.388 OA
ATOM     61  H   UNL     1       2.665   5.956  29.059  0.00  0.00    +0.210 HD
ENDBRANCH  59  60
BRANCH  59  62
ATOM     62  C   UNL     1       0.781   3.751  29.916  0.00  0.00    +0.188 C 
BRANCH  62  63
ATOM     63  O   UNL     1       0.447   3.956  28.545  0.00  0.00    -0.392 OA
ATOM     64  H   UNL     1       0.435   3.090  28.099  0.00  0.00    +0.210 HD
ENDBRANCH  62  63
ENDBRANCH  59  62
ENDBRANCH  58  59
ENDBRANCH  55  58
ENDBRANCH  48  54
BRANCH  51  65
ATOM     65  C   UNL     1       3.362   5.839  23.069  0.00  0.00    +0.246 C 
ATOM     66  N   UNL     1       2.430   5.068  22.404  0.00  0.00    -0.309 N 
ATOM     67  H   UNL     1       2.329   4.076  22.589  0.00  0.00    +0.149 HD
ATOM     68  O   UNL     1       3.527   7.031  22.827  0.00  0.00    -0.270 OA
BRANCH  66  69
ATOM     69  C   UNL     1       1.553   5.641  21.384  0.00  0.00    +0.138 C 
BRANCH  69  70
ATOM     70  C   UNL     1       1.183   4.611  20.308  0.00  0.00    +0.157 C 
BRANCH  70  71
ATOM     71  O   UNL     1       2.323   4.385  19.467  0.00  0.00    -0.388 OA
ATOM     72  H   UNL     1       2.048   4.547  18.546  0.00  0.00    +0.210 HD
ENDBRANCH  70  71
BRANCH  70  73
ATOM     73  C   UNL     1       0.697   3.290  20.932  0.00  0.00    +0.188 C 
BRANCH  73  74
ATOM     74  O   UNL     1       1.785   2.410  21.202  0.00  0.00    -0.392 OA
ATOM     75  H   UNL     1       2.612   2.921  21.151  0.00  0.00    +0.210 HD
ENDBRANCH  73  74
ENDBRANCH  70  73
ENDBRANCH  69  70
ENDBRANCH  66  69
ENDBRANCH  51  65
ENDBRANCH  43  45
ENDBRANCH  40  43
ENDBRANCH   1  40
TORSDOF 31
ENDMDL
MODEL 8
REMARK VINA RESULT:      -1.5      2.872      4.075
REMARK  Name = 
REMARK  33 active torsions:
REMARK  status: ('A' for Active; 'I' for Inactive)
REMARK    1  A    between atoms: C_1  and  C_2
REMARK    2  A    between atoms: N_4  and  C_5
REMARK    3  A    between atoms: N_4  and  C_38
REMARK    4  A    between atoms: C_5  and  C_6
REMARK    5  A    between atoms: C_6  and  O_7
REMARK    6  A    between atoms: C_6  and  C_8
REMARK    7  A    between atoms: C_8  and  N_9
REMARK    8  A    between atoms: N_9  and  C_13
REMARK    9  A    between atoms: C_10  and  C_11
REMARK   10  A    between atoms: C_16  and  C_17
REMARK   11  A    between atoms: N_19  and  C_20
REMARK   12  A    between atoms: C_20  and  C_21
REMARK   13  A    between atoms: C_21  and  O_22
REMARK   14  A    between atoms: C_21  and  C_23
REMARK   15  A    between atoms: C_23  and  O_24
REMARK   16  A    between atoms: C_27  and  C_28
REMARK   17  A    between atoms: N_30  and  C_31
REMARK   18  A    between atoms: C_31  and  C_32
REMARK   19  A    between atoms: C_32  and  O_33
REMARK   20  A    between atoms: C_32  and  C_34
REMARK   21  A    between atoms: C_34  and  O_35
REMARK   22  A    between atoms: C_41  and  C_42
REMARK   23  A    between atoms: N_44  and  C_45
REMARK   24  A    between atoms: C_45  and  C_46
REMARK   25  A    between atoms: C_46  and  O_47
REMARK   26  A    between atoms: C_46  and  C_48
REMARK   27  A    between atoms: C_48  and  O_49
REMARK   28  A    between atoms: C_52  and  C_53
REMARK   29  A    between atoms: N_55  and  C_56
REMARK   30  A    between atoms: C_56  and  C_57
REMARK   31  A    between atoms: C_57  and  O_58
REMARK   32  A    between atoms: C_57  and  C_59
REMARK   33  A    between atoms: C_59  and  O_60
REMARK                            x       y       z     vdW  Elec       q    Type
REMARK                         _______ _______ _______ _____ _____    ______ ____
ROOT
ATOM      1  C   UNL     1       7.083   0.883  22.897  0.00  0.00    +0.150 C 
ENDROOT
BRANCH   1   2
ATOM      2  O   UNL     1       7.361   1.813  21.854  0.00  0.00    -0.389 OA
ATOM      3  H   UNL     1       8.009   1.437  21.225  0.00  0.00    +0.210 HD
ENDBRANCH   1   2
BRANCH   1   4
ATOM      4  C   UNL     1       5.836   1.454  23.580  0.00  0.00    +0.146 C 
BRANCH   4   5
ATOM      5  N   UNL     1       6.006   2.860  24.119  0.00  0.00    -0.267 N 
ATOM      6  C   UNL     1       7.061   3.430  24.844  0.00  0.00    +0.217 C 
ATOM      7  O   UNL     1       7.030   4.646  25.134  0.00  0.00    -0.276 OA
ATOM      8  C   UNL     1       8.221   2.629  25.406  0.00  0.00    +0.109 C 
BRANCH   5   9
ATOM      9  C   UNL     1       4.834   3.701  23.991  0.00  0.00    +0.064 A 
ATOM     10  C   UNL     1       3.799   3.594  24.957  0.00  0.00    +0.049 A 
ATOM     11  I   UNL     1       3.771   1.855  26.266  0.00  0.00    -0.041 I 
ATOM     12  C   UNL     1       2.714   4.507  24.968  0.00  0.00    +0.065 A 
ATOM     13  C   UNL     1       2.575   5.420  23.881  0.00  0.00    +0.040 A 
ATOM     14  I   UNL     1       0.837   6.722  23.822  0.00  0.00    -0.042 I 
ATOM     15  C   UNL     1       3.554   5.487  22.851  0.00  0.00    +0.065 A 
ATOM     16  C   UNL     1       4.721   4.687  22.980  0.00  0.00    +0.049 A 
ATOM     17  I   UNL     1       6.463   5.183  21.796  0.00  0.00    -0.041 I 
BRANCH  15  18
ATOM     18  C   UNL     1       3.311   6.170  21.531  0.00  0.00    +0.246 C 
ATOM     19  N   UNL     1       2.311   5.705  20.706  0.00  0.00    -0.309 N 
ATOM     20  H   UNL     1       1.777   4.882  20.961  0.00  0.00    +0.149 HD
ATOM     21  O   UNL     1       4.037   7.104  21.203  0.00  0.00    -0.270 OA
BRANCH  19  22
ATOM     22  C   UNL     1       2.105   6.229  19.355  0.00  0.00    +0.138 C 
BRANCH  22  23
ATOM     23  C   UNL     1       1.519   5.165  18.414  0.00  0.00    +0.157 C 
BRANCH  23  24
ATOM     24  O   UNL     1       1.900   5.469  17.060  0.00  0.00    -0.388 OA
ATOM     25  H   UNL     1       2.870   5.405  17.007  0.00  0.00    +0.210 HD
ENDBRANCH  23  24
BRANCH  23  26
ATOM     26  C   UNL     1       1.972   3.746  18.791  0.00  0.00    +0.188 C 
BRANCH  26  27
ATOM     27  O   UNL     1       1.147   3.183  19.806  0.00  0.00    -0.392 OA
ATOM     28  H   UNL     1       0.592   2.492  19.404  0.00  0.00    +0.210 HD
ENDBRANCH  26  27
ENDBRANCH  23  26
ENDBRANCH  22  23
ENDBRANCH  19  22
ENDBRANCH  15  18
BRANCH  12  29
ATOM     29  C   UNL     1       1.705   4.441  26.065  0.00  0.00    +0.246 C 
ATOM     30  N   UNL     1       1.983   5.081  27.253  0.00  0.00    -0.309 N 
ATOM     31  H   UNL     1       2.899   5.493  27.428  0.00  0.00    +0.149 HD
ATOM     32  O   UNL     1       0.659   3.798  25.900  0.00  0.00    -0.270 OA
BRANCH  30  33
ATOM     33  C   UNL     1       1.020   5.124  28.347  0.00  0.00    +0.138 C 
BRANCH  33  34
ATOM     34  C   UNL     1       1.236   4.032  29.410  0.00  0.00    +0.157 C 
BRANCH  34  35
ATOM     35  O   UNL     1       0.754   2.776  28.912  0.00  0.00    -0.388 OA
ATOM     36  H   UNL     1       0.617   2.184  29.673  0.00  0.00    +0.210 HD
ENDBRANCH  34  35
BRANCH  34  37
ATOM     37  C   UNL     1       2.728   3.939  29.781  0.00  0.00    +0.188 C 
BRANCH  37  38
ATOM     38  O   UNL     1       3.111   2.608  30.117  0.00  0.00    -0.392 OA
ATOM     39  H   UNL     1       3.156   2.088  29.296  0.00  0.00    +0.210 HD
ENDBRANCH  37  38
ENDBRANCH  34  37
ENDBRANCH  33  34
ENDBRANCH  30  33
ENDBRANCH  12  29
ENDBRANCH   5   9
ENDBRANCH   4   5
ENDBRANCH   1   4
BRANCH   1  40
ATOM     40  C   UNL     1       7.070  -0.572  22.394  0.00  0.00    +0.146 C 
BRANCH  40  43
ATOM     41  C   UNL     1       8.897  -3.581  24.138  0.00  0.00    +0.109 C 
ATOM     42  C   UNL     1       8.447  -2.627  23.042  0.00  0.00    +0.217 C 
ATOM     43  N   UNL     1       7.638  -1.540  23.411  0.00  0.00    -0.267 N 
ATOM     44  O   UNL     1       8.766  -2.852  21.877  0.00  0.00    -0.276 OA
BRANCH  43  45
ATOM     45  C   UNL     1       7.013  -1.520  24.698  0.00  0.00    +0.064 A 
ATOM     46  C   UNL     1       5.804  -2.233  24.917  0.00  0.00    +0.049 A 
ATOM     47  I   UNL     1       5.093  -3.553  23.333  0.00  0.00    -0.041 I 
ATOM     48  C   UNL     1       5.136  -2.142  26.158  0.00  0.00    +0.065 A 
ATOM     49  C   UNL     1       5.718  -1.339  27.189  0.00  0.00    +0.040 A 
ATOM     50  I   UNL     1       4.541  -0.845  28.946  0.00  0.00    -0.042 I 
ATOM     51  C   UNL     1       6.983  -0.711  27.021  0.00  0.00    +0.065 A 
ATOM     52  C   UNL     1       7.617  -0.797  25.761  0.00  0.00    +0.049 A 
ATOM     53  I   UNL     1       9.569   0.090  25.426  0.00  0.00    -0.041 I 
BRANCH  48  54
ATOM     54  C   UNL     1       3.891  -2.922  26.441  0.00  0.00    +0.246 C 
ATOM     55  N   UNL     1       4.011  -4.149  27.070  0.00  0.00    -0.309 N 
ATOM     56  H   UNL     1       4.825  -4.297  27.655  0.00  0.00    +0.149 HD
ATOM     57  O   UNL     1       2.802  -2.445  26.138  0.00  0.00    -0.270 OA
BRANCH  55  58
ATOM     58  C   UNL     1       2.811  -4.885  27.460  0.00  0.00    +0.138 C 
BRANCH  58  59
ATOM     59  C   UNL     1       2.260  -4.431  28.819  0.00  0.00    +0.157 C 
BRANCH  59  60
ATOM     60  O   UNL     1       0.942  -4.961  28.997  0.00  0.00    -0.388 OA
ATOM     61  H   UNL     1       0.326  -4.448  28.441  0.00  0.00    +0.210 HD
ENDBRANCH  59  60
BRANCH  59  62
ATOM     62  C   UNL     1       3.179  -4.891  29.966  0.00  0.00    +0.188 C 
BRANCH  62  63
ATOM     63  O   UNL     1       3.441  -6.290  29.894  0.00  0.00    -0.392 OA
ATOM     64  H   UNL     1       2.824  -6.685  29.252  0.00  0.00    +0.210 HD
ENDBRANCH  62  63
ENDBRANCH  59  62
ENDBRANCH  58  59
ENDBRANCH  55  58
ENDBRANCH  48  54
BRANCH  51  65
ATOM     65  C   UNL     1       7.610   0.110  28.106  0.00  0.00    +0.246 C 
ATOM     66  N   UNL     1       6.883   1.170  28.606  0.00  0.00    -0.309 N 
ATOM     67  H   UNL     1       5.972   1.416  28.234  0.00  0.00    +0.149 HD
ATOM     68  O   UNL     1       8.731  -0.174  28.515  0.00  0.00    -0.270 OA
BRANCH  66  69
ATOM     69  C   UNL     1       7.400   2.008  29.687  0.00  0.00    +0.138 C 
BRANCH  69  70
ATOM     70  C   UNL     1       6.677   3.360  29.756  0.00  0.00    +0.157 C 
BRANCH  70  71
ATOM     71  O   UNL     1       7.494   4.288  30.485  0.00  0.00    -0.388 OA
ATOM     72  H   UNL     1       8.360   3.867  30.634  0.00  0.00    +0.210 HD
ENDBRANCH  70  71
BRANCH  70  73
ATOM     73  C   UNL     1       6.357   3.903  28.352  0.00  0.00    +0.188 C 
BRANCH  73  74
ATOM     74  O   UNL     1       7.191   5.009  28.018  0.00  0.00    -0.392 OA
ATOM     75  H   UNL     1       7.109   5.677  28.721  0.00  0.00    +0.210 HD
ENDBRANCH  73  74
ENDBRANCH  70  73
ENDBRANCH  69  70
ENDBRANCH  66  69
ENDBRANCH  51  65
ENDBRANCH  43  45
ENDBRANCH  40  43
ENDBRANCH   1  40
TORSDOF 31
ENDMDL
MODEL 9
REMARK VINA RESULT:      -1.4      3.063     10.472
REMARK  Name = 
REMARK  33 active torsions:
REMARK  status: ('A' for Active; 'I' for Inactive)
REMARK    1  A    between atoms: C_1  and  C_2
REMARK    2  A    between atoms: N_4  and  C_5
REMARK    3  A    between atoms: N_4  and  C_38
REMARK    4  A    between atoms: C_5  and  C_6
REMARK    5  A    between atoms: C_6  and  O_7
REMARK    6  A    between atoms: C_6  and  C_8
REMARK    7  A    between atoms: C_8  and  N_9
REMARK    8  A    between atoms: N_9  and  C_13
REMARK    9  A    between atoms: C_10  and  C_11
REMARK   10  A    between atoms: C_16  and  C_17
REMARK   11  A    between atoms: N_19  and  C_20
REMARK   12  A    between atoms: C_20  and  C_21
REMARK   13  A    between atoms: C_21  and  O_22
REMARK   14  A    between atoms: C_21  and  C_23
REMARK   15  A    between atoms: C_23  and  O_24
REMARK   16  A    between atoms: C_27  and  C_28
REMARK   17  A    between atoms: N_30  and  C_31
REMARK   18  A    between atoms: C_31  and  C_32
REMARK   19  A    between atoms: C_32  and  O_33
REMARK   20  A    between atoms: C_32  and  C_34
REMARK   21  A    between atoms: C_34  and  O_35
REMARK   22  A    between atoms: C_41  and  C_42
REMARK   23  A    between atoms: N_44  and  C_45
REMARK   24  A    between atoms: C_45  and  C_46
REMARK   25  A    between atoms: C_46  and  O_47
REMARK   26  A    between atoms: C_46  and  C_48
REMARK   27  A    between atoms: C_48  and  O_49
REMARK   28  A    between atoms: C_52  and  C_53
REMARK   29  A    between atoms: N_55  and  C_56
REMARK   30  A    between atoms: C_56  and  C_57
REMARK   31  A    between atoms: C_57  and  O_58
REMARK   32  A    between atoms: C_57  and  C_59
REMARK   33  A    between atoms: C_59  and  O_60
REMARK                            x       y       z     vdW  Elec       q    Type
REMARK                         _______ _______ _______ _____ _____    ______ ____
ROOT
ATOM      1  C   UNL     1       6.847  -2.551  24.692  0.00  0.00    +0.150 C 
ENDROOT
BRANCH   1   2
ATOM      2  O   UNL     1       8.228  -2.896  24.600  0.00  0.00    -0.389 OA
ATOM      3  H   UNL     1       8.472  -3.518  25.313  0.00  0.00    +0.210 HD
ENDBRANCH   1   2
BRANCH   1   4
ATOM      4  C   UNL     1       6.241  -3.671  25.543  0.00  0.00    +0.146 C 
BRANCH   4   5
ATOM      5  N   UNL     1       4.807  -4.016  25.195  0.00  0.00    -0.267 N 
ATOM      6  C   UNL     1       4.181  -4.129  23.946  0.00  0.00    +0.217 C 
ATOM      7  O   UNL     1       2.988  -4.498  23.880  0.00  0.00    -0.276 OA
ATOM      8  C   UNL     1       4.837  -3.724  22.639  0.00  0.00    +0.109 C 
BRANCH   5   9
ATOM      9  C   UNL     1       3.913  -4.097  26.331  0.00  0.00    +0.064 A 
ATOM     10  C   UNL     1       3.731  -5.347  26.978  0.00  0.00    +0.049 A 
ATOM     11  I   UNL     1       4.377  -7.155  25.954  0.00  0.00    -0.041 I 
ATOM     12  C   UNL     1       3.000  -5.442  28.190  0.00  0.00    +0.065 A 
ATOM     13  C   UNL     1       2.287  -4.295  28.653  0.00  0.00    +0.040 A 
ATOM     14  I   UNL     1       1.052  -4.477  30.429  0.00  0.00    -0.042 I 
ATOM     15  C   UNL     1       2.382  -3.050  27.971  0.00  0.00    +0.065 A 
ATOM     16  C   UNL     1       3.277  -2.952  26.872  0.00  0.00    +0.049 A 
ATOM     17  I   UNL     1       3.899  -0.990  26.203  0.00  0.00    -0.041 I 
BRANCH  15  18
ATOM     18  C   UNL     1       1.420  -1.915  28.200  0.00  0.00    +0.246 C 
ATOM     19  N   UNL     1       1.633  -1.053  29.254  0.00  0.00    -0.309 N 
ATOM     20  H   UNL     1       2.401  -1.210  29.897  0.00  0.00    +0.149 HD
ATOM     21  O   UNL     1       0.444  -1.806  27.465  0.00  0.00    -0.270 OA
BRANCH  19  22
ATOM     22  C   UNL     1       0.672  -0.012  29.619  0.00  0.00    +0.138 C 
BRANCH  22  23
ATOM     23  C   UNL     1       1.111   1.371  29.115  0.00  0.00    +0.157 C 
BRANCH  23  24
ATOM     24  O   UNL     1       2.529   1.519  29.312  0.00  0.00    -0.388 OA
ATOM     25  H   UNL     1       2.768   1.014  30.110  0.00  0.00    +0.210 HD
ENDBRANCH  23  24
BRANCH  23  26
ATOM     26  C   UNL     1       0.750   1.592  27.639  0.00  0.00    +0.188 C 
BRANCH  26  27
ATOM     27  O   UNL     1       0.706   2.976  27.308  0.00  0.00    -0.392 OA
ATOM     28  H   UNL     1       0.424   3.062  26.380  0.00  0.00    +0.210 HD
ENDBRANCH  26  27
ENDBRANCH  23  26
ENDBRANCH  22  23
ENDBRANCH  19  22
ENDBRANCH  15  18
BRANCH  12  29
ATOM     29  C   UNL     1       2.924  -6.748  28.906  0.00  0.00    +0.246 C 
ATOM     30  N   UNL     1       1.699  -7.373  29.005  0.00  0.00    -0.309 N 
ATOM     31  H   UNL     1       0.844  -6.908  28.702  0.00  0.00    +0.149 HD
ATOM     32  O   UNL     1       3.945  -7.231  29.415  0.00  0.00    -0.270 OA
BRANCH  30  33
ATOM     33  C   UNL     1       1.553  -8.685  29.626  0.00  0.00    +0.138 C 
BRANCH  33  34
ATOM     34  C   UNL     1       1.285  -9.822  28.624  0.00  0.00    +0.157 C 
BRANCH  34  35
ATOM     35  O   UNL     1       0.569 -10.879  29.279  0.00  0.00    -0.388 OA
ATOM     36  H   UNL     1      -0.032 -11.282  28.628  0.00  0.00    +0.210 HD
ENDBRANCH  34  35
BRANCH  34  37
ATOM     37  C   UNL     1       0.492  -9.290  27.416  0.00  0.00    +0.188 C 
BRANCH  37  38
ATOM     38  O   UNL     1       1.142  -9.579  26.182  0.00  0.00    -0.392 OA
ATOM     39  H   UNL     1       0.997  -8.830  25.579  0.00  0.00    +0.210 HD
ENDBRANCH  37  38
ENDBRANCH  34  37
ENDBRANCH  33  34
ENDBRANCH  30  33
ENDBRANCH  12  29
ENDBRANCH   5   9
ENDBRANCH   4   5
ENDBRANCH   1   4
BRANCH   1  40
ATOM     40  C   UNL     1       6.639  -1.084  25.111  0.00  0.00    +0.146 C 
BRANCH  40  43
ATOM     41  C   UNL     1       9.742  -0.407  27.423  0.00  0.00    +0.109 C 
ATOM     42  C   UNL     1       8.563  -1.134  26.794  0.00  0.00    +0.217 C 
ATOM     43  N   UNL     1       7.872  -0.488  25.757  0.00  0.00    -0.267 N 
ATOM     44  O   UNL     1       8.228  -2.233  27.231  0.00  0.00    -0.276 OA
BRANCH  43  45
ATOM     45  C   UNL     1       8.074   0.910  25.528  0.00  0.00    +0.064 A 
ATOM     46  C   UNL     1       7.382   1.870  26.315  0.00  0.00    +0.049 A 
ATOM     47  I   UNL     1       6.237   1.157  28.028  0.00  0.00    -0.041 I 
ATOM     48  C   UNL     1       7.508   3.249  26.033  0.00  0.00    +0.065 A 
ATOM     49  C   UNL     1       8.362   3.650  24.958  0.00  0.00    +0.040 A 
ATOM     50  I   UNL     1       8.271   5.695  24.233  0.00  0.00    -0.042 I 
ATOM     51  C   UNL     1       9.145   2.708  24.235  0.00  0.00    +0.065 A 
ATOM     52  C   UNL     1       8.981   1.334  24.521  0.00  0.00    +0.049 A 
ATOM     53  I   UNL     1      10.166  -0.172  23.502  0.00  0.00    -0.041 I 
BRANCH  48  54
ATOM     54  C   UNL     1       6.838   4.288  26.875  0.00  0.00    +0.246 C 
ATOM     55  N   UNL     1       5.573   4.715  26.513  0.00  0.00    -0.309 N 
ATOM     56  H   UNL     1       4.998   4.075  25.977  0.00  0.00    +0.149 HD
ATOM     57  O   UNL     1       7.409   4.709  27.876  0.00  0.00    -0.270 OA
BRANCH  55  58
ATOM     58  C   UNL     1       4.846   5.645  27.374  0.00  0.00    +0.138 C 
BRANCH  58  59
ATOM     59  C   UNL     1       3.548   5.041  27.926  0.00  0.00    +0.157 C 
BRANCH  59  60
ATOM     60  O   UNL     1       3.493   3.649  27.593  0.00  0.00    -0.388 OA
ATOM     61  H   UNL     1       2.603   3.315  27.813  0.00  0.00    +0.210 HD
ENDBRANCH  59  60
BRANCH  59  62
ATOM     62  C   UNL     1       3.459   5.229  29.452  0.00  0.00    +0.188 C 
BRANCH  62  63
ATOM     63  O   UNL     1       3.458   3.976  30.130  0.00  0.00    -0.392 OA
ATOM     64  H   UNL     1       3.180   3.286  29.501  0.00  0.00    +0.210 HD
ENDBRANCH  62  63
ENDBRANCH  59  62
ENDBRANCH  58  59
ENDBRANCH  55  58
ENDBRANCH  48  54
BRANCH  51  65
ATOM     65  C   UNL     1      10.061   3.125  23.126  0.00  0.00    +0.246 C 
ATOM     66  N   UNL     1      11.089   3.991  23.437  0.00  0.00    -0.309 N 
ATOM     67  H   UNL     1      11.206   4.367  24.373  0.00  0.00    +0.149 HD
ATOM     68  O   UNL     1       9.880   2.696  21.991  0.00  0.00    -0.270 OA
BRANCH  66  69
ATOM     69  C   UNL     1      12.051   4.429  22.428  0.00  0.00    +0.138 C 
BRANCH  69  70
ATOM     70  C   UNL     1      13.235   5.177  23.055  0.00  0.00    +0.157 C 
BRANCH  70  71
ATOM     71  O   UNL     1      13.758   6.108  22.096  0.00  0.00    -0.388 OA
ATOM     72  H   UNL     1      13.285   5.965  21.255  0.00  0.00    +0.210 HD
ENDBRANCH  70  71
BRANCH  70  73
ATOM     73  C   UNL     1      12.825   5.903  24.349  0.00  0.00    +0.188 C 
BRANCH  73  74
ATOM     74  O   UNL     1      11.809   6.872  24.104  0.00  0.00    -0.392 OA
ATOM     75  H   UNL     1      11.851   7.128  23.166  0.00  0.00    +0.210 HD
ENDBRANCH  73  74
ENDBRANCH  70  73
ENDBRANCH  69  70
ENDBRANCH  66  69
ENDBRANCH  51  65
ENDBRANCH  43  45
ENDBRANCH  40  43
ENDBRANCH   1  40
TORSDOF 31
ENDMDL
