MODEL 1
REMARK VINA RESULT:      -6.9      0.000      0.000
REMARK  Name = 
REMARK  18 active torsions:
REMARK  status: ('A' for Active; 'I' for Inactive)
REMARK    1  A    between atoms: C_2  and  C_3
REMARK    2  A    between atoms: C_2  and  C_25
REMARK    3  A    between atoms: C_2  and  C_28
REMARK    4  A    between atoms: C_3  and  P_4
REMARK    5  A    between atoms: P_4  and  O_5
REMARK    6  A    between atoms: P_4  and  C_7
REMARK    7  A    between atoms: C_7  and  N_9
REMARK    8  A    between atoms: C_7  and  C_22
REMARK    9  A    between atoms: N_9  and  S_10
REMARK   10  A    between atoms: S_10  and  C_13
REMARK   11  A    between atoms: C_13  and  C_14
REMARK   12  A    between atoms: C_14  and  C_15
REMARK   13  A    between atoms: C_15  and  C_16
REMARK   14  A    between atoms: C_22  and  C_23
REMARK   15  A    between atoms: C_22  and  C_24
REMARK   16  A    between atoms: C_25  and  O_26
REMARK   17  A    between atoms: C_30  and  C_31
REMARK   18  A    between atoms: C_31  and  N_32
REMARK                            x       y       z     vdW  Elec       q    Type
REMARK                         _______ _______ _______ _____ _____    ______ ____
ROOT
ATOM      1  P   UNL     1       6.344  -3.262  21.910  0.00  0.00    +0.221 P 
ATOM      2  O   UNL     1       7.472  -4.311  21.920  0.00  0.00    -0.289 OA
ENDROOT
BRANCH   1   3
ATOM      3  O   UNL     1       5.637  -4.085  20.563  0.00  0.00    -0.343 OA
ATOM      4  H   UNL     1       5.606  -5.027  20.856  0.00  0.00    +0.218 HD
ENDBRANCH   1   3
BRANCH   1   5
ATOM      5  C   UNL     1       4.916  -4.038  23.000  0.00  0.00    +0.118 C 
BRANCH   5   6
ATOM      6  C   UNL     1       5.117  -5.426  23.639  0.00  0.00    +0.137 C 
BRANCH   6   7
ATOM      7  C   UNL     1       5.804  -5.482  25.017  0.00  0.00    -0.033 A 
ATOM      8  C   UNL     1       5.050  -5.766  26.166  0.00  0.00    +0.004 A 
ATOM      9  C   UNL     1       5.646  -5.787  27.432  0.00  0.00    +0.001 A 
ATOM     10  C   UNL     1       7.012  -5.544  27.580  0.00  0.00    +0.005 A 
ATOM     11  C   UNL     1       7.802  -5.299  26.456  0.00  0.00    -0.034 A 
ATOM     12  C   UNL     1       7.188  -5.284  25.192  0.00  0.00    +0.009 A 
BRANCH  11  13
ATOM     13  C   UNL     1       9.285  -5.042  26.582  0.00  0.00    +0.113 C 
BRANCH  13  14
ATOM     14  N   UNL     1      10.017  -5.614  25.455  0.00  0.00    -0.326 NA
ATOM     15  H   UNL     1       9.350  -5.979  24.777  0.00  0.00    +0.119 HD
ATOM     16  H   UNL     1      10.520  -4.862  24.984  0.00  0.00    +0.119 HD
ENDBRANCH  13  14
ENDBRANCH  11  13
ENDBRANCH   6   7
BRANCH   6  17
ATOM     17  C   UNL     1       3.843  -6.232  23.436  0.00  0.00    +0.313 C 
ATOM     18  O   UNL     1       2.818  -5.733  22.984  0.00  0.00    -0.250 OA
BRANCH  17  19
ATOM     19  O   UNL     1       3.891  -7.538  23.778  0.00  0.00    -0.480 OA
ATOM     20  H   UNL     1       3.623  -7.681  24.711  0.00  0.00    +0.295 HD
ENDBRANCH  17  19
ENDBRANCH   6  17
ENDBRANCH   5   6
ENDBRANCH   1   5
BRANCH   1  21
ATOM     21  C   UNL     1       7.092  -2.391  23.334  0.00  0.00    +0.165 C 
BRANCH  21  22
ATOM     22  C   UNL     1       6.068  -1.573  24.207  0.00  0.00    +0.011 C 
ATOM     23  C   UNL     1       6.271  -0.060  24.078  0.00  0.00    +0.009 C 
ATOM     24  C   UNL     1       6.062  -1.893  25.703  0.00  0.00    +0.009 C 
ENDBRANCH  21  22
BRANCH  21  25
ATOM     25  N   UNL     1       8.202  -1.454  22.798  0.00  0.00    -0.182 NA
ATOM     26  H   UNL     1       7.950  -0.527  23.184  0.00  0.00    +0.149 HD
BRANCH  25  27
ATOM     27  S   UNL     1       9.787  -1.813  23.298  0.00  0.00    +0.030 S 
ATOM     28  O   UNL     1      10.681  -1.596  22.182  0.00  0.00    -0.158 OA
ATOM     29  O   UNL     1       9.727  -3.094  23.956  0.00  0.00    -0.158 OA
BRANCH  27  30
ATOM     30  C   UNL     1      10.126  -0.526  24.511  0.00  0.00    +0.185 C 
BRANCH  30  31
ATOM     31  C   UNL     1      10.936   0.588  23.848  0.00  0.00    +0.029 C 
BRANCH  31  32
ATOM     32  C   UNL     1      10.466   1.990  24.238  0.00  0.00    +0.037 C 
BRANCH  32  33
ATOM     33  C   UNL     1       9.230   2.373  23.456  0.00  0.00    -0.047 A 
ATOM     34  C   UNL     1       9.041   1.902  22.149  0.00  0.00    +0.003 A 
ATOM     35  C   UNL     1       7.874   2.206  21.447  0.00  0.00    +0.000 A 
ATOM     36  C   UNL     1       6.881   2.982  22.043  0.00  0.00    +0.000 A 
ATOM     37  C   UNL     1       7.057   3.454  23.342  0.00  0.00    +0.000 A 
ATOM     38  C   UNL     1       8.225   3.151  24.046  0.00  0.00    +0.003 A 
ENDBRANCH  32  33
ENDBRANCH  31  32
ENDBRANCH  30  31
ENDBRANCH  27  30
ENDBRANCH  25  27
ENDBRANCH  21  25
ENDBRANCH   1  21
TORSDOF 16
ENDMDL
MODEL 2
REMARK VINA RESULT:      -6.7      2.654      4.008
REMARK  Name = 
REMARK  18 active torsions:
REMARK  status: ('A' for Active; 'I' for Inactive)
REMARK    1  A    between atoms: C_2  and  C_3
REMARK    2  A    between atoms: C_2  and  C_25
REMARK    3  A    between atoms: C_2  and  C_28
REMARK    4  A    between atoms: C_3  and  P_4
REMARK    5  A    between atoms: P_4  and  O_5
REMARK    6  A    between atoms: P_4  and  C_7
REMARK    7  A    between atoms: C_7  and  N_9
REMARK    8  A    between atoms: C_7  and  C_22
REMARK    9  A    between atoms: N_9  and  S_10
REMARK   10  A    between atoms: S_10  and  C_13
REMARK   11  A    between atoms: C_13  and  C_14
REMARK   12  A    between atoms: C_14  and  C_15
REMARK   13  A    between atoms: C_15  and  C_16
REMARK   14  A    between atoms: C_22  and  C_23
REMARK   15  A    between atoms: C_22  and  C_24
REMARK   16  A    between atoms: C_25  and  O_26
REMARK   17  A    between atoms: C_30  and  C_31
REMARK   18  A    between atoms: C_31  and  N_32
REMARK                            x       y       z     vdW  Elec       q    Type
REMARK                         _______ _______ _______ _____ _____    ______ ____
ROOT
ATOM      1  P   UNL     1       8.479  -4.993  24.898  0.00  0.00    +0.221 P 
ATOM      2  O   UNL     1       9.980  -4.660  24.801  0.00  0.00    -0.289 OA
ENDROOT
BRANCH   1   3
ATOM      3  O   UNL     1       8.869  -6.281  25.983  0.00  0.00    -0.343 OA
ATOM      4  H   UNL     1       8.017  -6.459  26.450  0.00  0.00    +0.218 HD
ENDBRANCH   1   3
BRANCH   1   5
ATOM      5  C   UNL     1       7.838  -4.008  26.464  0.00  0.00    +0.118 C 
BRANCH   5   6
ATOM      6  C   UNL     1       6.420  -4.279  27.003  0.00  0.00    +0.137 C 
BRANCH   6   7
ATOM      7  C   UNL     1       5.302  -4.524  25.972  0.00  0.00    -0.033 A 
ATOM      8  C   UNL     1       4.616  -3.436  25.409  0.00  0.00    +0.004 A 
ATOM      9  C   UNL     1       3.572  -3.635  24.499  0.00  0.00    +0.001 A 
ATOM     10  C   UNL     1       3.202  -4.923  24.111  0.00  0.00    +0.005 A 
ATOM     11  C   UNL     1       3.889  -6.028  24.617  0.00  0.00    -0.034 A 
ATOM     12  C   UNL     1       4.935  -5.810  25.530  0.00  0.00    +0.009 A 
BRANCH  11  13
ATOM     13  C   UNL     1       3.517  -7.434  24.210  0.00  0.00    +0.113 C 
BRANCH  13  14
ATOM     14  N   UNL     1       3.118  -8.230  25.368  0.00  0.00    -0.326 NA
ATOM     15  H   UNL     1       2.773  -7.607  26.096  0.00  0.00    +0.119 HD
ATOM     16  H   UNL     1       2.329  -8.816  25.098  0.00  0.00    +0.119 HD
ENDBRANCH  13  14
ENDBRANCH  11  13
ENDBRANCH   6   7
BRANCH   6  17
ATOM     17  C   UNL     1       6.534  -5.234  28.182  0.00  0.00    +0.313 C 
ATOM     18  O   UNL     1       7.264  -6.219  28.158  0.00  0.00    -0.250 OA
BRANCH  17  19
ATOM     19  O   UNL     1       5.789  -4.943  29.271  0.00  0.00    -0.480 OA
ATOM     20  H   UNL     1       4.890  -5.330  29.211  0.00  0.00    +0.295 HD
ENDBRANCH  17  19
ENDBRANCH   6  17
ENDBRANCH   5   6
ENDBRANCH   1   5
BRANCH   1  21
ATOM     21  C   UNL     1       8.066  -3.629  23.750  0.00  0.00    +0.165 C 
BRANCH  21  22
ATOM     22  C   UNL     1       7.341  -4.089  22.430  0.00  0.00    +0.011 C 
ATOM     23  C   UNL     1       6.141  -3.201  22.084  0.00  0.00    +0.009 C 
ATOM     24  C   UNL     1       6.841  -5.535  22.412  0.00  0.00    +0.009 C 
ENDBRANCH  21  22
BRANCH  21  25
ATOM     25  N   UNL     1       9.374  -2.876  23.404  0.00  0.00    -0.182 NA
ATOM     26  H   UNL     1       9.562  -3.146  22.423  0.00  0.00    +0.149 HD
BRANCH  25  27
ATOM     27  S   UNL     1       9.296  -1.178  23.472  0.00  0.00    +0.030 S 
ATOM     28  O   UNL     1      10.293  -0.710  24.409  0.00  0.00    -0.158 OA
ATOM     29  O   UNL     1       7.906  -0.841  23.644  0.00  0.00    -0.158 OA
BRANCH  27  30
ATOM     30  C   UNL     1       9.838  -0.687  21.827  0.00  0.00    +0.185 C 
BRANCH  30  31
ATOM     31  C   UNL     1       9.203   0.657  21.470  0.00  0.00    +0.029 C 
BRANCH  31  32
ATOM     32  C   UNL     1       9.941   1.853  22.074  0.00  0.00    +0.037 C 
BRANCH  32  33
ATOM     33  C   UNL     1       8.995   2.701  22.894  0.00  0.00    -0.047 A 
ATOM     34  C   UNL     1       9.339   3.097  24.193  0.00  0.00    +0.003 A 
ATOM     35  C   UNL     1       8.493   3.928  24.930  0.00  0.00    +0.000 A 
ATOM     36  C   UNL     1       7.296   4.375  24.376  0.00  0.00    +0.000 A 
ATOM     37  C   UNL     1       6.943   3.989  23.084  0.00  0.00    +0.000 A 
ATOM     38  C   UNL     1       7.788   3.157  22.345  0.00  0.00    +0.003 A 
ENDBRANCH  32  33
ENDBRANCH  31  32
ENDBRANCH  30  31
ENDBRANCH  27  30
ENDBRANCH  25  27
ENDBRANCH  21  25
ENDBRANCH   1  21
TORSDOF 16
ENDMDL
MODEL 3
REMARK VINA RESULT:      -6.7      2.790      4.866
REMARK  Name = 
REMARK  18 active torsions:
REMARK  status: ('A' for Active; 'I' for Inactive)
REMARK    1  A    between atoms: C_2  and  C_3
REMARK    2  A    between atoms: C_2  and  C_25
REMARK    3  A    between atoms: C_2  and  C_28
REMARK    4  A    between atoms: C_3  and  P_4
REMARK    5  A    between atoms: P_4  and  O_5
REMARK    6  A    between atoms: P_4  and  C_7
REMARK    7  A    between atoms: C_7  and  N_9
REMARK    8  A    between atoms: C_7  and  C_22
REMARK    9  A    between atoms: N_9  and  S_10
REMARK   10  A    between atoms: S_10  and  C_13
REMARK   11  A    between atoms: C_13  and  C_14
REMARK   12  A    between atoms: C_14  and  C_15
REMARK   13  A    between atoms: C_15  and  C_16
REMARK   14  A    between atoms: C_22  and  C_23
REMARK   15  A    between atoms: C_22  and  C_24
REMARK   16  A    between atoms: C_25  and  O_26
REMARK   17  A    between atoms: C_30  and  C_31
REMARK   18  A    between atoms: C_31  and  N_32
REMARK                            x       y       z     vdW  Elec       q    Type
REMARK                         _______ _______ _______ _____ _____    ______ ____
ROOT
ATOM      1  P   UNL     1       3.491  -6.633  25.143  0.00  0.00    +0.221 P 
ATOM      2  O   UNL     1       4.572  -7.488  24.456  0.00  0.00    -0.289 OA
ENDROOT
BRANCH   1   3
ATOM      3  O   UNL     1       3.504  -7.742  26.470  0.00  0.00    -0.343 OA
ATOM      4  H   UNL     1       3.576  -8.625  26.034  0.00  0.00    +0.218 HD
ENDBRANCH   1   3
BRANCH   1   5
ATOM      5  C   UNL     1       4.476  -5.400  26.302  0.00  0.00    +0.118 C 
BRANCH   5   6
ATOM      6  C   UNL     1       5.927  -5.728  26.701  0.00  0.00    +0.137 C 
BRANCH   6   7
ATOM      7  C   UNL     1       7.024  -4.734  26.277  0.00  0.00    -0.033 A 
ATOM      8  C   UNL     1       8.098  -5.169  25.484  0.00  0.00    +0.004 A 
ATOM      9  C   UNL     1       9.125  -4.292  25.118  0.00  0.00    +0.001 A 
ATOM     10  C   UNL     1       9.095  -2.955  25.516  0.00  0.00    +0.005 A 
ATOM     11  C   UNL     1       8.022  -2.475  26.269  0.00  0.00    -0.034 A 
ATOM     12  C   UNL     1       6.999  -3.369  26.628  0.00  0.00    +0.009 A 
BRANCH  11  13
ATOM     13  C   UNL     1       7.957  -1.032  26.707  0.00  0.00    +0.113 C 
BRANCH  13  14
ATOM     14  N   UNL     1       9.101  -0.276  26.202  0.00  0.00    -0.326 NA
ATOM     15  H   UNL     1       8.797   0.303  25.421  0.00  0.00    +0.119 HD
ATOM     16  H   UNL     1       9.406   0.368  26.932  0.00  0.00    +0.119 HD
ENDBRANCH  13  14
ENDBRANCH  11  13
ENDBRANCH   6   7
BRANCH   6  17
ATOM     17  C   UNL     1       5.923  -6.228  28.138  0.00  0.00    +0.313 C 
ATOM     18  O   UNL     1       6.260  -5.517  29.079  0.00  0.00    -0.250 OA
BRANCH  17  19
ATOM     19  O   UNL     1       5.524  -7.503  28.335  0.00  0.00    -0.480 OA
ATOM     20  H   UNL     1       5.132  -7.892  27.524  0.00  0.00    +0.295 HD
ENDBRANCH  17  19
ENDBRANCH   6  17
ENDBRANCH   5   6
ENDBRANCH   1   5
BRANCH   1  21
ATOM     21  C   UNL     1       3.476  -5.458  23.740  0.00  0.00    +0.165 C 
BRANCH  21  22
ATOM     22  C   UNL     1       2.037  -5.091  23.216  0.00  0.00    +0.011 C 
ATOM     23  C   UNL     1       1.175  -4.430  24.297  0.00  0.00    +0.009 C 
ATOM     24  C   UNL     1       1.219  -6.251  22.645  0.00  0.00    +0.009 C 
ENDBRANCH  21  22
BRANCH  21  25
ATOM     25  N   UNL     1       4.321  -6.065  22.594  0.00  0.00    -0.182 NA
ATOM     26  H   UNL     1       3.684  -6.043  21.779  0.00  0.00    +0.149 HD
BRANCH  25  27
ATOM     27  S   UNL     1       5.732  -5.212  22.176  0.00  0.00    +0.030 S 
ATOM     28  O   UNL     1       5.629  -4.804  20.792  0.00  0.00    -0.158 OA
ATOM     29  O   UNL     1       6.842  -6.013  22.628  0.00  0.00    -0.158 OA
BRANCH  27  30
ATOM     30  C   UNL     1       5.612  -3.723  23.181  0.00  0.00    +0.185 C 
BRANCH  30  31
ATOM     31  C   UNL     1       6.275  -2.562  22.439  0.00  0.00    +0.029 C 
BRANCH  31  32
ATOM     32  C   UNL     1       6.488  -1.328  23.317  0.00  0.00    +0.037 C 
BRANCH  32  33
ATOM     33  C   UNL     1       7.648  -0.505  22.804  0.00  0.00    -0.047 A 
ATOM     34  C   UNL     1       7.649   0.889  22.945  0.00  0.00    +0.003 A 
ATOM     35  C   UNL     1       8.745   1.645  22.524  0.00  0.00    +0.000 A 
ATOM     36  C   UNL     1       9.853   1.015  21.961  0.00  0.00    +0.000 A 
ATOM     37  C   UNL     1       9.865  -0.371  21.817  0.00  0.00    +0.000 A 
ATOM     38  C   UNL     1       8.769  -1.128  22.237  0.00  0.00    +0.003 A 
ENDBRANCH  32  33
ENDBRANCH  31  32
ENDBRANCH  30  31
ENDBRANCH  27  30
ENDBRANCH  25  27
ENDBRANCH  21  25
ENDBRANCH   1  21
TORSDOF 16
ENDMDL
MODEL 4
REMARK VINA RESULT:      -6.7      3.211      5.276
REMARK  Name = 
REMARK  18 active torsions:
REMARK  status: ('A' for Active; 'I' for Inactive)
REMARK    1  A    between atoms: C_2  and  C_3
REMARK    2  A    between atoms: C_2  and  C_25
REMARK    3  A    between atoms: C_2  and  C_28
REMARK    4  A    between atoms: C_3  and  P_4
REMARK    5  A    between atoms: P_4  and  O_5
REMARK    6  A    between atoms: P_4  and  C_7
REMARK    7  A    between atoms: C_7  and  N_9
REMARK    8  A    between atoms: C_7  and  C_22
REMARK    9  A    between atoms: N_9  and  S_10
REMARK   10  A    between atoms: S_10  and  C_13
REMARK   11  A    between atoms: C_13  and  C_14
REMARK   12  A    between atoms: C_14  and  C_15
REMARK   13  A    between atoms: C_15  and  C_16
REMARK   14  A    between atoms: C_22  and  C_23
REMARK   15  A    between atoms: C_22  and  C_24
REMARK   16  A    between atoms: C_25  and  O_26
REMARK   17  A    between atoms: C_30  and  C_31
REMARK   18  A    between atoms: C_31  and  N_32
REMARK                            x       y       z     vdW  Elec       q    Type
REMARK                         _______ _______ _______ _____ _____    ______ ____
ROOT
ATOM      1  P   UNL     1       6.527  -4.695  27.087  0.00  0.00    +0.221 P 
ATOM      2  O   UNL     1       6.155  -5.678  25.960  0.00  0.00    -0.289 OA
ENDROOT
BRANCH   1   3
ATOM      3  O   UNL     1       7.715  -5.826  27.635  0.00  0.00    -0.343 OA
ATOM      4  H   UNL     1       8.054  -5.422  28.469  0.00  0.00    +0.218 HD
ENDBRANCH   1   3
BRANCH   1   5
ATOM      5  C   UNL     1       8.013  -3.639  26.374  0.00  0.00    +0.118 C 
BRANCH   5   6
ATOM      6  C   UNL     1       8.492  -3.881  24.930  0.00  0.00    +0.137 C 
BRANCH   6   7
ATOM      7  C   UNL     1       9.022  -2.667  24.144  0.00  0.00    -0.033 A 
ATOM      8  C   UNL     1       8.867  -2.611  22.750  0.00  0.00    +0.004 A 
ATOM      9  C   UNL     1       9.373  -1.537  22.010  0.00  0.00    +0.001 A 
ATOM     10  C   UNL     1      10.026  -0.481  22.646  0.00  0.00    +0.005 A 
ATOM     11  C   UNL     1      10.163  -0.480  24.035  0.00  0.00    -0.034 A 
ATOM     12  C   UNL     1       9.648  -1.567  24.762  0.00  0.00    +0.009 A 
BRANCH  11  13
ATOM     13  C   UNL     1      10.858   0.653  24.753  0.00  0.00    +0.113 C 
BRANCH  13  14
ATOM     14  N   UNL     1      10.795   1.887  23.974  0.00  0.00    -0.326 NA
ATOM     15  H   UNL     1       9.841   2.241  23.990  0.00  0.00    +0.119 HD
ATOM     16  H   UNL     1      11.368   2.590  24.441  0.00  0.00    +0.119 HD
ENDBRANCH  13  14
ENDBRANCH  11  13
ENDBRANCH   6   7
BRANCH   6  17
ATOM     17  C   UNL     1       9.308  -5.165  24.909  0.00  0.00    +0.313 C 
ATOM     18  O   UNL     1       9.203  -5.992  24.010  0.00  0.00    -0.250 OA
BRANCH  17  19
ATOM     19  O   UNL     1      10.165  -5.354  25.936  0.00  0.00    -0.480 OA
ATOM     20  H   UNL     1      11.065  -5.028  25.724  0.00  0.00    +0.295 HD
ENDBRANCH  17  19
ENDBRANCH   6  17
ENDBRANCH   5   6
ENDBRANCH   1   5
BRANCH   1  21
ATOM     21  C   UNL     1       5.269  -3.498  26.508  0.00  0.00    +0.165 C 
BRANCH  21  22
ATOM     22  C   UNL     1       4.703  -3.797  25.069  0.00  0.00    +0.011 C 
ATOM     23  C   UNL     1       5.217  -2.801  24.023  0.00  0.00    +0.009 C 
ATOM     24  C   UNL     1       3.178  -3.821  24.944  0.00  0.00    +0.009 C 
ENDBRANCH  21  22
BRANCH  21  25
ATOM     25  N   UNL     1       5.894  -2.083  26.551  0.00  0.00    -0.182 NA
ATOM     26  H   UNL     1       5.996  -1.828  25.554  0.00  0.00    +0.149 HD
BRANCH  25  27
ATOM     27  S   UNL     1       4.958  -0.878  27.303  0.00  0.00    +0.030 S 
ATOM     28  O   UNL     1       4.296  -1.459  28.450  0.00  0.00    -0.158 OA
ATOM     29  O   UNL     1       4.198  -0.241  26.258  0.00  0.00    -0.158 OA
BRANCH  27  30
ATOM     30  C   UNL     1       6.202   0.264  27.928  0.00  0.00    +0.185 C 
BRANCH  30  31
ATOM     31  C   UNL     1       7.273   0.475  26.856  0.00  0.00    +0.029 C 
BRANCH  31  32
ATOM     32  C   UNL     1       7.328   1.911  26.333  0.00  0.00    +0.037 C 
BRANCH  32  33
ATOM     33  C   UNL     1       7.209   1.932  24.826  0.00  0.00    -0.047 A 
ATOM     34  C   UNL     1       7.564   3.077  24.100  0.00  0.00    +0.003 A 
ATOM     35  C   UNL     1       7.510   3.079  22.705  0.00  0.00    +0.000 A 
ATOM     36  C   UNL     1       7.105   1.936  22.020  0.00  0.00    +0.000 A 
ATOM     37  C   UNL     1       6.751   0.790  22.730  0.00  0.00    +0.000 A 
ATOM     38  C   UNL     1       6.804   0.787  24.126  0.00  0.00    +0.003 A 
ENDBRANCH  32  33
ENDBRANCH  31  32
ENDBRANCH  30  31
ENDBRANCH  27  30
ENDBRANCH  25  27
ENDBRANCH  21  25
ENDBRANCH   1  21
TORSDOF 16
ENDMDL
MODEL 5
REMARK VINA RESULT:      -6.6      3.570      5.666
REMARK  Name = 
REMARK  18 active torsions:
REMARK  status: ('A' for Active; 'I' for Inactive)
REMARK    1  A    between atoms: C_2  and  C_3
REMARK    2  A    between atoms: C_2  and  C_25
REMARK    3  A    between atoms: C_2  and  C_28
REMARK    4  A    between atoms: C_3  and  P_4
REMARK    5  A    between atoms: P_4  and  O_5
REMARK    6  A    between atoms: P_4  and  C_7
REMARK    7  A    between atoms: C_7  and  N_9
REMARK    8  A    between atoms: C_7  and  C_22
REMARK    9  A    between atoms: N_9  and  S_10
REMARK   10  A    between atoms: S_10  and  C_13
REMARK   11  A    between atoms: C_13  and  C_14
REMARK   12  A    between atoms: C_14  and  C_15
REMARK   13  A    between atoms: C_15  and  C_16
REMARK   14  A    between atoms: C_22  and  C_23
REMARK   15  A    between atoms: C_22  and  C_24
REMARK   16  A    between atoms: C_25  and  O_26
REMARK   17  A    between atoms: C_30  and  C_31
REMARK   18  A    between atoms: C_31  and  N_32
REMARK                            x       y       z     vdW  Elec       q    Type
REMARK                         _______ _______ _______ _____ _____    ______ ____
ROOT
ATOM      1  P   UNL     1       6.265   2.145  24.788  0.00  0.00    +0.221 P 
ATOM      2  O   UNL     1       6.309   2.489  23.287  0.00  0.00    -0.289 OA
ENDROOT
BRANCH   1   3
ATOM      3  O   UNL     1       4.691   1.468  24.552  0.00  0.00    -0.343 OA
ATOM      4  H   UNL     1       4.790   0.534  24.857  0.00  0.00    +0.218 HD
ENDBRANCH   1   3
BRANCH   1   5
ATOM      5  C   UNL     1       6.922   0.305  24.909  0.00  0.00    +0.118 C 
BRANCH   5   6
ATOM      6  C   UNL     1       6.706  -0.495  26.208  0.00  0.00    +0.137 C 
BRANCH   6   7
ATOM      7  C   UNL     1       6.124  -1.916  26.081  0.00  0.00    -0.033 A 
ATOM      8  C   UNL     1       5.219  -2.214  25.050  0.00  0.00    +0.004 A 
ATOM      9  C   UNL     1       4.650  -3.487  24.936  0.00  0.00    +0.001 A 
ATOM     10  C   UNL     1       4.987  -4.500  25.835  0.00  0.00    +0.005 A 
ATOM     11  C   UNL     1       5.916  -4.253  26.848  0.00  0.00    -0.034 A 
ATOM     12  C   UNL     1       6.479  -2.969  26.947  0.00  0.00    +0.009 A 
BRANCH  11  13
ATOM     13  C   UNL     1       6.308  -5.331  27.830  0.00  0.00    +0.113 C 
BRANCH  13  14
ATOM     14  N   UNL     1       7.631  -5.869  27.523  0.00  0.00    -0.326 NA
ATOM     15  H   UNL     1       7.594  -6.886  27.566  0.00  0.00    +0.119 HD
ATOM     16  H   UNL     1       7.856  -5.633  26.556  0.00  0.00    +0.119 HD
ENDBRANCH  13  14
ENDBRANCH  11  13
ENDBRANCH   6   7
BRANCH   6  17
ATOM     17  C   UNL     1       7.921  -0.291  27.100  0.00  0.00    +0.313 C 
ATOM     18  O   UNL     1       8.995  -0.841  26.879  0.00  0.00    -0.250 OA
BRANCH  17  19
ATOM     19  O   UNL     1       7.765   0.535  28.157  0.00  0.00    -0.480 OA
ATOM     20  H   UNL     1       8.518   1.158  28.247  0.00  0.00    +0.295 HD
ENDBRANCH  17  19
ENDBRANCH   6  17
ENDBRANCH   5   6
ENDBRANCH   1   5
BRANCH   1  21
ATOM     21  C   UNL     1       7.930   2.861  25.039  0.00  0.00    +0.165 C 
BRANCH  21  22
ATOM     22  C   UNL     1       7.931   4.275  25.730  0.00  0.00    +0.011 C 
ATOM     23  C   UNL     1       6.565   4.634  26.325  0.00  0.00    +0.009 C 
ATOM     24  C   UNL     1       8.351   5.450  24.846  0.00  0.00    +0.009 C 
ENDBRANCH  21  22
BRANCH  21  25
ATOM     25  N   UNL     1       8.633   2.941  23.662  0.00  0.00    -0.182 NA
ATOM     26  H   UNL     1       8.750   3.957  23.504  0.00  0.00    +0.149 HD
BRANCH  25  27
ATOM     27  S   UNL     1      10.170   2.218  23.567  0.00  0.00    +0.030 S 
ATOM     28  O   UNL     1      10.331   1.331  24.698  0.00  0.00    -0.158 OA
ATOM     29  O   UNL     1      11.108   3.286  23.328  0.00  0.00    -0.158 OA
BRANCH  27  30
ATOM     30  C   UNL     1      10.038   1.189  22.096  0.00  0.00    +0.185 C 
BRANCH  30  31
ATOM     31  C   UNL     1       9.990  -0.282  22.514  0.00  0.00    +0.029 C 
BRANCH  31  32
ATOM     32  C   UNL     1       8.691  -0.981  22.114  0.00  0.00    +0.037 C 
BRANCH  32  33
ATOM     33  C   UNL     1       8.541  -2.289  22.859  0.00  0.00    -0.047 A 
ATOM     34  C   UNL     1       7.661  -3.275  22.394  0.00  0.00    +0.003 A 
ATOM     35  C   UNL     1       7.565  -4.506  23.046  0.00  0.00    +0.000 A 
ATOM     36  C   UNL     1       8.349  -4.765  24.169  0.00  0.00    +0.000 A 
ATOM     37  C   UNL     1       9.229  -3.793  24.639  0.00  0.00    +0.000 A 
ATOM     38  C   UNL     1       9.326  -2.561  23.988  0.00  0.00    +0.003 A 
ENDBRANCH  32  33
ENDBRANCH  31  32
ENDBRANCH  30  31
ENDBRANCH  27  30
ENDBRANCH  25  27
ENDBRANCH  21  25
ENDBRANCH   1  21
TORSDOF 16
ENDMDL
MODEL 6
REMARK VINA RESULT:      -6.6      2.912      4.314
REMARK  Name = 
REMARK  18 active torsions:
REMARK  status: ('A' for Active; 'I' for Inactive)
REMARK    1  A    between atoms: C_2  and  C_3
REMARK    2  A    between atoms: C_2  and  C_25
REMARK    3  A    between atoms: C_2  and  C_28
REMARK    4  A    between atoms: C_3  and  P_4
REMARK    5  A    between atoms: P_4  and  O_5
REMARK    6  A    between atoms: P_4  and  C_7
REMARK    7  A    between atoms: C_7  and  N_9
REMARK    8  A    between atoms: C_7  and  C_22
REMARK    9  A    between atoms: N_9  and  S_10
REMARK   10  A    between atoms: S_10  and  C_13
REMARK   11  A    between atoms: C_13  and  C_14
REMARK   12  A    between atoms: C_14  and  C_15
REMARK   13  A    between atoms: C_15  and  C_16
REMARK   14  A    between atoms: C_22  and  C_23
REMARK   15  A    between atoms: C_22  and  C_24
REMARK   16  A    between atoms: C_25  and  O_26
REMARK   17  A    between atoms: C_30  and  C_31
REMARK   18  A    between atoms: C_31  and  N_32
REMARK                            x       y       z     vdW  Elec       q    Type
REMARK                         _______ _______ _______ _____ _____    ______ ____
ROOT
ATOM      1  P   UNL     1       8.450  -4.847  24.785  0.00  0.00    +0.221 P 
ATOM      2  O   UNL     1       9.874  -4.308  24.553  0.00  0.00    -0.289 OA
ENDROOT
BRANCH   1   3
ATOM      3  O   UNL     1       9.114  -6.058  25.825  0.00  0.00    -0.343 OA
ATOM      4  H   UNL     1      10.087  -5.985  25.676  0.00  0.00    +0.218 HD
ENDBRANCH   1   3
BRANCH   1   5
ATOM      5  C   UNL     1       7.820  -3.949  26.406  0.00  0.00    +0.118 C 
BRANCH   5   6
ATOM      6  C   UNL     1       6.430  -4.293  26.973  0.00  0.00    +0.137 C 
BRANCH   6   7
ATOM      7  C   UNL     1       5.301  -4.580  25.965  0.00  0.00    -0.033 A 
ATOM      8  C   UNL     1       4.639  -3.517  25.330  0.00  0.00    +0.004 A 
ATOM      9  C   UNL     1       3.587  -3.752  24.439  0.00  0.00    +0.001 A 
ATOM     10  C   UNL     1       3.184  -5.054  24.142  0.00  0.00    +0.005 A 
ATOM     11  C   UNL     1       3.845  -6.139  24.721  0.00  0.00    -0.034 A 
ATOM     12  C   UNL     1       4.901  -5.884  25.613  0.00  0.00    +0.009 A 
BRANCH  11  13
ATOM     13  C   UNL     1       3.437  -7.559  24.413  0.00  0.00    +0.113 C 
BRANCH  13  14
ATOM     14  N   UNL     1       2.549  -7.613  23.254  0.00  0.00    -0.326 NA
ATOM     15  H   UNL     1       2.624  -8.533  22.821  0.00  0.00    +0.119 HD
ATOM     16  H   UNL     1       1.588  -7.531  23.582  0.00  0.00    +0.119 HD
ENDBRANCH  13  14
ENDBRANCH  11  13
ENDBRANCH   6   7
BRANCH   6  17
ATOM     17  C   UNL     1       6.616  -5.254  28.138  0.00  0.00    +0.313 C 
ATOM     18  O   UNL     1       5.990  -5.140  29.186  0.00  0.00    -0.250 OA
BRANCH  17  19
ATOM     19  O   UNL     1       7.511  -6.251  27.964  0.00  0.00    -0.480 OA
ATOM     20  H   UNL     1       8.231  -5.992  27.351  0.00  0.00    +0.295 HD
ENDBRANCH  17  19
ENDBRANCH   6  17
ENDBRANCH   5   6
ENDBRANCH   1   5
BRANCH   1  21
ATOM     21  C   UNL     1       7.746  -3.566  23.683  0.00  0.00    +0.165 C 
BRANCH  21  22
ATOM     22  C   UNL     1       7.173  -4.121  22.326  0.00  0.00    +0.011 C 
ATOM     23  C   UNL     1       5.957  -3.325  21.838  0.00  0.00    +0.009 C 
ATOM     24  C   UNL     1       6.765  -5.595  22.325  0.00  0.00    +0.009 C 
ENDBRANCH  21  22
BRANCH  21  25
ATOM     25  N   UNL     1       8.844  -2.512  23.407  0.00  0.00    -0.182 NA
ATOM     26  H   UNL     1       8.970  -2.550  22.380  0.00  0.00    +0.149 HD
BRANCH  25  27
ATOM     27  S   UNL     1       8.460  -0.908  23.825  0.00  0.00    +0.030 S 
ATOM     28  O   UNL     1       8.420  -0.807  25.267  0.00  0.00    -0.158 OA
ATOM     29  O   UNL     1       7.318  -0.542  23.027  0.00  0.00    -0.158 OA
BRANCH  27  30
ATOM     30  C   UNL     1       9.906   0.008  23.267  0.00  0.00    +0.185 C 
BRANCH  30  31
ATOM     31  C   UNL     1       9.460   1.366  22.721  0.00  0.00    +0.029 C 
BRANCH  31  32
ATOM     32  C   UNL     1       9.121   2.375  23.818  0.00  0.00    +0.037 C 
BRANCH  32  33
ATOM     33  C   UNL     1      10.011   3.593  23.712  0.00  0.00    -0.047 A 
ATOM     34  C   UNL     1       9.528   4.860  24.068  0.00  0.00    +0.003 A 
ATOM     35  C   UNL     1      10.365   5.977  24.026  0.00  0.00    +0.000 A 
ATOM     36  C   UNL     1      11.694   5.839  23.631  0.00  0.00    +0.000 A 
ATOM     37  C   UNL     1      12.187   4.585  23.278  0.00  0.00    +0.000 A 
ATOM     38  C   UNL     1      11.350   3.466  23.318  0.00  0.00    +0.003 A 
ENDBRANCH  32  33
ENDBRANCH  31  32
ENDBRANCH  30  31
ENDBRANCH  27  30
ENDBRANCH  25  27
ENDBRANCH  21  25
ENDBRANCH   1  21
TORSDOF 16
ENDMDL
MODEL 7
REMARK VINA RESULT:      -6.6      3.347      6.296
REMARK  Name = 
REMARK  18 active torsions:
REMARK  status: ('A' for Active; 'I' for Inactive)
REMARK    1  A    between atoms: C_2  and  C_3
REMARK    2  A    between atoms: C_2  and  C_25
REMARK    3  A    between atoms: C_2  and  C_28
REMARK    4  A    between atoms: C_3  and  P_4
REMARK    5  A    between atoms: P_4  and  O_5
REMARK    6  A    between atoms: P_4  and  C_7
REMARK    7  A    between atoms: C_7  and  N_9
REMARK    8  A    between atoms: C_7  and  C_22
REMARK    9  A    between atoms: N_9  and  S_10
REMARK   10  A    between atoms: S_10  and  C_13
REMARK   11  A    between atoms: C_13  and  C_14
REMARK   12  A    between atoms: C_14  and  C_15
REMARK   13  A    between atoms: C_15  and  C_16
REMARK   14  A    between atoms: C_22  and  C_23
REMARK   15  A    between atoms: C_22  and  C_24
REMARK   16  A    between atoms: C_25  and  O_26
REMARK   17  A    between atoms: C_30  and  C_31
REMARK   18  A    between atoms: C_31  and  N_32
REMARK                            x       y       z     vdW  Elec       q    Type
REMARK                         _______ _______ _______ _____ _____    ______ ____
ROOT
ATOM      1  P   UNL     1       8.507   2.061  22.301  0.00  0.00    +0.221 P 
ATOM      2  O   UNL     1       9.207   1.988  23.672  0.00  0.00    -0.289 OA
ENDROOT
BRANCH   1   3
ATOM      3  O   UNL     1      10.037   1.791  21.543  0.00  0.00    -0.343 OA
ATOM      4  H   UNL     1      10.452   2.687  21.529  0.00  0.00    +0.218 HD
ENDBRANCH   1   3
BRANCH   1   5
ATOM      5  C   UNL     1       8.075   0.206  21.849  0.00  0.00    +0.118 C 
BRANCH   5   6
ATOM      6  C   UNL     1       8.353  -0.910  22.874  0.00  0.00    +0.137 C 
BRANCH   6   7
ATOM      7  C   UNL     1       7.376  -2.100  22.913  0.00  0.00    -0.033 A 
ATOM      8  C   UNL     1       6.075  -1.925  23.409  0.00  0.00    +0.004 A 
ATOM      9  C   UNL     1       5.182  -3.000  23.488  0.00  0.00    +0.001 A 
ATOM     10  C   UNL     1       5.559  -4.271  23.053  0.00  0.00    +0.005 A 
ATOM     11  C   UNL     1       6.831  -4.476  22.514  0.00  0.00    -0.034 A 
ATOM     12  C   UNL     1       7.714  -3.385  22.442  0.00  0.00    +0.009 A 
BRANCH  11  13
ATOM     13  C   UNL     1       7.265  -5.837  22.028  0.00  0.00    +0.113 C 
BRANCH  13  14
ATOM     14  N   UNL     1       6.154  -6.786  22.056  0.00  0.00    -0.326 NA
ATOM     15  H   UNL     1       5.343  -6.335  22.475  0.00  0.00    +0.119 HD
ATOM     16  H   UNL     1       5.894  -7.003  21.094  0.00  0.00    +0.119 HD
ENDBRANCH  13  14
ENDBRANCH  11  13
ENDBRANCH   6   7
BRANCH   6  17
ATOM     17  C   UNL     1       9.846  -1.203  22.864  0.00  0.00    +0.313 C 
ATOM     18  O   UNL     1      10.508  -1.259  23.894  0.00  0.00    -0.250 OA
BRANCH  17  19
ATOM     19  O   UNL     1      10.415  -1.403  21.655  0.00  0.00    -0.480 OA
ATOM     20  H   UNL     1      10.651  -2.345  21.515  0.00  0.00    +0.295 HD
ENDBRANCH  17  19
ENDBRANCH   6  17
ENDBRANCH   5   6
ENDBRANCH   1   5
BRANCH   1  21
ATOM     21  C   UNL     1       6.887   2.347  23.103  0.00  0.00    +0.165 C 
BRANCH  21  22
ATOM     22  C   UNL     1       6.060   3.538  22.491  0.00  0.00    +0.011 C 
ATOM     23  C   UNL     1       6.297   4.856  23.238  0.00  0.00    +0.009 C 
ATOM     24  C   UNL     1       4.546   3.335  22.423  0.00  0.00    +0.009 C 
ENDBRANCH  21  22
BRANCH  21  25
ATOM     25  N   UNL     1       7.132   2.588  24.612  0.00  0.00    -0.182 NA
ATOM     26  H   UNL     1       7.103   3.619  24.705  0.00  0.00    +0.149 HD
BRANCH  25  27
ATOM     27  S   UNL     1       5.969   1.938  25.669  0.00  0.00    +0.030 S 
ATOM     28  O   UNL     1       5.199   0.945  24.952  0.00  0.00    -0.158 OA
ATOM     29  O   UNL     1       5.320   3.059  26.301  0.00  0.00    -0.158 OA
BRANCH  27  30
ATOM     30  C   UNL     1       6.973   1.061  26.880  0.00  0.00    +0.185 C 
BRANCH  30  31
ATOM     31  C   UNL     1       6.757  -0.444  26.716  0.00  0.00    +0.029 C 
BRANCH  31  32
ATOM     32  C   UNL     1       8.061  -1.241  26.687  0.00  0.00    +0.037 C 
BRANCH  32  33
ATOM     33  C   UNL     1       7.779  -2.712  26.476  0.00  0.00    -0.047 A 
ATOM     34  C   UNL     1       8.767  -3.557  25.952  0.00  0.00    +0.003 A 
ATOM     35  C   UNL     1       8.528  -4.926  25.811  0.00  0.00    +0.000 A 
ATOM     36  C   UNL     1       7.302  -5.464  26.195  0.00  0.00    +0.000 A 
ATOM     37  C   UNL     1       6.313  -4.635  26.719  0.00  0.00    +0.000 A 
ATOM     38  C   UNL     1       6.550  -3.265  26.860  0.00  0.00    +0.003 A 
ENDBRANCH  32  33
ENDBRANCH  31  32
ENDBRANCH  30  31
ENDBRANCH  27  30
ENDBRANCH  25  27
ENDBRANCH  21  25
ENDBRANCH   1  21
TORSDOF 16
ENDMDL
MODEL 8
REMARK VINA RESULT:      -6.5      1.982      3.377
REMARK  Name = 
REMARK  18 active torsions:
REMARK  status: ('A' for Active; 'I' for Inactive)
REMARK    1  A    between atoms: C_2  and  C_3
REMARK    2  A    between atoms: C_2  and  C_25
REMARK    3  A    between atoms: C_2  and  C_28
REMARK    4  A    between atoms: C_3  and  P_4
REMARK    5  A    between atoms: P_4  and  O_5
REMARK    6  A    between atoms: P_4  and  C_7
REMARK    7  A    between atoms: C_7  and  N_9
REMARK    8  A    between atoms: C_7  and  C_22
REMARK    9  A    between atoms: N_9  and  S_10
REMARK   10  A    between atoms: S_10  and  C_13
REMARK   11  A    between atoms: C_13  and  C_14
REMARK   12  A    between atoms: C_14  and  C_15
REMARK   13  A    between atoms: C_15  and  C_16
REMARK   14  A    between atoms: C_22  and  C_23
REMARK   15  A    between atoms: C_22  and  C_24
REMARK   16  A    between atoms: C_25  and  O_26
REMARK   17  A    between atoms: C_30  and  C_31
REMARK   18  A    between atoms: C_31  and  N_32
REMARK                            x       y       z     vdW  Elec       q    Type
REMARK                         _______ _______ _______ _____ _____    ______ ____
ROOT
ATOM      1  P   UNL     1       6.507  -3.132  22.800  0.00  0.00    +0.221 P 
ATOM      2  O   UNL     1       7.272  -2.707  21.532  0.00  0.00    -0.289 OA
ENDROOT
BRANCH   1   3
ATOM      3  O   UNL     1       5.576  -4.221  21.831  0.00  0.00    -0.343 OA
ATOM      4  H   UNL     1       5.063  -4.743  22.494  0.00  0.00    +0.218 HD
ENDBRANCH   1   3
BRANCH   1   5
ATOM      5  C   UNL     1       7.459  -4.706  23.467  0.00  0.00    +0.118 C 
BRANCH   5   6
ATOM      6  C   UNL     1       7.818  -4.799  24.963  0.00  0.00    +0.137 C 
BRANCH   6   7
ATOM      7  C   UNL     1       6.777  -5.429  25.907  0.00  0.00    -0.033 A 
ATOM      8  C   UNL     1       6.964  -5.373  27.297  0.00  0.00    +0.004 A 
ATOM      9  C   UNL     1       6.051  -5.970  28.172  0.00  0.00    +0.001 A 
ATOM     10  C   UNL     1       4.917  -6.619  27.683  0.00  0.00    +0.005 A 
ATOM     11  C   UNL     1       4.674  -6.659  26.309  0.00  0.00    -0.034 A 
ATOM     12  C   UNL     1       5.601  -6.053  25.444  0.00  0.00    +0.009 A 
BRANCH  11  13
ATOM     13  C   UNL     1       3.451  -7.346  25.750  0.00  0.00    +0.113 C 
BRANCH  13  14
ATOM     14  N   UNL     1       3.692  -7.829  24.393  0.00  0.00    -0.326 NA
ATOM     15  H   UNL     1       3.001  -8.542  24.167  0.00  0.00    +0.119 HD
ATOM     16  H   UNL     1       3.530  -7.059  23.744  0.00  0.00    +0.119 HD
ENDBRANCH  13  14
ENDBRANCH  11  13
ENDBRANCH   6   7
BRANCH   6  17
ATOM     17  C   UNL     1       9.264  -5.256  25.077  0.00  0.00    +0.313 C 
ATOM     18  O   UNL     1      10.206  -4.530  24.779  0.00  0.00    -0.250 OA
BRANCH  17  19
ATOM     19  O   UNL     1       9.468  -6.513  25.530  0.00  0.00    -0.480 OA
ATOM     20  H   UNL     1       9.661  -7.137  24.799  0.00  0.00    +0.295 HD
ENDBRANCH  17  19
ENDBRANCH   6  17
ENDBRANCH   5   6
ENDBRANCH   1   5
BRANCH   1  21
ATOM     21  C   UNL     1       7.491  -1.979  23.825  0.00  0.00    +0.165 C 
BRANCH  21  22
ATOM     22  C   UNL     1       6.698  -1.338  25.024  0.00  0.00    +0.011 C 
ATOM     23  C   UNL     1       7.461  -1.443  26.349  0.00  0.00    +0.009 C 
ATOM     24  C   UNL     1       5.298  -1.900  25.275  0.00  0.00    +0.009 C 
ENDBRANCH  21  22
BRANCH  21  25
ATOM     25  N   UNL     1       8.049  -0.869  22.902  0.00  0.00    -0.182 NA
ATOM     26  H   UNL     1       7.594  -0.007  23.249  0.00  0.00    +0.149 HD
BRANCH  25  27
ATOM     27  S   UNL     1       9.732  -0.628  22.960  0.00  0.00    +0.030 S 
ATOM     28  O   UNL     1      10.377  -1.722  22.267  0.00  0.00    -0.158 OA
ATOM     29  O   UNL     1      10.054  -0.332  24.333  0.00  0.00    -0.158 OA
BRANCH  27  30
ATOM     30  C   UNL     1       9.960   0.848  21.954  0.00  0.00    +0.185 C 
BRANCH  30  31
ATOM     31  C   UNL     1       8.607   1.532  21.752  0.00  0.00    +0.029 C 
BRANCH  31  32
ATOM     32  C   UNL     1       8.432   2.787  22.607  0.00  0.00    +0.037 C 
BRANCH  32  33
ATOM     33  C   UNL     1       7.548   2.499  23.799  0.00  0.00    -0.047 A 
ATOM     34  C   UNL     1       8.072   2.530  25.099  0.00  0.00    +0.003 A 
ATOM     35  C   UNL     1       7.244   2.322  26.203  0.00  0.00    +0.000 A 
ATOM     36  C   UNL     1       5.884   2.083  26.022  0.00  0.00    +0.000 A 
ATOM     37  C   UNL     1       5.350   2.052  24.736  0.00  0.00    +0.000 A 
ATOM     38  C   UNL     1       6.177   2.260  23.629  0.00  0.00    +0.003 A 
ENDBRANCH  32  33
ENDBRANCH  31  32
ENDBRANCH  30  31
ENDBRANCH  27  30
ENDBRANCH  25  27
ENDBRANCH  21  25
ENDBRANCH   1  21
TORSDOF 16
ENDMDL
MODEL 9
REMARK VINA RESULT:      -6.5      2.530      4.405
REMARK  Name = 
REMARK  18 active torsions:
REMARK  status: ('A' for Active; 'I' for Inactive)
REMARK    1  A    between atoms: C_2  and  C_3
REMARK    2  A    between atoms: C_2  and  C_25
REMARK    3  A    between atoms: C_2  and  C_28
REMARK    4  A    between atoms: C_3  and  P_4
REMARK    5  A    between atoms: P_4  and  O_5
REMARK    6  A    between atoms: P_4  and  C_7
REMARK    7  A    between atoms: C_7  and  N_9
REMARK    8  A    between atoms: C_7  and  C_22
REMARK    9  A    between atoms: N_9  and  S_10
REMARK   10  A    between atoms: S_10  and  C_13
REMARK   11  A    between atoms: C_13  and  C_14
REMARK   12  A    between atoms: C_14  and  C_15
REMARK   13  A    between atoms: C_15  and  C_16
REMARK   14  A    between atoms: C_22  and  C_23
REMARK   15  A    between atoms: C_22  and  C_24
REMARK   16  A    between atoms: C_25  and  O_26
REMARK   17  A    between atoms: C_30  and  C_31
REMARK   18  A    between atoms: C_31  and  N_32
REMARK                            x       y       z     vdW  Elec       q    Type
REMARK                         _______ _______ _______ _____ _____    ______ ____
ROOT
ATOM      1  P   UNL     1       4.354  -5.491  23.788  0.00  0.00    +0.221 P 
ATOM      2  O   UNL     1       2.928  -5.097  24.217  0.00  0.00    -0.289 OA
ENDROOT
BRANCH   1   3
ATOM      3  O   UNL     1       3.686  -6.247  22.384  0.00  0.00    -0.343 OA
ATOM      4  H   UNL     1       4.326  -6.019  21.668  0.00  0.00    +0.218 HD
ENDBRANCH   1   3
BRANCH   1   5
ATOM      5  C   UNL     1       4.946  -4.051  22.601  0.00  0.00    +0.118 C 
BRANCH   5   6
ATOM      6  C   UNL     1       6.311  -4.163  21.895  0.00  0.00    +0.137 C 
BRANCH   6   7
ATOM      7  C   UNL     1       7.543  -3.612  22.637  0.00  0.00    -0.033 A 
ATOM      8  C   UNL     1       8.129  -2.404  22.225  0.00  0.00    +0.004 A 
ATOM      9  C   UNL     1       9.270  -1.903  22.860  0.00  0.00    +0.001 A 
ATOM     10  C   UNL     1       9.843  -2.583  23.935  0.00  0.00    +0.005 A 
ATOM     11  C   UNL     1       9.265  -3.766  24.401  0.00  0.00    -0.034 A 
ATOM     12  C   UNL     1       8.117  -4.254  23.752  0.00  0.00    +0.009 A 
BRANCH  11  13
ATOM     13  C   UNL     1       9.855  -4.520  25.568  0.00  0.00    +0.113 C 
BRANCH  13  14
ATOM     14  N   UNL     1       9.864  -5.959  25.315  0.00  0.00    -0.326 NA
ATOM     15  H   UNL     1       9.036  -6.206  24.777  0.00  0.00    +0.119 HD
ATOM     16  H   UNL     1      10.664  -6.175  24.720  0.00  0.00    +0.119 HD
ENDBRANCH  13  14
ENDBRANCH  11  13
ENDBRANCH   6   7
BRANCH   6  17
ATOM     17  C   UNL     1       6.408  -5.544  21.264  0.00  0.00    +0.313 C 
ATOM     18  O   UNL     1       6.907  -6.498  21.851  0.00  0.00    -0.250 OA
BRANCH  17  19
ATOM     19  O   UNL     1       5.911  -5.675  20.015  0.00  0.00    -0.480 OA
ATOM     20  H   UNL     1       5.225  -6.374  19.966  0.00  0.00    +0.295 HD
ENDBRANCH  17  19
ENDBRANCH   6  17
ENDBRANCH   5   6
ENDBRANCH   1   5
BRANCH   1  21
ATOM     21  C   UNL     1       5.062  -4.691  25.274  0.00  0.00    +0.165 C 
BRANCH  21  22
ATOM     22  C   UNL     1       5.610  -5.697  26.354  0.00  0.00    +0.011 C 
ATOM     23  C   UNL     1       4.515  -6.171  27.317  0.00  0.00    +0.009 C 
ATOM     24  C   UNL     1       6.766  -5.186  27.216  0.00  0.00    +0.009 C 
ENDBRANCH  21  22
BRANCH  21  25
ATOM     25  N   UNL     1       3.974  -3.782  25.896  0.00  0.00    -0.182 NA
ATOM     26  H   UNL     1       3.712  -4.273  26.769  0.00  0.00    +0.149 HD
BRANCH  25  27
ATOM     27  S   UNL     1       4.468  -2.208  26.313  0.00  0.00    +0.030 S 
ATOM     28  O   UNL     1       5.159  -2.264  27.582  0.00  0.00    -0.158 OA
ATOM     29  O   UNL     1       3.316  -1.360  26.137  0.00  0.00    -0.158 OA
BRANCH  27  30
ATOM     30  C   UNL     1       5.696  -1.827  25.053  0.00  0.00    +0.185 C 
BRANCH  30  31
ATOM     31  C   UNL     1       6.481  -0.585  25.476  0.00  0.00    +0.029 C 
BRANCH  31  32
ATOM     32  C   UNL     1       6.135   0.657  24.653  0.00  0.00    +0.037 C 
BRANCH  32  33
ATOM     33  C   UNL     1       7.330   1.107  23.844  0.00  0.00    -0.047 A 
ATOM     34  C   UNL     1       8.560   1.352  24.469  0.00  0.00    +0.003 A 
ATOM     35  C   UNL     1       9.680   1.712  23.716  0.00  0.00    +0.000 A 
ATOM     36  C   UNL     1       9.582   1.828  22.330  0.00  0.00    +0.000 A 
ATOM     37  C   UNL     1       8.365   1.585  21.698  0.00  0.00    +0.000 A 
ATOM     38  C   UNL     1       7.244   1.225  22.450  0.00  0.00    +0.003 A 
ENDBRANCH  32  33
ENDBRANCH  31  32
ENDBRANCH  30  31
ENDBRANCH  27  30
ENDBRANCH  25  27
ENDBRANCH  21  25
ENDBRANCH   1  21
TORSDOF 16
ENDMDL
