MODEL 1
REMARK VINA RESULT:      -7.7      0.000      0.000
REMARK  Name = 
REMARK  7 active torsions:
REMARK  status: ('A' for Active; 'I' for Inactive)
REMARK    1  A    between atoms: C_1  and  C_2
REMARK    2  A    between atoms: C_2  and  C_3
REMARK    3  A    between atoms: C_2  and  N_4
REMARK    4  A    between atoms: C_5  and  C_7
REMARK    5  A    between atoms: C_7  and  C_8
REMARK    6  A    between atoms: C_14  and  C_16
REMARK    7  A    between atoms: C_20  and  N_23
REMARK                            x       y       z     vdW  Elec       q    Type
REMARK                         _______ _______ _______ _____ _____    ______ ____
ROOT
ATOM      1  C   UNL     1       7.585   1.359  22.785  0.00  0.00    +0.030 C 
ATOM      2  C   UNL     1       7.389   0.680  24.150  0.00  0.00    -0.022 A 
ATOM      3  C   UNL     1       8.353  -0.206  24.685  0.00  0.00    +0.040 A 
ATOM      4  C   UNL     1       8.209  -0.757  25.966  0.00  0.00    +0.024 A 
ATOM      5  C   UNL     1       7.040  -0.545  26.688  0.00  0.00    +0.002 A 
ATOM      6  C   UNL     1       6.003   0.178  26.111  0.00  0.00    +0.000 A 
ATOM      7  N   UNL     1       9.401  -0.695  23.876  0.00  0.00    -0.267 N 
ATOM      8  C   UNL     1       9.356  -1.911  23.146  0.00  0.00    +0.252 C 
ATOM      9  O   UNL     1      10.213  -2.170  22.303  0.00  0.00    -0.270 OA
ATOM     10  C   UNL     1      10.466   0.254  23.592  0.00  0.00    +0.114 C 
ATOM     11  C   UNL     1      10.153   1.131  22.393  0.00  0.00    +0.020 C 
ATOM     12  C   UNL     1       6.178   0.789  24.865  0.00  0.00    +0.006 A 
ATOM     13  C   UNL     1       8.963   2.060  22.630  0.00  0.00    +0.010 C 
ENDROOT
BRANCH   8  14
ATOM     14  C   UNL     1       8.255  -2.924  23.339  0.00  0.00    +0.056 A 
ATOM     15  C   UNL     1       7.055  -2.812  22.643  0.00  0.00    +0.016 A 
ATOM     16  C   UNL     1       5.998  -3.707  22.817  0.00  0.00    +0.024 A 
ATOM     17  C   UNL     1       6.124  -4.867  23.574  0.00  0.00    +0.031 A 
ATOM     18  C   UNL     1       7.352  -5.016  24.238  0.00  0.00    +0.044 A 
ATOM     19  C   UNL     1       8.400  -4.065  24.137  0.00  0.00    +0.055 A 
ATOM     20 CL   UNL     1       9.829  -4.410  25.055  0.00  0.00    -0.083 Cl
BRANCH  17  21
ATOM     21  N   UNL     1       5.100  -5.787  23.632  0.00  0.00    -0.330 N 
ATOM     22  C   UNL     1       4.996  -6.750  24.739  0.00  0.00    +0.105 C 
ATOM     23  C   UNL     1       3.527  -7.153  24.798  0.00  0.00    +0.020 C 
ATOM     24  C   UNL     1       2.806  -6.086  23.995  0.00  0.00    +0.020 C 
ATOM     25  C   UNL     1       3.823  -5.668  22.940  0.00  0.00    +0.105 C 
ENDBRANCH  17  21
ENDBRANCH   8  14
BRANCH   1  26
ATOM     26  C   UNL     1       6.479   2.375  22.382  0.00  0.00    +0.104 C 
BRANCH  26  29
ATOM     27  N   UNL     1       6.930   4.749  22.097  0.00  0.00    -0.313 N 
ATOM     28  H   UNL     1       7.246   4.482  21.173  0.00  0.00    +0.149 HD
ATOM     29  C   UNL     1       6.633   3.757  23.007  0.00  0.00    +0.214 C 
ATOM     30  O   UNL     1       6.496   3.990  24.203  0.00  0.00    -0.276 OA
BRANCH  27  32
ATOM     31  C   UNL     1       8.646   6.344  22.834  0.00  0.00    +0.027 C 
ATOM     32  C   UNL     1       7.165   6.117  22.545  0.00  0.00    +0.067 C 
ATOM     33  C   UNL     1       6.645   7.107  21.511  0.00  0.00    +0.027 C 
ENDBRANCH  27  32
ENDBRANCH  26  29
ENDBRANCH   1  26
TORSDOF 5
ENDMDL
MODEL 2
REMARK VINA RESULT:      -7.6      1.248      1.578
REMARK  Name = 
REMARK  7 active torsions:
REMARK  status: ('A' for Active; 'I' for Inactive)
REMARK    1  A    between atoms: C_1  and  C_2
REMARK    2  A    between atoms: C_2  and  C_3
REMARK    3  A    between atoms: C_2  and  N_4
REMARK    4  A    between atoms: C_5  and  C_7
REMARK    5  A    between atoms: C_7  and  C_8
REMARK    6  A    between atoms: C_14  and  C_16
REMARK    7  A    between atoms: C_20  and  N_23
REMARK                            x       y       z     vdW  Elec       q    Type
REMARK                         _______ _______ _______ _____ _____    ______ ____
ROOT
ATOM      1  C   UNL     1       7.698   1.442  23.219  0.00  0.00    +0.030 C 
ATOM      2  C   UNL     1       7.771   0.806  24.616  0.00  0.00    -0.022 A 
ATOM      3  C   UNL     1       8.866   0.005  25.013  0.00  0.00    +0.040 A 
ATOM      4  C   UNL     1       8.968  -0.504  26.316  0.00  0.00    +0.024 A 
ATOM      5  C   UNL     1       7.917  -0.339  27.212  0.00  0.00    +0.002 A 
ATOM      6  C   UNL     1       6.754   0.292  26.790  0.00  0.00    +0.000 A 
ATOM      7  N   UNL     1       9.803  -0.447  24.059  0.00  0.00    -0.267 N 
ATOM      8  C   UNL     1       9.728  -1.691  23.380  0.00  0.00    +0.252 C 
ATOM      9  O   UNL     1      10.454  -1.928  22.417  0.00  0.00    -0.270 OA
ATOM     10  C   UNL     1      10.741   0.556  23.580  0.00  0.00    +0.114 C 
ATOM     11  C   UNL     1      10.180   1.365  22.423  0.00  0.00    +0.020 C 
ATOM     12  C   UNL     1       6.685   0.864  25.515  0.00  0.00    +0.006 A 
ATOM     13  C   UNL     1       8.981   2.223  22.824  0.00  0.00    +0.010 C 
ENDROOT
BRANCH   8  14
ATOM     14  C   UNL     1       8.745  -2.764  23.777  0.00  0.00    +0.056 A 
ATOM     15  C   UNL     1       9.109  -3.769  24.669  0.00  0.00    +0.016 A 
ATOM     16  C   UNL     1       8.242  -4.800  25.036  0.00  0.00    +0.024 A 
ATOM     17  C   UNL     1       6.901  -4.809  24.666  0.00  0.00    +0.031 A 
ATOM     18  C   UNL     1       6.510  -3.768  23.810  0.00  0.00    +0.044 A 
ATOM     19  C   UNL     1       7.408  -2.766  23.360  0.00  0.00    +0.055 A 
ATOM     20 CL   UNL     1       6.747  -1.583  22.281  0.00  0.00    -0.083 Cl
BRANCH  17  21
ATOM     21  N   UNL     1       6.045  -5.779  25.140  0.00  0.00    -0.330 N 
ATOM     22  C   UNL     1       5.836  -5.979  26.582  0.00  0.00    +0.105 C 
ATOM     23  C   UNL     1       4.473  -6.650  26.712  0.00  0.00    +0.020 C 
ATOM     24  C   UNL     1       3.802  -6.415  25.371  0.00  0.00    +0.020 C 
ATOM     25  C   UNL     1       4.960  -6.387  24.380  0.00  0.00    +0.105 C 
ENDBRANCH  17  21
ENDBRANCH   8  14
BRANCH   1  26
ATOM     26  C   UNL     1       6.474   2.368  22.973  0.00  0.00    +0.104 C 
BRANCH  26  29
ATOM     27  N   UNL     1       6.910   4.711  22.483  0.00  0.00    -0.313 N 
ATOM     28  H   UNL     1       7.191   4.372  21.573  0.00  0.00    +0.149 HD
ATOM     29  C   UNL     1       6.649   3.795  23.481  0.00  0.00    +0.214 C 
ATOM     30  O   UNL     1       6.557   4.122  24.658  0.00  0.00    -0.276 OA
BRANCH  27  32
ATOM     31  C   UNL     1       8.646   6.350  23.063  0.00  0.00    +0.027 C 
ATOM     32  C   UNL     1       7.160   6.110  22.813  0.00  0.00    +0.067 C 
ATOM     33  C   UNL     1       6.632   7.015  21.707  0.00  0.00    +0.027 C 
ENDBRANCH  27  32
ENDBRANCH  26  29
ENDBRANCH   1  26
TORSDOF 5
ENDMDL
MODEL 3
REMARK VINA RESULT:      -7.3      3.180      8.543
REMARK  Name = 
REMARK  7 active torsions:
REMARK  status: ('A' for Active; 'I' for Inactive)
REMARK    1  A    between atoms: C_1  and  C_2
REMARK    2  A    between atoms: C_2  and  C_3
REMARK    3  A    between atoms: C_2  and  N_4
REMARK    4  A    between atoms: C_5  and  C_7
REMARK    5  A    between atoms: C_7  and  C_8
REMARK    6  A    between atoms: C_14  and  C_16
REMARK    7  A    between atoms: C_20  and  N_23
REMARK                            x       y       z     vdW  Elec       q    Type
REMARK                         _______ _______ _______ _____ _____    ______ ____
ROOT
ATOM      1  C   UNL     1       5.212  -5.812  25.390  0.00  0.00    +0.030 C 
ATOM      2  C   UNL     1       6.692  -5.407  25.488  0.00  0.00    -0.022 A 
ATOM      3  C   UNL     1       7.187  -4.660  26.582  0.00  0.00    +0.040 A 
ATOM      4  C   UNL     1       8.552  -4.365  26.709  0.00  0.00    +0.024 A 
ATOM      5  C   UNL     1       9.433  -4.690  25.683  0.00  0.00    +0.002 A 
ATOM      6  C   UNL     1       8.941  -5.267  24.519  0.00  0.00    +0.000 A 
ATOM      7  N   UNL     1       6.297  -4.044  27.488  0.00  0.00    -0.267 N 
ATOM      8  C   UNL     1       5.830  -2.708  27.378  0.00  0.00    +0.252 C 
ATOM      9  O   UNL     1       4.901  -2.307  28.076  0.00  0.00    -0.270 OA
ATOM     10  C   UNL     1       5.643  -4.940  28.428  0.00  0.00    +0.114 C 
ATOM     11  C   UNL     1       4.384  -5.562  27.850  0.00  0.00    +0.020 C 
ATOM     12  C   UNL     1       7.593  -5.628  24.427  0.00  0.00    +0.006 A 
ATOM     13  C   UNL     1       4.668  -6.496  26.674  0.00  0.00    +0.010 C 
ENDROOT
BRANCH   8  14
ATOM     14  C   UNL     1       6.416  -1.731  26.390  0.00  0.00    +0.056 A 
ATOM     15  C   UNL     1       7.465  -0.892  26.754  0.00  0.00    +0.016 A 
ATOM     16  C   UNL     1       8.014   0.049  25.882  0.00  0.00    +0.024 A 
ATOM     17  C   UNL     1       7.663   0.108  24.537  0.00  0.00    +0.031 A 
ATOM     18  C   UNL     1       6.642  -0.772  24.147  0.00  0.00    +0.044 A 
ATOM     19  C   UNL     1       6.017  -1.671  25.049  0.00  0.00    +0.055 A 
ATOM     20 CL   UNL     1       4.755  -2.656  24.386  0.00  0.00    -0.083 Cl
BRANCH  17  21
ATOM     21  N   UNL     1       8.306   0.972  23.677  0.00  0.00    -0.330 N 
ATOM     22  C   UNL     1       9.409   1.830  24.136  0.00  0.00    +0.105 C 
ATOM     23  C   UNL     1      10.221   2.160  22.888  0.00  0.00    +0.020 C 
ATOM     24  C   UNL     1       9.777   1.133  21.862  0.00  0.00    +0.020 C 
ATOM     25  C   UNL     1       8.323   0.855  22.225  0.00  0.00    +0.105 C 
ENDBRANCH  17  21
ENDBRANCH   8  14
BRANCH   1  26
ATOM     26  C   UNL     1       4.848  -6.709  24.174  0.00  0.00    +0.104 C 
BRANCH  26  29
ATOM     27  N   UNL     1       2.526  -6.560  23.462  0.00  0.00    -0.313 N 
ATOM     28  H   UNL     1       2.396  -7.384  24.034  0.00  0.00    +0.149 HD
ATOM     29  C   UNL     1       3.809  -6.108  23.234  0.00  0.00    +0.214 C 
ATOM     30  O   UNL     1       4.065  -5.288  22.360  0.00  0.00    -0.276 OA
BRANCH  27  32
ATOM     31  C   UNL     1       0.719  -7.323  21.982  0.00  0.00    +0.027 C 
ATOM     32  C   UNL     1       1.426  -6.124  22.608  0.00  0.00    +0.067 C 
ATOM     33  C   UNL     1       0.454  -5.260  23.401  0.00  0.00    +0.027 C 
ENDBRANCH  27  32
ENDBRANCH  26  29
ENDBRANCH   1  26
TORSDOF 5
ENDMDL
MODEL 4
REMARK VINA RESULT:      -7.0      1.851      2.339
REMARK  Name = 
REMARK  7 active torsions:
REMARK  status: ('A' for Active; 'I' for Inactive)
REMARK    1  A    between atoms: C_1  and  C_2
REMARK    2  A    between atoms: C_2  and  C_3
REMARK    3  A    between atoms: C_2  and  N_4
REMARK    4  A    between atoms: C_5  and  C_7
REMARK    5  A    between atoms: C_7  and  C_8
REMARK    6  A    between atoms: C_14  and  C_16
REMARK    7  A    between atoms: C_20  and  N_23
REMARK                            x       y       z     vdW  Elec       q    Type
REMARK                         _______ _______ _______ _____ _____    ______ ____
ROOT
ATOM      1  C   UNL     1       7.448   2.083  23.757  0.00  0.00    +0.030 C 
ATOM      2  C   UNL     1       7.857   1.169  24.923  0.00  0.00    -0.022 A 
ATOM      3  C   UNL     1       8.844   0.168  24.772  0.00  0.00    +0.040 A 
ATOM      4  C   UNL     1       9.273  -0.607  25.859  0.00  0.00    +0.024 A 
ATOM      5  C   UNL     1       8.636  -0.494  27.090  0.00  0.00    +0.002 A 
ATOM      6  C   UNL     1       7.546   0.357  27.217  0.00  0.00    +0.000 A 
ATOM      7  N   UNL     1       9.301  -0.197  23.487  0.00  0.00    -0.267 N 
ATOM      8  C   UNL     1       8.763  -1.255  22.709  0.00  0.00    +0.252 C 
ATOM      9  O   UNL     1       9.065  -1.380  21.524  0.00  0.00    -0.270 OA
ATOM     10  C   UNL     1      10.202   0.752  22.852  0.00  0.00    +0.114 C 
ATOM     11  C   UNL     1       9.455   1.847  22.110  0.00  0.00    +0.020 C 
ATOM     12  C   UNL     1       7.167   1.182  26.153  0.00  0.00    +0.006 A 
ATOM     13  C   UNL     1       8.651   2.754  23.040  0.00  0.00    +0.010 C 
ENDROOT
BRANCH   8  14
ATOM     14  C   UNL     1       7.780  -2.248  23.275  0.00  0.00    +0.056 A 
ATOM     15  C   UNL     1       6.419  -2.140  23.001  0.00  0.00    +0.016 A 
ATOM     16  C   UNL     1       5.472  -3.018  23.532  0.00  0.00    +0.024 A 
ATOM     17  C   UNL     1       5.833  -4.159  24.241  0.00  0.00    +0.031 A 
ATOM     18  C   UNL     1       7.209  -4.306  24.477  0.00  0.00    +0.044 A 
ATOM     19  C   UNL     1       8.171  -3.370  24.017  0.00  0.00    +0.055 A 
ATOM     20 CL   UNL     1       9.818  -3.708  24.434  0.00  0.00    -0.083 Cl
BRANCH  17  21
ATOM     21  N   UNL     1       4.880  -5.065  24.652  0.00  0.00    -0.330 N 
ATOM     22  C   UNL     1       4.873  -6.449  24.156  0.00  0.00    +0.105 C 
ATOM     23  C   UNL     1       4.128  -7.261  25.211  0.00  0.00    +0.020 C 
ATOM     24  C   UNL     1       4.118  -6.372  26.440  0.00  0.00    +0.020 C 
ATOM     25  C   UNL     1       4.090  -4.958  25.872  0.00  0.00    +0.105 C 
ENDBRANCH  17  21
ENDBRANCH   8  14
BRANCH   1  26
ATOM     26  C   UNL     1       6.417   3.191  24.111  0.00  0.00    +0.104 C 
BRANCH  26  29
ATOM     27  N   UNL     1       4.307   3.572  22.961  0.00  0.00    -0.313 N 
ATOM     28  H   UNL     1       4.728   4.447  22.677  0.00  0.00    +0.149 HD
ATOM     29  C   UNL     1       4.962   2.794  23.893  0.00  0.00    +0.214 C 
ATOM     30  O   UNL     1       4.408   1.867  24.472  0.00  0.00    -0.276 OA
BRANCH  27  32
ATOM     31  C   UNL     1       2.028   4.326  23.483  0.00  0.00    +0.027 C 
ATOM     32  C   UNL     1       2.892   3.356  22.681  0.00  0.00    +0.067 C 
ATOM     33  C   UNL     1       2.625   3.482  21.187  0.00  0.00    +0.027 C 
ENDBRANCH  27  32
ENDBRANCH  26  29
ENDBRANCH   1  26
TORSDOF 5
ENDMDL
MODEL 5
REMARK VINA RESULT:      -6.9      2.692      8.716
REMARK  Name = 
REMARK  7 active torsions:
REMARK  status: ('A' for Active; 'I' for Inactive)
REMARK    1  A    between atoms: C_1  and  C_2
REMARK    2  A    between atoms: C_2  and  C_3
REMARK    3  A    between atoms: C_2  and  N_4
REMARK    4  A    between atoms: C_5  and  C_7
REMARK    5  A    between atoms: C_7  and  C_8
REMARK    6  A    between atoms: C_14  and  C_16
REMARK    7  A    between atoms: C_20  and  N_23
REMARK                            x       y       z     vdW  Elec       q    Type
REMARK                         _______ _______ _______ _____ _____    ______ ____
ROOT
ATOM      1  C   UNL     1       4.880  -5.188  25.628  0.00  0.00    +0.030 C 
ATOM      2  C   UNL     1       5.629  -5.032  24.295  0.00  0.00    -0.022 A 
ATOM      3  C   UNL     1       7.020  -4.782  24.248  0.00  0.00    +0.040 A 
ATOM      4  C   UNL     1       7.712  -4.722  23.030  0.00  0.00    +0.024 A 
ATOM      5  C   UNL     1       7.015  -4.777  21.829  0.00  0.00    +0.002 A 
ATOM      6  C   UNL     1       5.627  -4.845  21.848  0.00  0.00    +0.000 A 
ATOM      7  N   UNL     1       7.719  -4.414  25.418  0.00  0.00    -0.267 N 
ATOM      8  C   UNL     1       7.957  -3.077  25.829  0.00  0.00    +0.252 C 
ATOM      9  O   UNL     1       8.384  -2.832  26.955  0.00  0.00    -0.270 OA
ATOM     10  C   UNL     1       7.970  -5.493  26.361  0.00  0.00    +0.114 C 
ATOM     11  C   UNL     1       6.804  -5.712  27.309  0.00  0.00    +0.020 C 
ATOM     12  C   UNL     1       4.945  -4.979  23.063  0.00  0.00    +0.006 A 
ATOM     13  C   UNL     1       5.544  -6.203  26.599  0.00  0.00    +0.010 C 
ENDROOT
BRANCH   8  14
ATOM     14  C   UNL     1       7.671  -1.898  24.933  0.00  0.00    +0.056 A 
ATOM     15  C   UNL     1       6.520  -1.135  25.106  0.00  0.00    +0.016 A 
ATOM     16  C   UNL     1       6.200  -0.057  24.278  0.00  0.00    +0.024 A 
ATOM     17  C   UNL     1       7.086   0.434  23.323  0.00  0.00    +0.031 A 
ATOM     18  C   UNL     1       8.275  -0.298  23.179  0.00  0.00    +0.044 A 
ATOM     19  C   UNL     1       8.567  -1.448  23.956  0.00  0.00    +0.055 A 
ATOM     20 CL   UNL     1      10.072  -2.235  23.610  0.00  0.00    -0.083 Cl
BRANCH  17  21
ATOM     21  N   UNL     1       6.787   1.570  22.602  0.00  0.00    -0.330 N 
ATOM     22  C   UNL     1       5.605   2.388  22.914  0.00  0.00    +0.105 C 
ATOM     23  C   UNL     1       5.913   3.780  22.372  0.00  0.00    +0.020 C 
ATOM     24  C   UNL     1       7.415   3.781  22.156  0.00  0.00    +0.020 C 
ATOM     25  C   UNL     1       7.739   2.334  21.805  0.00  0.00    +0.105 C 
ENDBRANCH  17  21
ENDBRANCH   8  14
BRANCH   1  26
ATOM     26  C   UNL     1       3.374  -5.552  25.506  0.00  0.00    +0.104 C 
BRANCH  26  29
ATOM     27  N   UNL     1       1.989  -6.897  24.025  0.00  0.00    -0.313 N 
ATOM     28  H   UNL     1       1.331  -6.132  24.099  0.00  0.00    +0.149 HD
ATOM     29  C   UNL     1       3.099  -6.896  24.843  0.00  0.00    +0.214 C 
ATOM     30  O   UNL     1       3.794  -7.894  24.998  0.00  0.00    -0.276 OA
BRANCH  27  32
ATOM     31  C   UNL     1       0.454  -8.810  24.162  0.00  0.00    +0.027 C 
ATOM     32  C   UNL     1       1.559  -8.124  23.363  0.00  0.00    +0.067 C 
ATOM     33  C   UNL     1       1.109  -7.825  21.939  0.00  0.00    +0.027 C 
ENDBRANCH  27  32
ENDBRANCH  26  29
ENDBRANCH   1  26
TORSDOF 5
ENDMDL
MODEL 6
REMARK VINA RESULT:      -6.8      3.020      7.566
REMARK  Name = 
REMARK  7 active torsions:
REMARK  status: ('A' for Active; 'I' for Inactive)
REMARK    1  A    between atoms: C_1  and  C_2
REMARK    2  A    between atoms: C_2  and  C_3
REMARK    3  A    between atoms: C_2  and  N_4
REMARK    4  A    between atoms: C_5  and  C_7
REMARK    5  A    between atoms: C_7  and  C_8
REMARK    6  A    between atoms: C_14  and  C_16
REMARK    7  A    between atoms: C_20  and  N_23
REMARK                            x       y       z     vdW  Elec       q    Type
REMARK                         _______ _______ _______ _____ _____    ______ ____
ROOT
ATOM      1  C   UNL     1       4.959  -4.964  25.923  0.00  0.00    +0.030 C 
ATOM      2  C   UNL     1       5.573  -4.846  24.519  0.00  0.00    -0.022 A 
ATOM      3  C   UNL     1       6.961  -4.652  24.328  0.00  0.00    +0.040 A 
ATOM      4  C   UNL     1       7.527  -4.628  23.046  0.00  0.00    +0.024 A 
ATOM      5  C   UNL     1       6.708  -4.662  21.922  0.00  0.00    +0.002 A 
ATOM      6  C   UNL     1       5.329  -4.675  22.084  0.00  0.00    +0.000 A 
ATOM      7  N   UNL     1       7.790  -4.305  25.417  0.00  0.00    -0.267 N 
ATOM      8  C   UNL     1       8.120  -2.976  25.788  0.00  0.00    +0.252 C 
ATOM      9  O   UNL     1       8.670  -2.741  26.862  0.00  0.00    -0.270 OA
ATOM     10  C   UNL     1       8.093  -5.387  26.341  0.00  0.00    +0.114 C 
ATOM     11  C   UNL     1       7.022  -5.553  27.405  0.00  0.00    +0.020 C 
ATOM     12  C   UNL     1       4.770  -4.774  23.363  0.00  0.00    +0.006 A 
ATOM     13  C   UNL     1       5.678  -5.999  26.832  0.00  0.00    +0.010 C 
ENDROOT
BRANCH   8  14
ATOM     14  C   UNL     1       7.791  -1.792  24.914  0.00  0.00    +0.056 A 
ATOM     15  C   UNL     1       6.651  -1.028  25.149  0.00  0.00    +0.016 A 
ATOM     16  C   UNL     1       6.291   0.054  24.344  0.00  0.00    +0.024 A 
ATOM     17  C   UNL     1       7.127   0.549  23.348  0.00  0.00    +0.031 A 
ATOM     18  C   UNL     1       8.306  -0.184  23.139  0.00  0.00    +0.044 A 
ATOM     19  C   UNL     1       8.636  -1.338  23.894  0.00  0.00    +0.055 A 
ATOM     20 CL   UNL     1      10.120  -2.125  23.468  0.00  0.00    -0.083 Cl
BRANCH  17  21
ATOM     21  N   UNL     1       6.794   1.688  22.648  0.00  0.00    -0.330 N 
ATOM     22  C   UNL     1       5.619   2.495  23.012  0.00  0.00    +0.105 C 
ATOM     23  C   UNL     1       5.897   3.894  22.471  0.00  0.00    +0.020 C 
ATOM     24  C   UNL     1       7.389   3.908  22.197  0.00  0.00    +0.020 C 
ATOM     25  C   UNL     1       7.709   2.466  21.823  0.00  0.00    +0.105 C 
ENDBRANCH  17  21
ENDBRANCH   8  14
BRANCH   1  26
ATOM     26  C   UNL     1       3.435  -5.268  25.959  0.00  0.00    +0.104 C 
BRANCH  26  29
ATOM     27  N   UNL     1       3.254  -3.048  26.940  0.00  0.00    -0.313 N 
ATOM     28  H   UNL     1       4.184  -3.232  27.294  0.00  0.00    +0.149 HD
ATOM     29  C   UNL     1       2.562  -4.076  26.334  0.00  0.00    +0.214 C 
ATOM     30  O   UNL     1       1.358  -4.009  26.115  0.00  0.00    -0.276 OA
BRANCH  27  32
ATOM     31  C   UNL     1       2.147  -2.016  28.875  0.00  0.00    +0.027 C 
ATOM     32  C   UNL     1       2.551  -1.860  27.412  0.00  0.00    +0.067 C 
ATOM     33  C   UNL     1       3.411  -0.621  27.203  0.00  0.00    +0.027 C 
ENDBRANCH  27  32
ENDBRANCH  26  29
ENDBRANCH   1  26
TORSDOF 5
ENDMDL
MODEL 7
REMARK VINA RESULT:      -6.8      1.635      1.876
REMARK  Name = 
REMARK  7 active torsions:
REMARK  status: ('A' for Active; 'I' for Inactive)
REMARK    1  A    between atoms: C_1  and  C_2
REMARK    2  A    between atoms: C_2  and  C_3
REMARK    3  A    between atoms: C_2  and  N_4
REMARK    4  A    between atoms: C_5  and  C_7
REMARK    5  A    between atoms: C_7  and  C_8
REMARK    6  A    between atoms: C_14  and  C_16
REMARK    7  A    between atoms: C_20  and  N_23
REMARK                            x       y       z     vdW  Elec       q    Type
REMARK                         _______ _______ _______ _____ _____    ______ ____
ROOT
ATOM      1  C   UNL     1       7.417   0.870  22.988  0.00  0.00    +0.030 C 
ATOM      2  C   UNL     1       7.741   0.365  24.403  0.00  0.00    -0.022 A 
ATOM      3  C   UNL     1       8.711  -0.639  24.631  0.00  0.00    +0.040 A 
ATOM      4  C   UNL     1       9.062  -1.036  25.929  0.00  0.00    +0.024 A 
ATOM      5  C   UNL     1       8.362  -0.540  27.023  0.00  0.00    +0.002 A 
ATOM      6  C   UNL     1       7.287   0.315  26.814  0.00  0.00    +0.000 A 
ATOM      7  N   UNL     1       9.227  -1.390  23.554  0.00  0.00    -0.267 N 
ATOM      8  C   UNL     1       8.706  -2.635  23.115  0.00  0.00    +0.252 C 
ATOM      9  O   UNL     1       9.068  -3.128  22.049  0.00  0.00    -0.270 OA
ATOM     10  C   UNL     1      10.183  -0.694  22.707  0.00  0.00    +0.114 C 
ATOM     11  C   UNL     1       9.505   0.118  21.618  0.00  0.00    +0.020 C 
ATOM     12  C   UNL     1       6.987   0.768  25.524  0.00  0.00    +0.006 A 
ATOM     13  C   UNL     1       8.673   1.275  22.169  0.00  0.00    +0.010 C 
ENDROOT
BRANCH   8  14
ATOM     14  C   UNL     1       7.670  -3.396  23.904  0.00  0.00    +0.056 A 
ATOM     15  C   UNL     1       6.312  -3.191  23.680  0.00  0.00    +0.016 A 
ATOM     16  C   UNL     1       5.321  -3.848  24.411  0.00  0.00    +0.024 A 
ATOM     17  C   UNL     1       5.614  -4.874  25.305  0.00  0.00    +0.031 A 
ATOM     18  C   UNL     1       6.982  -5.125  25.498  0.00  0.00    +0.044 A 
ATOM     19  C   UNL     1       7.998  -4.400  24.824  0.00  0.00    +0.055 A 
ATOM     20 CL   UNL     1       9.628  -4.833  25.219  0.00  0.00    -0.083 Cl
BRANCH  17  21
ATOM     21  N   UNL     1       4.606  -5.579  25.925  0.00  0.00    -0.330 N 
ATOM     22  C   UNL     1       4.888  -6.508  27.030  0.00  0.00    +0.105 C 
ATOM     23  C   UNL     1       3.586  -6.621  27.816  0.00  0.00    +0.020 C 
ATOM     24  C   UNL     1       2.760  -5.432  27.359  0.00  0.00    +0.020 C 
ATOM     25  C   UNL     1       3.195  -5.214  25.914  0.00  0.00    +0.105 C 
ENDBRANCH  17  21
ENDBRANCH   8  14
BRANCH   1  26
ATOM     26  C   UNL     1       6.396   2.040  22.917  0.00  0.00    +0.104 C 
BRANCH  26  29
ATOM     27  N   UNL     1       7.572   3.834  24.065  0.00  0.00    -0.313 N 
ATOM     28  H   UNL     1       7.325   3.330  24.907  0.00  0.00    +0.149 HD
ATOM     29  C   UNL     1       7.027   3.427  22.866  0.00  0.00    +0.214 C 
ATOM     30  O   UNL     1       7.069   4.127  21.860  0.00  0.00    -0.276 OA
BRANCH  27  32
ATOM     31  C   UNL     1       7.808   5.781  25.545  0.00  0.00    +0.027 C 
ATOM     32  C   UNL     1       8.162   5.162  24.196  0.00  0.00    +0.067 C 
ATOM     33  C   UNL     1       9.671   5.090  23.998  0.00  0.00    +0.027 C 
ENDBRANCH  27  32
ENDBRANCH  26  29
ENDBRANCH   1  26
TORSDOF 5
ENDMDL
MODEL 8
REMARK VINA RESULT:      -6.7      3.445      4.746
REMARK  Name = 
REMARK  7 active torsions:
REMARK  status: ('A' for Active; 'I' for Inactive)
REMARK    1  A    between atoms: C_1  and  C_2
REMARK    2  A    between atoms: C_2  and  C_3
REMARK    3  A    between atoms: C_2  and  N_4
REMARK    4  A    between atoms: C_5  and  C_7
REMARK    5  A    between atoms: C_7  and  C_8
REMARK    6  A    between atoms: C_14  and  C_16
REMARK    7  A    between atoms: C_20  and  N_23
REMARK                            x       y       z     vdW  Elec       q    Type
REMARK                         _______ _______ _______ _____ _____    ______ ____
ROOT
ATOM      1  C   UNL     1       8.175  -1.191  25.124  0.00  0.00    +0.030 C 
ATOM      2  C   UNL     1       8.443  -2.701  25.223  0.00  0.00    -0.022 A 
ATOM      3  C   UNL     1       8.292  -3.558  24.109  0.00  0.00    +0.040 A 
ATOM      4  C   UNL     1       8.616  -4.920  24.183  0.00  0.00    +0.024 A 
ATOM      5  C   UNL     1       8.971  -5.486  25.402  0.00  0.00    +0.002 A 
ATOM      6  C   UNL     1       8.956  -4.701  26.548  0.00  0.00    +0.000 A 
ATOM      7  N   UNL     1       7.646  -3.101  22.939  0.00  0.00    -0.267 N 
ATOM      8  C   UNL     1       6.262  -3.257  22.668  0.00  0.00    +0.252 C 
ATOM      9  O   UNL     1       5.732  -2.655  21.736  0.00  0.00    -0.270 OA
ATOM     10  C   UNL     1       8.426  -2.197  22.108  0.00  0.00    +0.114 C 
ATOM     11  C   UNL     1       8.305  -0.752  22.557  0.00  0.00    +0.020 C 
ATOM     12  C   UNL     1       8.704  -3.328  26.459  0.00  0.00    +0.006 A 
ATOM     13  C   UNL     1       8.909  -0.505  23.938  0.00  0.00    +0.010 C 
ENDROOT
BRANCH   8  14
ATOM     14  C   UNL     1       5.371  -4.131  23.515  0.00  0.00    +0.056 A 
ATOM     15  C   UNL     1       4.589  -3.581  24.526  0.00  0.00    +0.016 A 
ATOM     16  C   UNL     1       3.776  -4.358  25.355  0.00  0.00    +0.024 A 
ATOM     17  C   UNL     1       3.564  -5.714  25.128  0.00  0.00    +0.031 A 
ATOM     18  C   UNL     1       4.309  -6.267  24.074  0.00  0.00    +0.044 A 
ATOM     19  C   UNL     1       5.205  -5.502  23.283  0.00  0.00    +0.055 A 
ATOM     20 CL   UNL     1       6.058  -6.369  22.049  0.00  0.00    -0.083 Cl
BRANCH  17  21
ATOM     21  N   UNL     1       2.668  -6.426  25.894  0.00  0.00    -0.330 N 
ATOM     22  C   UNL     1       2.881  -6.627  27.336  0.00  0.00    +0.105 C 
ATOM     23  C   UNL     1       1.499  -6.894  27.923  0.00  0.00    +0.020 C 
ATOM     24  C   UNL     1       0.532  -6.419  26.854  0.00  0.00    +0.020 C 
ATOM     25  C   UNL     1       1.273  -6.671  25.547  0.00  0.00    +0.105 C 
ENDBRANCH  17  21
ENDBRANCH   8  14
BRANCH   1  26
ATOM     26  C   UNL     1       8.477  -0.376  26.413  0.00  0.00    +0.104 C 
BRANCH  26  29
ATOM     27  N   UNL     1       6.060  -0.103  26.485  0.00  0.00    -0.313 N 
ATOM     28  H   UNL     1       6.104  -0.283  25.491  0.00  0.00    +0.149 HD
ATOM     29  C   UNL     1       7.238   0.076  27.179  0.00  0.00    +0.214 C 
ATOM     30  O   UNL     1       7.263   0.546  28.311  0.00  0.00    -0.276 OA
BRANCH  27  32
ATOM     31  C   UNL     1       4.241   1.538  26.300  0.00  0.00    +0.027 C 
ATOM     32  C   UNL     1       4.791   0.333  27.058  0.00  0.00    +0.067 C 
ATOM     33  C   UNL     1       3.794  -0.817  27.068  0.00  0.00    +0.027 C 
ENDBRANCH  27  32
ENDBRANCH  26  29
ENDBRANCH   1  26
TORSDOF 5
ENDMDL
MODEL 9
REMARK VINA RESULT:      -6.7      3.211      5.254
REMARK  Name = 
REMARK  7 active torsions:
REMARK  status: ('A' for Active; 'I' for Inactive)
REMARK    1  A    between atoms: C_1  and  C_2
REMARK    2  A    between atoms: C_2  and  C_3
REMARK    3  A    between atoms: C_2  and  N_4
REMARK    4  A    between atoms: C_5  and  C_7
REMARK    5  A    between atoms: C_7  and  C_8
REMARK    6  A    between atoms: C_14  and  C_16
REMARK    7  A    between atoms: C_20  and  N_23
REMARK                            x       y       z     vdW  Elec       q    Type
REMARK                         _______ _______ _______ _____ _____    ______ ____
ROOT
ATOM      1  C   UNL     1       8.101   4.646  24.432  0.00  0.00    +0.030 C 
ATOM      2  C   UNL     1       8.639   3.564  23.482  0.00  0.00    -0.022 A 
ATOM      3  C   UNL     1       7.774   2.772  22.691  0.00  0.00    +0.040 A 
ATOM      4  C   UNL     1       8.272   1.845  21.765  0.00  0.00    +0.024 A 
ATOM      5  C   UNL     1       9.637   1.590  21.701  0.00  0.00    +0.002 A 
ATOM      6  C   UNL     1      10.493   2.227  22.590  0.00  0.00    +0.000 A 
ATOM      7  N   UNL     1       6.384   2.771  22.936  0.00  0.00    -0.267 N 
ATOM      8  C   UNL     1       5.714   1.847  23.780  0.00  0.00    +0.252 C 
ATOM      9  O   UNL     1       4.544   2.031  24.111  0.00  0.00    -0.270 OA
ATOM     10  C   UNL     1       5.669   3.956  22.488  0.00  0.00    +0.114 C 
ATOM     11  C   UNL     1       5.697   5.070  23.519  0.00  0.00    +0.020 C 
ATOM     12  C   UNL     1      10.003   3.206  23.462  0.00  0.00    +0.006 A 
ATOM     13  C   UNL     1       7.100   5.624  23.759  0.00  0.00    +0.010 C 
ENDROOT
BRANCH   8  14
ATOM     14  C   UNL     1       6.398   0.622  24.334  0.00  0.00    +0.056 A 
ATOM     15  C   UNL     1       6.443  -0.561  23.602  0.00  0.00    +0.016 A 
ATOM     16  C   UNL     1       7.037  -1.726  24.091  0.00  0.00    +0.024 A 
ATOM     17  C   UNL     1       7.767  -1.747  25.275  0.00  0.00    +0.031 A 
ATOM     18  C   UNL     1       7.773  -0.541  25.994  0.00  0.00    +0.044 A 
ATOM     19  C   UNL     1       7.097   0.623  25.547  0.00  0.00    +0.055 A 
ATOM     20 CL   UNL     1       7.194   2.004  26.589  0.00  0.00    -0.083 Cl
BRANCH  17  21
ATOM     21  N   UNL     1       8.436  -2.884  25.672  0.00  0.00    -0.330 N 
ATOM     22  C   UNL     1       7.908  -3.753  26.735  0.00  0.00    +0.105 C 
ATOM     23  C   UNL     1       8.529  -5.124  26.492  0.00  0.00    +0.020 C 
ATOM     24  C   UNL     1       9.045  -5.063  25.066  0.00  0.00    +0.020 C 
ATOM     25  C   UNL     1       9.424  -3.600  24.874  0.00  0.00    +0.105 C 
ENDBRANCH  17  21
ENDBRANCH   8  14
BRANCH   1  26
ATOM     26  C   UNL     1       9.186   5.490  25.160  0.00  0.00    +0.104 C 
BRANCH  26  29
ATOM     27  N   UNL     1       7.568   5.510  26.977  0.00  0.00    -0.313 N 
ATOM     28  H   UNL     1       6.973   5.013  26.327  0.00  0.00    +0.149 HD
ATOM     29  C   UNL     1       8.757   6.037  26.516  0.00  0.00    +0.214 C 
ATOM     30  O   UNL     1       9.398   6.859  27.161  0.00  0.00    -0.276 OA
BRANCH  27  32
ATOM     31  C   UNL     1       5.688   6.728  27.986  0.00  0.00    +0.027 C 
ATOM     32  C   UNL     1       6.992   5.975  28.234  0.00  0.00    +0.067 C 
ATOM     33  C   UNL     1       6.782   4.802  29.183  0.00  0.00    +0.027 C 
ENDBRANCH  27  32
ENDBRANCH  26  29
ENDBRANCH   1  26
TORSDOF 5
ENDMDL
