MODEL 1
REMARK VINA RESULT:      -6.1      0.000      0.000
REMARK  Name = 
REMARK  7 active torsions:
REMARK  status: ('A' for Active; 'I' for Inactive)
REMARK    1  A    between atoms: C_2  and  C_16
REMARK    2  A    between atoms: N_4  and  C_5
REMARK    3  A    between atoms: C_5  and  C_6
REMARK    4  A    between atoms: N_18  and  C_19
REMARK    5  A    between atoms: C_19  and  C_20
REMARK    6  A    between atoms: C_20  and  C_21
REMARK    7  A    between atoms: C_21  and  S_22
REMARK                            x       y       z     vdW  Elec       q    Type
REMARK                         _______ _______ _______ _____ _____    ______ ____
ROOT
ATOM      1  C   UNL     1       7.535   2.013  21.807  0.00  0.00    +0.155 C 
ATOM      2  N   UNL     1       9.024   1.989  21.627  0.00  0.00    -0.303 NA
ATOM      3  H   UNL     1       9.230   2.474  20.752  0.00  0.00    +0.123 HD
ATOM      4  C   UNL     1       9.465   0.588  21.493  0.00  0.00    +0.097 C 
ATOM      5  C   UNL     1       8.997  -0.303  22.663  0.00  0.00    +0.100 C 
ATOM      6  N   UNL     1       7.526  -0.323  22.732  0.00  0.00    -0.295 NA
ATOM      7  C   UNL     1       7.042   1.065  22.925  0.00  0.00    +0.113 C 
ENDROOT
BRANCH   1   8
ATOM      8  C   UNL     1       7.077   3.439  22.163  0.00  0.00    +0.231 C 
ATOM      9  N   UNL     1       8.114   4.311  22.428  0.00  0.00    -0.314 N 
ATOM     10  H   UNL     1       9.046   3.951  22.233  0.00  0.00    +0.149 HD
ATOM     11  O   UNL     1       5.894   3.751  22.265  0.00  0.00    -0.274 OA
BRANCH   9  12
ATOM     12  C   UNL     1       7.904   5.687  22.814  0.00  0.00    +0.105 C 
BRANCH  12  13
ATOM     13  C   UNL     1       9.181   6.368  23.314  0.00  0.00    +0.029 C 
BRANCH  13  14
ATOM     14  C   UNL     1      10.093   5.388  24.049  0.00  0.00    +0.067 C 
BRANCH  14  15
ATOM     15  S   UNL     1      11.841   5.717  23.673  0.00  0.00    -0.178 S 
ATOM     16  H   UNL     1      12.194   6.122  24.903  0.00  0.00    +0.102 HD
ENDBRANCH  14  15
ENDBRANCH  13  14
ENDBRANCH  12  13
ENDBRANCH   9  12
ENDBRANCH   1   8
BRANCH   6  17
ATOM     17  C   UNL     1       7.051  -1.235  23.784  0.00  0.00    +0.119 C 
BRANCH  17  18
ATOM     18  C   UNL     1       6.948  -2.666  23.294  0.00  0.00    -0.033 A 
ATOM     19  C   UNL     1       6.161  -2.980  22.174  0.00  0.00    +0.008 A 
ATOM     20  C   UNL     1       6.163  -4.275  21.653  0.00  0.00    +0.038 A 
ATOM     21  C   UNL     1       6.941  -5.256  22.257  0.00  0.00    +0.123 A 
ATOM     22  F   UNL     1       6.969  -6.489  21.734  0.00  0.00    -0.205 F 
ATOM     23  C   UNL     1       7.699  -4.977  23.388  0.00  0.00    +0.038 A 
ATOM     24  C   UNL     1       7.698  -3.683  23.910  0.00  0.00    +0.008 A 
ENDBRANCH  17  18
ENDBRANCH   6  17
TORSDOF 7
ENDMDL
MODEL 2
REMARK VINA RESULT:      -6.0      5.557      8.809
REMARK  Name = 
REMARK  7 active torsions:
REMARK  status: ('A' for Active; 'I' for Inactive)
REMARK    1  A    between atoms: C_2  and  C_16
REMARK    2  A    between atoms: N_4  and  C_5
REMARK    3  A    between atoms: C_5  and  C_6
REMARK    4  A    between atoms: N_18  and  C_19
REMARK    5  A    between atoms: C_19  and  C_20
REMARK    6  A    between atoms: C_20  and  C_21
REMARK    7  A    between atoms: C_21  and  S_22
REMARK                            x       y       z     vdW  Elec       q    Type
REMARK                         _______ _______ _______ _____ _____    ______ ____
ROOT
ATOM      1  C   UNL     1       6.440  -3.625  23.849  0.00  0.00    +0.155 C 
ATOM      2  N   UNL     1       7.021  -4.663  24.763  0.00  0.00    -0.303 NA
ATOM      3  H   UNL     1       6.332  -4.840  25.497  0.00  0.00    +0.123 HD
ATOM      4  C   UNL     1       8.237  -4.116  25.394  0.00  0.00    +0.097 C 
ATOM      5  C   UNL     1       9.263  -3.592  24.367  0.00  0.00    +0.100 C 
ATOM      6  N   UNL     1       8.672  -2.507  23.565  0.00  0.00    -0.295 NA
ATOM      7  C   UNL     1       7.476  -3.033  22.865  0.00  0.00    +0.113 C 
ENDROOT
BRANCH   1   8
ATOM      8  C   UNL     1       5.299  -4.242  23.019  0.00  0.00    +0.231 C 
ATOM      9  N   UNL     1       4.575  -5.205  23.692  0.00  0.00    -0.314 N 
ATOM     10  H   UNL     1       4.791  -5.301  24.682  0.00  0.00    +0.149 HD
ATOM     11  O   UNL     1       5.098  -3.947  21.845  0.00  0.00    -0.274 OA
BRANCH   9  12
ATOM     12  C   UNL     1       3.484  -5.933  23.086  0.00  0.00    +0.105 C 
BRANCH  12  13
ATOM     13  C   UNL     1       2.117  -5.304  23.370  0.00  0.00    +0.029 C 
BRANCH  13  14
ATOM     14  C   UNL     1       1.000  -6.015  22.609  0.00  0.00    +0.067 C 
BRANCH  14  15
ATOM     15  S   UNL     1       1.242  -7.816  22.627  0.00  0.00    -0.178 S 
ATOM     16  H   UNL     1       2.155  -7.844  23.610  0.00  0.00    +0.102 HD
ENDBRANCH  14  15
ENDBRANCH  13  14
ENDBRANCH  12  13
ENDBRANCH   9  12
ENDBRANCH   1   8
BRANCH   6  17
ATOM     17  C   UNL     1       9.657  -1.930  22.637  0.00  0.00    +0.119 C 
BRANCH  17  18
ATOM     18  C   UNL     1       9.873  -0.450  22.882  0.00  0.00    -0.033 A 
ATOM     19  C   UNL     1      10.303   0.008  24.138  0.00  0.00    +0.008 A 
ATOM     20  C   UNL     1      10.617   1.355  24.326  0.00  0.00    +0.038 A 
ATOM     21  C   UNL     1      10.491   2.244  23.265  0.00  0.00    +0.123 A 
ATOM     22  F   UNL     1      10.826   3.529  23.439  0.00  0.00    -0.205 F 
ATOM     23  C   UNL     1      10.032   1.819  22.024  0.00  0.00    +0.038 A 
ATOM     24  C   UNL     1       9.718   0.473  21.833  0.00  0.00    +0.008 A 
ENDBRANCH  17  18
ENDBRANCH   6  17
TORSDOF 7
ENDMDL
MODEL 3
REMARK VINA RESULT:      -5.9      6.075      9.389
REMARK  Name = 
REMARK  7 active torsions:
REMARK  status: ('A' for Active; 'I' for Inactive)
REMARK    1  A    between atoms: C_2  and  C_16
REMARK    2  A    between atoms: N_4  and  C_5
REMARK    3  A    between atoms: C_5  and  C_6
REMARK    4  A    between atoms: N_18  and  C_19
REMARK    5  A    between atoms: C_19  and  C_20
REMARK    6  A    between atoms: C_20  and  C_21
REMARK    7  A    between atoms: C_21  and  S_22
REMARK                            x       y       z     vdW  Elec       q    Type
REMARK                         _______ _______ _______ _____ _____    ______ ____
ROOT
ATOM      1  C   UNL     1       6.656  -5.182  26.079  0.00  0.00    +0.155 C 
ATOM      2  N   UNL     1       7.979  -5.632  26.627  0.00  0.00    -0.303 NA
ATOM      3  H   UNL     1       7.895  -5.646  27.645  0.00  0.00    +0.123 HD
ATOM      4  C   UNL     1       9.009  -4.642  26.261  0.00  0.00    +0.097 C 
ATOM      5  C   UNL     1       9.061  -4.363  24.744  0.00  0.00    +0.100 C 
ATOM      6  N   UNL     1       7.770  -3.829  24.279  0.00  0.00    -0.295 NA
ATOM      7  C   UNL     1       6.711  -4.824  24.576  0.00  0.00    +0.113 C 
ENDROOT
BRANCH   1   8
ATOM      8  C   UNL     1       5.611  -6.298  26.260  0.00  0.00    +0.231 C 
ATOM      9  N   UNL     1       4.785  -6.474  25.168  0.00  0.00    -0.314 N 
ATOM     10  H   UNL     1       5.044  -5.946  24.337  0.00  0.00    +0.149 HD
ATOM     11  O   UNL     1       5.484  -6.925  27.307  0.00  0.00    -0.274 OA
BRANCH   9  12
ATOM     12  C   UNL     1       3.716  -7.444  25.140  0.00  0.00    +0.105 C 
BRANCH  12  13
ATOM     13  C   UNL     1       2.604  -7.079  24.153  0.00  0.00    +0.029 C 
BRANCH  13  14
ATOM     14  C   UNL     1       1.757  -8.293  23.782  0.00  0.00    +0.067 C 
BRANCH  14  15
ATOM     15  S   UNL     1       1.001  -8.085  22.142  0.00  0.00    -0.178 S 
ATOM     16  H   UNL     1       1.318  -6.791  21.984  0.00  0.00    +0.102 HD
ENDBRANCH  14  15
ENDBRANCH  13  14
ENDBRANCH  12  13
ENDBRANCH   9  12
ENDBRANCH   1   8
BRANCH   6  17
ATOM     17  C   UNL     1       7.820  -3.472  22.853  0.00  0.00    +0.119 C 
BRANCH  17  18
ATOM     18  C   UNL     1       8.151  -2.007  22.643  0.00  0.00    -0.033 A 
ATOM     19  C   UNL     1       9.305  -1.632  21.936  0.00  0.00    +0.008 A 
ATOM     20  C   UNL     1       9.544  -0.290  21.640  0.00  0.00    +0.038 A 
ATOM     21  C   UNL     1       8.637   0.677  22.058  0.00  0.00    +0.123 A 
ATOM     22  F   UNL     1       8.851   1.961  21.742  0.00  0.00    -0.205 F 
ATOM     23  C   UNL     1       7.507   0.333  22.790  0.00  0.00    +0.038 A 
ATOM     24  C   UNL     1       7.266  -1.009  23.087  0.00  0.00    +0.008 A 
ENDBRANCH  17  18
ENDBRANCH   6  17
TORSDOF 7
ENDMDL
MODEL 4
REMARK VINA RESULT:      -5.9      5.315      8.460
REMARK  Name = 
REMARK  7 active torsions:
REMARK  status: ('A' for Active; 'I' for Inactive)
REMARK    1  A    between atoms: C_2  and  C_16
REMARK    2  A    between atoms: N_4  and  C_5
REMARK    3  A    between atoms: C_5  and  C_6
REMARK    4  A    between atoms: N_18  and  C_19
REMARK    5  A    between atoms: C_19  and  C_20
REMARK    6  A    between atoms: C_20  and  C_21
REMARK    7  A    between atoms: C_21  and  S_22
REMARK                            x       y       z     vdW  Elec       q    Type
REMARK                         _______ _______ _______ _____ _____    ______ ____
ROOT
ATOM      1  C   UNL     1       6.486  -3.226  24.012  0.00  0.00    +0.155 C 
ATOM      2  N   UNL     1       6.969  -4.344  24.889  0.00  0.00    -0.303 NA
ATOM      3  H   UNL     1       6.287  -4.452  25.642  0.00  0.00    +0.123 HD
ATOM      4  C   UNL     1       8.260  -3.958  25.487  0.00  0.00    +0.097 C 
ATOM      5  C   UNL     1       9.308  -3.538  24.434  0.00  0.00    +0.100 C 
ATOM      6  N   UNL     1       8.826  -2.375  23.670  0.00  0.00    -0.295 NA
ATOM      7  C   UNL     1       7.553  -2.741  23.003  0.00  0.00    +0.113 C 
ENDROOT
BRANCH   1   8
ATOM      8  C   UNL     1       5.255  -3.686  23.211  0.00  0.00    +0.231 C 
ATOM      9  N   UNL     1       4.288  -4.306  23.977  0.00  0.00    -0.314 N 
ATOM     10  H   UNL     1       4.440  -4.269  24.984  0.00  0.00    +0.149 HD
ATOM     11  O   UNL     1       5.174  -3.569  21.992  0.00  0.00    -0.274 OA
BRANCH   9  12
ATOM     12  C   UNL     1       3.069  -4.843  23.420  0.00  0.00    +0.105 C 
BRANCH  12  13
ATOM     13  C   UNL     1       3.079  -6.371  23.324  0.00  0.00    +0.029 C 
BRANCH  13  14
ATOM     14  C   UNL     1       3.876  -7.003  24.463  0.00  0.00    +0.067 C 
BRANCH  14  15
ATOM     15  S   UNL     1       2.875  -7.121  25.975  0.00  0.00    -0.178 S 
ATOM     16  H   UNL     1       3.840  -6.761  26.834  0.00  0.00    +0.102 HD
ENDBRANCH  14  15
ENDBRANCH  13  14
ENDBRANCH  12  13
ENDBRANCH   9  12
ENDBRANCH   1   8
BRANCH   6  17
ATOM     17  C   UNL     1       9.842  -1.900  22.719  0.00  0.00    +0.119 C 
BRANCH  17  18
ATOM     18  C   UNL     1      10.094  -0.410  22.849  0.00  0.00    -0.033 A 
ATOM     19  C   UNL     1       9.780   0.459  21.792  0.00  0.00    +0.008 A 
ATOM     20  C   UNL     1       9.899   1.840  21.958  0.00  0.00    +0.038 A 
ATOM     21  C   UNL     1      10.340   2.350  23.174  0.00  0.00    +0.123 A 
ATOM     22  F   UNL     1      10.420   3.676  23.342  0.00  0.00    -0.205 F 
ATOM     23  C   UNL     1      10.690   1.506  24.221  0.00  0.00    +0.038 A 
ATOM     24  C   UNL     1      10.572   0.126  24.057  0.00  0.00    +0.008 A 
ENDBRANCH  17  18
ENDBRANCH   6  17
TORSDOF 7
ENDMDL
MODEL 5
REMARK VINA RESULT:      -5.8      4.839      8.515
REMARK  Name = 
REMARK  7 active torsions:
REMARK  status: ('A' for Active; 'I' for Inactive)
REMARK    1  A    between atoms: C_2  and  C_16
REMARK    2  A    between atoms: N_4  and  C_5
REMARK    3  A    between atoms: C_5  and  C_6
REMARK    4  A    between atoms: N_18  and  C_19
REMARK    5  A    between atoms: C_19  and  C_20
REMARK    6  A    between atoms: C_20  and  C_21
REMARK    7  A    between atoms: C_21  and  S_22
REMARK                            x       y       z     vdW  Elec       q    Type
REMARK                         _______ _______ _______ _____ _____    ______ ____
ROOT
ATOM      1  C   UNL     1       9.492  -1.365  23.626  0.00  0.00    +0.155 C 
ATOM      2  N   UNL     1       9.177  -1.707  22.200  0.00  0.00    -0.303 NA
ATOM      3  H   UNL     1       9.789  -2.480  21.932  0.00  0.00    +0.123 HD
ATOM      4  C   UNL     1       9.499  -0.546  21.349  0.00  0.00    +0.097 C 
ATOM      5  C   UNL     1       8.803   0.751  21.813  0.00  0.00    +0.100 C 
ATOM      6  N   UNL     1       9.225   1.094  23.182  0.00  0.00    -0.295 NA
ATOM      7  C   UNL     1       8.865  -0.027  24.084  0.00  0.00    +0.113 C 
ENDROOT
BRANCH   1   8
ATOM      8  C   UNL     1       8.966  -2.473  24.556  0.00  0.00    +0.231 C 
ATOM      9  N   UNL     1       8.705  -3.667  23.913  0.00  0.00    -0.314 N 
ATOM     10  H   UNL     1       9.009  -3.714  22.942  0.00  0.00    +0.149 HD
ATOM     11  O   UNL     1       8.739  -2.288  25.748  0.00  0.00    -0.274 OA
BRANCH   9  12
ATOM     12  C   UNL     1       8.174  -4.825  24.592  0.00  0.00    +0.105 C 
BRANCH  12  13
ATOM     13  C   UNL     1       6.651  -4.939  24.478  0.00  0.00    +0.029 C 
BRANCH  13  14
ATOM     14  C   UNL     1       6.175  -4.717  23.044  0.00  0.00    +0.067 C 
BRANCH  14  15
ATOM     15  S   UNL     1       6.760  -6.045  21.950  0.00  0.00    -0.178 S 
ATOM     16  H   UNL     1       8.071  -5.862  22.165  0.00  0.00    +0.102 HD
ENDBRANCH  14  15
ENDBRANCH  13  14
ENDBRANCH  12  13
ENDBRANCH   9  12
ENDBRANCH   1   8
BRANCH   6  17
ATOM     17  C   UNL     1       8.644   2.373  23.617  0.00  0.00    +0.119 C 
BRANCH  17  18
ATOM     18  C   UNL     1       9.693   3.461  23.746  0.00  0.00    -0.033 A 
ATOM     19  C   UNL     1      11.018   3.223  23.349  0.00  0.00    +0.008 A 
ATOM     20  C   UNL     1      11.952   4.260  23.355  0.00  0.00    +0.038 A 
ATOM     21  C   UNL     1      11.564   5.530  23.768  0.00  0.00    +0.123 A 
ATOM     22  F   UNL     1      12.454   6.532  23.739  0.00  0.00    -0.205 F 
ATOM     23  C   UNL     1      10.267   5.780  24.199  0.00  0.00    +0.038 A 
ATOM     24  C   UNL     1       9.332   4.744  24.193  0.00  0.00    +0.008 A 
ENDBRANCH  17  18
ENDBRANCH   6  17
TORSDOF 7
ENDMDL
MODEL 6
REMARK VINA RESULT:      -5.7      2.632      3.006
REMARK  Name = 
REMARK  7 active torsions:
REMARK  status: ('A' for Active; 'I' for Inactive)
REMARK    1  A    between atoms: C_2  and  C_16
REMARK    2  A    between atoms: N_4  and  C_5
REMARK    3  A    between atoms: C_5  and  C_6
REMARK    4  A    between atoms: N_18  and  C_19
REMARK    5  A    between atoms: C_19  and  C_20
REMARK    6  A    between atoms: C_20  and  C_21
REMARK    7  A    between atoms: C_21  and  S_22
REMARK                            x       y       z     vdW  Elec       q    Type
REMARK                         _______ _______ _______ _____ _____    ______ ____
ROOT
ATOM      1  C   UNL     1       9.665   2.443  23.063  0.00  0.00    +0.155 C 
ATOM      2  N   UNL     1       9.852   2.064  21.624  0.00  0.00    -0.303 NA
ATOM      3  H   UNL     1       9.358   2.761  21.062  0.00  0.00    +0.123 HD
ATOM      4  C   UNL     1       9.222   0.752  21.390  0.00  0.00    +0.097 C 
ATOM      5  C   UNL     1       9.728  -0.338  22.358  0.00  0.00    +0.100 C 
ATOM      6  N   UNL     1       9.430   0.037  23.750  0.00  0.00    -0.295 NA
ATOM      7  C   UNL     1      10.096   1.329  24.046  0.00  0.00    +0.113 C 
ENDROOT
BRANCH   1   8
ATOM      8  C   UNL     1      10.495   3.700  23.383  0.00  0.00    +0.231 C 
ATOM      9  N   UNL     1       9.743   4.852  23.503  0.00  0.00    -0.314 N 
ATOM     10  H   UNL     1       8.734   4.716  23.497  0.00  0.00    +0.149 HD
ATOM     11  O   UNL     1      11.720   3.686  23.458  0.00  0.00    -0.274 OA
BRANCH   9  12
ATOM     12  C   UNL     1      10.326   6.146  23.767  0.00  0.00    +0.105 C 
BRANCH  12  13
ATOM     13  C   UNL     1       9.804   6.785  25.056  0.00  0.00    +0.029 C 
BRANCH  13  14
ATOM     14  C   UNL     1       8.788   5.887  25.760  0.00  0.00    +0.067 C 
BRANCH  14  15
ATOM     15  S   UNL     1       7.108   6.568  25.619  0.00  0.00    -0.178 S 
ATOM     16  H   UNL     1       7.434   7.847  25.863  0.00  0.00    +0.102 HD
ENDBRANCH  14  15
ENDBRANCH  13  14
ENDBRANCH  12  13
ENDBRANCH   9  12
ENDBRANCH   1   8
BRANCH   6  17
ATOM     17  C   UNL     1       9.823  -1.025  24.688  0.00  0.00    +0.119 C 
BRANCH  17  18
ATOM     18  C   UNL     1       8.899  -2.225  24.612  0.00  0.00    -0.033 A 
ATOM     19  C   UNL     1       9.423  -3.517  24.450  0.00  0.00    +0.008 A 
ATOM     20  C   UNL     1       8.582  -4.629  24.502  0.00  0.00    +0.038 A 
ATOM     21  C   UNL     1       7.218  -4.449  24.704  0.00  0.00    +0.123 A 
ATOM     22  F   UNL     1       6.418  -5.520  24.788  0.00  0.00    -0.205 F 
ATOM     23  C   UNL     1       6.673  -3.177  24.830  0.00  0.00    +0.038 A 
ATOM     24  C   UNL     1       7.513  -2.064  24.779  0.00  0.00    +0.008 A 
ENDBRANCH  17  18
ENDBRANCH   6  17
TORSDOF 7
ENDMDL
MODEL 7
REMARK VINA RESULT:      -5.7      5.675      8.955
REMARK  Name = 
REMARK  7 active torsions:
REMARK  status: ('A' for Active; 'I' for Inactive)
REMARK    1  A    between atoms: C_2  and  C_16
REMARK    2  A    between atoms: N_4  and  C_5
REMARK    3  A    between atoms: C_5  and  C_6
REMARK    4  A    between atoms: N_18  and  C_19
REMARK    5  A    between atoms: C_19  and  C_20
REMARK    6  A    between atoms: C_20  and  C_21
REMARK    7  A    between atoms: C_21  and  S_22
REMARK                            x       y       z     vdW  Elec       q    Type
REMARK                         _______ _______ _______ _____ _____    ______ ____
ROOT
ATOM      1  C   UNL     1       7.809  -4.630  26.858  0.00  0.00    +0.155 C 
ATOM      2  N   UNL     1       8.737  -5.677  26.315  0.00  0.00    -0.303 NA
ATOM      3  H   UNL     1       9.176  -6.136  27.116  0.00  0.00    +0.123 HD
ATOM      4  C   UNL     1       9.793  -5.016  25.526  0.00  0.00    +0.097 C 
ATOM      5  C   UNL     1       9.230  -4.095  24.423  0.00  0.00    +0.100 C 
ATOM      6  N   UNL     1       8.409  -3.027  25.019  0.00  0.00    -0.295 NA
ATOM      7  C   UNL     1       7.298  -3.651  25.776  0.00  0.00    +0.113 C 
ENDROOT
BRANCH   1   8
ATOM      8  C   UNL     1       6.584  -5.303  27.502  0.00  0.00    +0.231 C 
ATOM      9  N   UNL     1       5.933  -6.194  26.672  0.00  0.00    -0.314 N 
ATOM     10  H   UNL     1       6.407  -6.396  25.794  0.00  0.00    +0.149 HD
ATOM     11  O   UNL     1       6.187  -5.022  28.629  0.00  0.00    -0.274 OA
BRANCH   9  12
ATOM     12  C   UNL     1       4.742  -6.908  27.066  0.00  0.00    +0.105 C 
BRANCH  12  13
ATOM     13  C   UNL     1       3.550  -6.638  26.143  0.00  0.00    +0.029 C 
BRANCH  13  14
ATOM     14  C   UNL     1       3.817  -5.461  25.207  0.00  0.00    +0.067 C 
BRANCH  14  15
ATOM     15  S   UNL     1       3.228  -5.818  23.525  0.00  0.00    -0.178 S 
ATOM     16  H   UNL     1       2.637  -4.633  23.309  0.00  0.00    +0.102 HD
ENDBRANCH  14  15
ENDBRANCH  13  14
ENDBRANCH  12  13
ENDBRANCH   9  12
ENDBRANCH   1   8
BRANCH   6  17
ATOM     17  C   UNL     1       7.932  -2.084  23.996  0.00  0.00    +0.119 C 
BRANCH  17  18
ATOM     18  C   UNL     1       8.749  -0.806  23.973  0.00  0.00    -0.033 A 
ATOM     19  C   UNL     1       9.581  -0.473  25.054  0.00  0.00    +0.008 A 
ATOM     20  C   UNL     1      10.422   0.638  24.979  0.00  0.00    +0.038 A 
ATOM     21  C   UNL     1      10.423   1.421  23.830  0.00  0.00    +0.123 A 
ATOM     22  F   UNL     1      11.257   2.466  23.747  0.00  0.00    -0.205 F 
ATOM     23  C   UNL     1       9.582   1.131  22.763  0.00  0.00    +0.038 A 
ATOM     24  C   UNL     1       8.741   0.020  22.836  0.00  0.00    +0.008 A 
ENDBRANCH  17  18
ENDBRANCH   6  17
TORSDOF 7
ENDMDL
MODEL 8
REMARK VINA RESULT:      -5.6      4.588      8.150
REMARK  Name = 
REMARK  7 active torsions:
REMARK  status: ('A' for Active; 'I' for Inactive)
REMARK    1  A    between atoms: C_2  and  C_16
REMARK    2  A    between atoms: N_4  and  C_5
REMARK    3  A    between atoms: C_5  and  C_6
REMARK    4  A    between atoms: N_18  and  C_19
REMARK    5  A    between atoms: C_19  and  C_20
REMARK    6  A    between atoms: C_20  and  C_21
REMARK    7  A    between atoms: C_21  and  S_22
REMARK                            x       y       z     vdW  Elec       q    Type
REMARK                         _______ _______ _______ _____ _____    ______ ____
ROOT
ATOM      1  C   UNL     1       9.472  -1.774  23.348  0.00  0.00    +0.155 C 
ATOM      2  N   UNL     1       9.722  -1.670  21.872  0.00  0.00    -0.303 NA
ATOM      3  H   UNL     1      10.616  -2.127  21.684  0.00  0.00    +0.123 HD
ATOM      4  C   UNL     1       9.843  -0.247  21.507  0.00  0.00    +0.097 C 
ATOM      5  C   UNL     1       8.633   0.596  21.963  0.00  0.00    +0.100 C 
ATOM      6  N   UNL     1       8.495   0.539  23.428  0.00  0.00    -0.295 NA
ATOM      7  C   UNL     1       8.311  -0.875  23.833  0.00  0.00    +0.113 C 
ENDROOT
BRANCH   1   8
ATOM      8  C   UNL     1       9.129  -3.228  23.717  0.00  0.00    +0.231 C 
ATOM      9  N   UNL     1       7.942  -3.679  23.174  0.00  0.00    -0.314 N 
ATOM     10  H   UNL     1       7.507  -3.054  22.498  0.00  0.00    +0.149 HD
ATOM     11  O   UNL     1       9.816  -3.900  24.480  0.00  0.00    -0.274 OA
BRANCH   9  12
ATOM     12  C   UNL     1       7.417  -5.001  23.421  0.00  0.00    +0.105 C 
BRANCH  12  13
ATOM     13  C   UNL     1       6.242  -5.003  24.403  0.00  0.00    +0.029 C 
BRANCH  13  14
ATOM     14  C   UNL     1       6.700  -5.286  25.832  0.00  0.00    +0.067 C 
BRANCH  14  15
ATOM     15  S   UNL     1       6.848  -3.746  26.787  0.00  0.00    -0.178 S 
ATOM     16  H   UNL     1       7.517  -3.046  25.857  0.00  0.00    +0.102 HD
ENDBRANCH  14  15
ENDBRANCH  13  14
ENDBRANCH  12  13
ENDBRANCH   9  12
ENDBRANCH   1   8
BRANCH   6  17
ATOM     17  C   UNL     1       7.401   1.404  23.896  0.00  0.00    +0.119 C 
BRANCH  17  18
ATOM     18  C   UNL     1       7.751   2.876  23.788  0.00  0.00    -0.033 A 
ATOM     19  C   UNL     1       8.844   3.401  24.497  0.00  0.00    +0.008 A 
ATOM     20  C   UNL     1       9.238   4.726  24.302  0.00  0.00    +0.038 A 
ATOM     21  C   UNL     1       8.533   5.527  23.410  0.00  0.00    +0.123 A 
ATOM     22  F   UNL     1       8.935   6.788  23.199  0.00  0.00    -0.205 F 
ATOM     23  C   UNL     1       7.427   5.039  22.727  0.00  0.00    +0.038 A 
ATOM     24  C   UNL     1       7.032   3.714  22.919  0.00  0.00    +0.008 A 
ENDBRANCH  17  18
ENDBRANCH   6  17
TORSDOF 7
ENDMDL
MODEL 9
REMARK VINA RESULT:      -5.5      4.960      8.379
REMARK  Name = 
REMARK  7 active torsions:
REMARK  status: ('A' for Active; 'I' for Inactive)
REMARK    1  A    between atoms: C_2  and  C_16
REMARK    2  A    between atoms: N_4  and  C_5
REMARK    3  A    between atoms: C_5  and  C_6
REMARK    4  A    between atoms: N_18  and  C_19
REMARK    5  A    between atoms: C_19  and  C_20
REMARK    6  A    between atoms: C_20  and  C_21
REMARK    7  A    between atoms: C_21  and  S_22
REMARK                            x       y       z     vdW  Elec       q    Type
REMARK                         _______ _______ _______ _____ _____    ______ ____
ROOT
ATOM      1  C   UNL     1       8.185  -2.700  24.556  0.00  0.00    +0.155 C 
ATOM      2  N   UNL     1       8.517  -2.704  26.019  0.00  0.00    -0.303 NA
ATOM      3  H   UNL     1       7.763  -3.200  26.498  0.00  0.00    +0.123 HD
ATOM      4  C   UNL     1       8.537  -1.313  26.508  0.00  0.00    +0.097 C 
ATOM      5  C   UNL     1       9.479  -0.403  25.690  0.00  0.00    +0.100 C 
ATOM      6  N   UNL     1       9.049  -0.356  24.283  0.00  0.00    -0.295 NA
ATOM      7  C   UNL     1       9.070  -1.734  23.735  0.00  0.00    +0.113 C 
ENDROOT
BRANCH   1   8
ATOM      8  C   UNL     1       8.368  -4.114  23.977  0.00  0.00    +0.231 C 
ATOM      9  N   UNL     1       7.455  -4.440  22.994  0.00  0.00    -0.314 N 
ATOM     10  H   UNL     1       6.862  -3.674  22.680  0.00  0.00    +0.149 HD
ATOM     11  O   UNL     1       9.209  -4.902  24.400  0.00  0.00    -0.274 OA
BRANCH   9  12
ATOM     12  C   UNL     1       7.428  -5.729  22.343  0.00  0.00    +0.105 C 
BRANCH  12  13
ATOM     13  C   UNL     1       6.029  -6.129  21.868  0.00  0.00    +0.029 C 
BRANCH  13  14
ATOM     14  C   UNL     1       4.940  -5.532  22.757  0.00  0.00    +0.067 C 
BRANCH  14  15
ATOM     15  S   UNL     1       4.588  -6.615  24.174  0.00  0.00    -0.178 S 
ATOM     16  H   UNL     1       3.280  -6.781  23.927  0.00  0.00    +0.102 HD
ENDBRANCH  14  15
ENDBRANCH  13  14
ENDBRANCH  12  13
ENDBRANCH   9  12
ENDBRANCH   1   8
BRANCH   6  17
ATOM     17  C   UNL     1       9.878   0.573  23.500  0.00  0.00    +0.119 C 
BRANCH  17  18
ATOM     18  C   UNL     1       9.103   1.803  23.067  0.00  0.00    -0.033 A 
ATOM     19  C   UNL     1       8.107   1.706  22.083  0.00  0.00    +0.008 A 
ATOM     20  C   UNL     1       7.314   2.812  21.773  0.00  0.00    +0.038 A 
ATOM     21  C   UNL     1       7.524   4.015  22.438  0.00  0.00    +0.123 A 
ATOM     22  F   UNL     1       6.738   5.064  22.164  0.00  0.00    -0.205 F 
ATOM     23  C   UNL     1       8.528   4.143  23.390  0.00  0.00    +0.038 A 
ATOM     24  C   UNL     1       9.321   3.038  23.701  0.00  0.00    +0.008 A 
ENDBRANCH  17  18
ENDBRANCH   6  17
TORSDOF 7
ENDMDL
