MODEL 1
REMARK VINA RESULT:      -6.5      0.000      0.000
REMARK  Name = 
REMARK  30 active torsions:
REMARK  status: ('A' for Active; 'I' for Inactive)
REMARK    1  A    between atoms: O_1  and  C_2
REMARK    2  A    between atoms: C_2  and  C_3
REMARK    3  A    between atoms: C_6  and  S_8
REMARK    4  A    between atoms: S_8  and  C_9
REMARK    5  A    between atoms: C_11  and  O_13
REMARK    6  A    between atoms: C_14  and  O_16
REMARK    7  A    between atoms: C_17  and  O_19
REMARK    8  A    between atoms: O_19  and  C_20
REMARK    9  A    between atoms: C_22  and  O_24
REMARK   10  A    between atoms: C_25  and  O_27
REMARK   11  A    between atoms: C_28  and  S_35
REMARK   12  A    between atoms: C_31  and  C_33
REMARK   13  A    between atoms: C_33  and  O_34
REMARK   14  A    between atoms: S_35  and  C_36
REMARK   15  A    between atoms: C_38  and  O_40
REMARK   16  A    between atoms: C_41  and  O_43
REMARK   17  A    between atoms: C_44  and  O_46
REMARK   18  A    between atoms: O_46  and  C_47
REMARK   19  A    between atoms: C_49  and  O_51
REMARK   20  A    between atoms: C_52  and  O_54
REMARK   21  A    between atoms: C_55  and  S_57
REMARK   22  A    between atoms: C_59  and  C_61
REMARK   23  A    between atoms: C_61  and  O_62
REMARK   24  A    between atoms: C_64  and  C_66
REMARK   25  A    between atoms: C_66  and  O_67
REMARK   26  A    between atoms: C_69  and  C_71
REMARK   27  A    between atoms: C_71  and  O_72
REMARK   28  A    between atoms: C_73  and  O_75
REMARK   29  A    between atoms: C_76  and  O_78
REMARK   30  A    between atoms: C_79  and  O_81
REMARK                            x       y       z     vdW  Elec       q    Type
REMARK                         _______ _______ _______ _____ _____    ______ ____
ROOT
ATOM      1  C   UNL     1       7.174  -3.922  23.585  0.00  0.00    +0.183 C 
ATOM      2  C   UNL     1       8.506  -3.797  24.355  0.00  0.00    +0.176 C 
ATOM      3  O   UNL     1       8.509  -2.661  25.213  0.00  0.00    -0.355 OA
ATOM      4  C   UNL     1       8.268  -1.421  24.550  0.00  0.00    +0.207 C 
ATOM      5  C   UNL     1       6.973  -1.400  23.709  0.00  0.00    +0.184 C 
ATOM      6  C   UNL     1       6.908  -2.628  22.792  0.00  0.00    +0.178 C 
ENDROOT
BRANCH   5   7
ATOM      7  O   UNL     1       5.800  -1.340  24.529  0.00  0.00    -0.386 OA
ATOM      8  H   UNL     1       6.000  -1.695  25.412  0.00  0.00    +0.210 HD
ENDBRANCH   5   7
BRANCH   6   9
ATOM      9  O   UNL     1       7.817  -2.526  21.685  0.00  0.00    -0.386 OA
ATOM     10  H   UNL     1       8.642  -2.101  21.975  0.00  0.00    +0.210 HD
ENDBRANCH   6   9
BRANCH   4  11
ATOM     11  S   UNL     1       9.701  -0.918  23.513  0.00  0.00    -0.118 S 
BRANCH  11  12
ATOM     12  C   UNL     1       9.991   0.793  24.178  0.00  0.00    +0.111 C 
ATOM     13  C   UNL     1       8.730   1.341  24.871  0.00  0.00    +0.162 C 
ATOM     14  O   UNL     1       7.650   1.412  23.932  0.00  0.00    -0.342 OA
ATOM     15  C   UNL     1       7.902   2.249  22.793  0.00  0.00    +0.282 C 
ATOM     16  C   UNL     1       9.221   1.932  22.051  0.00  0.00    +0.200 C 
ATOM     17  C   UNL     1      10.369   1.775  23.059  0.00  0.00    +0.163 C 
BRANCH  16  18
ATOM     18  O   UNL     1       9.063   0.780  21.213  0.00  0.00    -0.384 OA
ATOM     19  H   UNL     1       9.952   0.422  21.016  0.00  0.00    +0.210 HD
ENDBRANCH  16  18
BRANCH  17  20
ATOM     20  O   UNL     1      10.787   3.008  23.653  0.00  0.00    -0.388 OA
ATOM     21  H   UNL     1      11.611   2.872  24.159  0.00  0.00    +0.210 HD
ENDBRANCH  17  20
BRANCH  13  22
ATOM     22  C   UNL     1       8.286   0.501  26.077  0.00  0.00    +0.188 C 
BRANCH  22  23
ATOM     23  O   UNL     1       6.989   0.919  26.504  0.00  0.00    -0.392 OA
ATOM     24  H   UNL     1       6.523   0.104  26.778  0.00  0.00    +0.210 HD
ENDBRANCH  22  23
ENDBRANCH  13  22
BRANCH  15  25
ATOM     25  O   UNL     1       7.834   3.624  23.182  0.00  0.00    -0.340 OA
BRANCH  25  26
ATOM     26  C   UNL     1       6.815   4.387  22.492  0.00  0.00    +0.183 C 
ATOM     27  C   UNL     1       6.959   5.875  22.899  0.00  0.00    +0.176 C 
ATOM     28  O   UNL     1       6.570   6.106  24.260  0.00  0.00    -0.356 OA
ATOM     29  C   UNL     1       5.245   5.668  24.605  0.00  0.00    +0.204 C 
ATOM     30  C   UNL     1       5.062   4.174  24.288  0.00  0.00    +0.184 C 
ATOM     31  C   UNL     1       5.394   3.876  22.819  0.00  0.00    +0.178 C 
BRANCH  29  32
ATOM     32  S   UNL     1       3.944   6.716  23.870  0.00  0.00    -0.145 S 
ATOM     33  H   UNL     1       4.772   7.622  23.323  0.00  0.00    +0.104 HD
ENDBRANCH  29  32
BRANCH  30  34
ATOM     34  O   UNL     1       5.916   3.403  25.155  0.00  0.00    -0.386 OA
ATOM     35  H   UNL     1       6.404   2.755  24.597  0.00  0.00    +0.210 HD
ENDBRANCH  30  34
BRANCH  31  36
ATOM     36  O   UNL     1       4.433   4.392  21.892  0.00  0.00    -0.386 OA
ATOM     37  H   UNL     1       4.478   5.365  21.884  0.00  0.00    +0.210 HD
ENDBRANCH  31  36
BRANCH  27  38
ATOM     38  C   UNL     1       8.404   6.375  22.730  0.00  0.00    +0.190 C 
BRANCH  38  39
ATOM     39  O   UNL     1       9.249   5.817  23.730  0.00  0.00    -0.392 OA
ATOM     40  H   UNL     1       9.962   5.336  23.270  0.00  0.00    +0.210 HD
ENDBRANCH  38  39
ENDBRANCH  27  38
ENDBRANCH  25  26
ENDBRANCH  15  25
ENDBRANCH  11  12
ENDBRANCH   4  11
BRANCH   2  41
ATOM     41  C   UNL     1       8.847  -5.038  25.180  0.00  0.00    +0.190 C 
BRANCH  41  42
ATOM     42  O   UNL     1      10.199  -5.399  24.927  0.00  0.00    -0.392 OA
ATOM     43  H   UNL     1      10.447  -5.025  24.062  0.00  0.00    +0.210 HD
ENDBRANCH  41  42
ENDBRANCH   2  41
BRANCH   1  44
ATOM     44  O   UNL     1       6.122  -4.267  24.510  0.00  0.00    -0.340 OA
BRANCH  44  48
ATOM     45  C   UNL     1       2.914  -5.247  25.946  0.00  0.00    +0.111 C 
ATOM     46  C   UNL     1       3.705  -3.939  26.154  0.00  0.00    +0.162 C 
ATOM     47  O   UNL     1       3.998  -3.311  24.890  0.00  0.00    -0.342 OA
ATOM     48  C   UNL     1       4.790  -4.121  23.999  0.00  0.00    +0.282 C 
ATOM     49  C   UNL     1       4.126  -5.496  23.726  0.00  0.00    +0.200 C 
ATOM     50  C   UNL     1       3.762  -6.175  25.057  0.00  0.00    +0.163 C 
BRANCH  50  51
ATOM     51  O   UNL     1       4.899  -6.625  25.799  0.00  0.00    -0.388 OA
ATOM     52  H   UNL     1       5.191  -7.505  25.474  0.00  0.00    +0.210 HD
ENDBRANCH  50  51
BRANCH  49  53
ATOM     53  O   UNL     1       2.986  -5.362  22.866  0.00  0.00    -0.384 OA
ATOM     54  H   UNL     1       3.277  -4.847  22.084  0.00  0.00    +0.210 HD
ENDBRANCH  49  53
BRANCH  46  55
ATOM     55  C   UNL     1       2.962  -2.933  27.052  0.00  0.00    +0.188 C 
BRANCH  55  56
ATOM     56  O   UNL     1       2.759  -1.708  26.345  0.00  0.00    -0.392 OA
ATOM     57  H   UNL     1       2.118  -1.205  26.881  0.00  0.00    +0.210 HD
ENDBRANCH  55  56
ENDBRANCH  46  55
BRANCH  45  58
ATOM     58  S   UNL     1       1.251  -4.891  25.189  0.00  0.00    -0.118 S 
BRANCH  58  63
ATOM     59  C   UNL     1       0.515  -8.533  23.797  0.00  0.00    +0.176 C 
ATOM     60  C   UNL     1       1.064  -9.409  24.931  0.00  0.00    +0.176 C 
ATOM     61  C   UNL     1       0.632  -8.818  26.280  0.00  0.00    +0.177 C 
ATOM     62  C   UNL     1       1.072  -7.356  26.404  0.00  0.00    +0.184 C 
ATOM     63  C   UNL     1       0.565  -6.580  25.176  0.00  0.00    +0.207 C 
ATOM     64  O   UNL     1       0.961  -7.184  23.959  0.00  0.00    -0.355 OA
BRANCH  62  65
ATOM     65  O   UNL     1       0.572  -6.859  27.659  0.00  0.00    -0.386 OA
ATOM     66  H   UNL     1       1.306  -6.461  28.163  0.00  0.00    +0.210 HD
ENDBRANCH  62  65
BRANCH  61  67
ATOM     67  O   UNL     1       1.183  -9.583  27.363  0.00  0.00    -0.386 OA
ATOM     68  H   UNL     1       1.411 -10.457  26.990  0.00  0.00    +0.210 HD
ENDBRANCH  61  67
BRANCH  60  69
ATOM     69  O   UNL     1       0.577 -10.744  24.768  0.00  0.00    -0.386 OA
ATOM     70  H   UNL     1       1.284 -11.274  24.361  0.00  0.00    +0.210 HD
ENDBRANCH  60  69
BRANCH  59  71
ATOM     71  C   UNL     1       1.004  -9.019  22.426  0.00  0.00    +0.190 C 
BRANCH  71  72
ATOM     72  O   UNL     1       1.775  -7.990  21.800  0.00  0.00    -0.392 OA
ATOM     73  H   UNL     1       2.622  -7.948  22.276  0.00  0.00    +0.210 HD
ENDBRANCH  71  72
ENDBRANCH  59  71
ENDBRANCH  58  63
ENDBRANCH  45  58
ENDBRANCH  44  48
ENDBRANCH   1  44
TORSDOF 30
ENDMDL
MODEL 2
REMARK VINA RESULT:      -6.4      2.392     10.087
REMARK  Name = 
REMARK  30 active torsions:
REMARK  status: ('A' for Active; 'I' for Inactive)
REMARK    1  A    between atoms: O_1  and  C_2
REMARK    2  A    between atoms: C_2  and  C_3
REMARK    3  A    between atoms: C_6  and  S_8
REMARK    4  A    between atoms: S_8  and  C_9
REMARK    5  A    between atoms: C_11  and  O_13
REMARK    6  A    between atoms: C_14  and  O_16
REMARK    7  A    between atoms: C_17  and  O_19
REMARK    8  A    between atoms: O_19  and  C_20
REMARK    9  A    between atoms: C_22  and  O_24
REMARK   10  A    between atoms: C_25  and  O_27
REMARK   11  A    between atoms: C_28  and  S_35
REMARK   12  A    between atoms: C_31  and  C_33
REMARK   13  A    between atoms: C_33  and  O_34
REMARK   14  A    between atoms: S_35  and  C_36
REMARK   15  A    between atoms: C_38  and  O_40
REMARK   16  A    between atoms: C_41  and  O_43
REMARK   17  A    between atoms: C_44  and  O_46
REMARK   18  A    between atoms: O_46  and  C_47
REMARK   19  A    between atoms: C_49  and  O_51
REMARK   20  A    between atoms: C_52  and  O_54
REMARK   21  A    between atoms: C_55  and  S_57
REMARK   22  A    between atoms: C_59  and  C_61
REMARK   23  A    between atoms: C_61  and  O_62
REMARK   24  A    between atoms: C_64  and  C_66
REMARK   25  A    between atoms: C_66  and  O_67
REMARK   26  A    between atoms: C_69  and  C_71
REMARK   27  A    between atoms: C_71  and  O_72
REMARK   28  A    between atoms: C_73  and  O_75
REMARK   29  A    between atoms: C_76  and  O_78
REMARK   30  A    between atoms: C_79  and  O_81
REMARK                            x       y       z     vdW  Elec       q    Type
REMARK                         _______ _______ _______ _____ _____    ______ ____
ROOT
ATOM      1  C   UNL     1       8.237  -0.002  23.829  0.00  0.00    +0.183 C 
ATOM      2  C   UNL     1       8.423  -1.199  24.784  0.00  0.00    +0.176 C 
ATOM      3  O   UNL     1       9.380  -2.126  24.280  0.00  0.00    -0.355 OA
ATOM      4  C   UNL     1       9.076  -2.642  22.985  0.00  0.00    +0.207 C 
ATOM      5  C   UNL     1       8.832  -1.553  21.917  0.00  0.00    +0.184 C 
ATOM      6  C   UNL     1       7.833  -0.510  22.431  0.00  0.00    +0.178 C 
ENDROOT
BRANCH   5   7
ATOM      7  O   UNL     1      10.048  -0.910  21.519  0.00  0.00    -0.386 OA
ATOM      8  H   UNL     1      10.448  -1.396  20.778  0.00  0.00    +0.210 HD
ENDBRANCH   5   7
BRANCH   6   9
ATOM      9  O   UNL     1       6.488  -1.012  22.453  0.00  0.00    -0.386 OA
ATOM     10  H   UNL     1       6.499  -1.976  22.579  0.00  0.00    +0.210 HD
ENDBRANCH   6   9
BRANCH   4  11
ATOM     11  S   UNL     1       7.650  -3.803  23.037  0.00  0.00    -0.118 S 
BRANCH  11  12
ATOM     12  C   UNL     1       6.963  -3.391  24.714  0.00  0.00    +0.111 C 
ATOM     13  C   UNL     1       6.902  -4.639  25.611  0.00  0.00    +0.162 C 
ATOM     14  O   UNL     1       6.049  -5.626  25.018  0.00  0.00    -0.342 OA
ATOM     15  C   UNL     1       4.696  -5.195  24.804  0.00  0.00    +0.282 C 
ATOM     16  C   UNL     1       4.569  -3.860  24.033  0.00  0.00    +0.200 C 
ATOM     17  C   UNL     1       5.540  -2.821  24.614  0.00  0.00    +0.163 C 
BRANCH  16  18
ATOM     18  O   UNL     1       4.762  -4.069  22.628  0.00  0.00    -0.384 OA
ATOM     19  H   UNL     1       4.008  -4.596  22.293  0.00  0.00    +0.210 HD
ENDBRANCH  16  18
BRANCH  17  20
ATOM     20  O   UNL     1       5.154  -2.326  25.899  0.00  0.00    -0.388 OA
ATOM     21  H   UNL     1       5.013  -3.071  26.515  0.00  0.00    +0.210 HD
ENDBRANCH  17  20
BRANCH  13  22
ATOM     22  C   UNL     1       8.279  -5.267  25.874  0.00  0.00    +0.188 C 
BRANCH  22  23
ATOM     23  O   UNL     1       8.320  -5.803  27.197  0.00  0.00    -0.392 OA
ATOM     24  H   UNL     1       7.720  -5.244  27.729  0.00  0.00    +0.210 HD
ENDBRANCH  22  23
ENDBRANCH  13  22
BRANCH  15  25
ATOM     25  O   UNL     1       4.002  -5.149  26.054  0.00  0.00    -0.340 OA
BRANCH  25  26
ATOM     26  C   UNL     1       4.070  -6.378  26.817  0.00  0.00    +0.183 C 
ATOM     27  C   UNL     1       2.634  -6.767  27.248  0.00  0.00    +0.176 C 
ATOM     28  O   UNL     1       2.107  -5.879  28.245  0.00  0.00    -0.356 OA
ATOM     29  C   UNL     1       2.912  -5.734  29.426  0.00  0.00    +0.204 C 
ATOM     30  C   UNL     1       4.336  -5.280  29.067  0.00  0.00    +0.184 C 
ATOM     31  C   UNL     1       4.983  -6.236  28.055  0.00  0.00    +0.178 C 
BRANCH  29  32
ATOM     32  S   UNL     1       2.884  -7.222  30.483  0.00  0.00    -0.145 S 
ATOM     33  H   UNL     1       3.786  -7.924  29.777  0.00  0.00    +0.104 HD
ENDBRANCH  29  32
BRANCH  30  34
ATOM     34  O   UNL     1       4.281  -3.947  28.522  0.00  0.00    -0.386 OA
ATOM     35  H   UNL     1       4.145  -3.322  29.271  0.00  0.00    +0.210 HD
ENDBRANCH  30  34
BRANCH  31  36
ATOM     36  O   UNL     1       5.317  -7.517  28.600  0.00  0.00    -0.386 OA
ATOM     37  H   UNL     1       5.388  -8.170  27.880  0.00  0.00    +0.210 HD
ENDBRANCH  31  36
BRANCH  27  38
ATOM     38  C   UNL     1       1.661  -6.768  26.056  0.00  0.00    +0.190 C 
BRANCH  38  39
ATOM     39  O   UNL     1       1.128  -5.466  25.841  0.00  0.00    -0.392 OA
ATOM     40  H   UNL     1       0.805  -5.434  24.921  0.00  0.00    +0.210 HD
ENDBRANCH  38  39
ENDBRANCH  27  38
ENDBRANCH  25  26
ENDBRANCH  15  25
ENDBRANCH  11  12
ENDBRANCH   4  11
BRANCH   2  41
ATOM     41  C   UNL     1       8.835  -0.788  26.198  0.00  0.00    +0.190 C 
BRANCH  41  42
ATOM     42  O   UNL     1       7.677  -0.368  26.908  0.00  0.00    -0.392 OA
ATOM     43  H   UNL     1       7.561   0.587  26.746  0.00  0.00    +0.210 HD
ENDBRANCH  41  42
ENDBRANCH   2  41
BRANCH   1  44
ATOM     44  O   UNL     1       9.434   0.802  23.834  0.00  0.00    -0.340 OA
BRANCH  44  48
ATOM     45  C   UNL     1       7.041   3.485  23.212  0.00  0.00    +0.111 C 
ATOM     46  C   UNL     1       6.906   2.271  24.154  0.00  0.00    +0.162 C 
ATOM     47  O   UNL     1       8.011   2.214  25.078  0.00  0.00    -0.342 OA
ATOM     48  C   UNL     1       9.301   2.090  24.447  0.00  0.00    +0.282 C 
ATOM     49  C   UNL     1       9.560   3.238  23.436  0.00  0.00    +0.200 C 
ATOM     50  C   UNL     1       8.378   3.352  22.460  0.00  0.00    +0.163 C 
BRANCH  50  51
ATOM     51  O   UNL     1       8.290   2.263  21.537  0.00  0.00    -0.388 OA
ATOM     52  H   UNL     1       9.010   1.615  21.706  0.00  0.00    +0.210 HD
ENDBRANCH  50  51
BRANCH  49  53
ATOM     53  O   UNL     1       9.818   4.478  24.110  0.00  0.00    -0.384 OA
ATOM     54  H   UNL     1      10.733   4.746  23.875  0.00  0.00    +0.210 HD
ENDBRANCH  49  53
BRANCH  46  55
ATOM     55  C   UNL     1       5.588   2.281  24.950  0.00  0.00    +0.188 C 
BRANCH  55  56
ATOM     56  O   UNL     1       4.510   1.864  24.110  0.00  0.00    -0.392 OA
ATOM     57  H   UNL     1       3.746   2.404  24.385  0.00  0.00    +0.210 HD
ENDBRANCH  55  56
ENDBRANCH  46  55
BRANCH  45  58
ATOM     58  S   UNL     1       6.943   5.073  24.177  0.00  0.00    -0.118 S 
BRANCH  58  63
ATOM     59  C   UNL     1       3.406   4.867  22.392  0.00  0.00    +0.176 C 
ATOM     60  C   UNL     1       2.453   5.030  23.583  0.00  0.00    +0.176 C 
ATOM     61  C   UNL     1       2.975   6.147  24.498  0.00  0.00    +0.177 C 
ATOM     62  C   UNL     1       4.417   5.868  24.935  0.00  0.00    +0.184 C 
ATOM     63  C   UNL     1       5.275   5.616  23.682  0.00  0.00    +0.207 C 
ATOM     64  O   UNL     1       4.732   4.602  22.856  0.00  0.00    -0.355 OA
BRANCH  62  65
ATOM     65  O   UNL     1       4.852   6.987  25.728  0.00  0.00    -0.386 OA
ATOM     66  H   UNL     1       4.447   6.931  26.614  0.00  0.00    +0.210 HD
ENDBRANCH  62  65
BRANCH  61  67
ATOM     67  O   UNL     1       2.136   6.282  25.655  0.00  0.00    -0.386 OA
ATOM     68  H   UNL     1       2.462   7.067  26.137  0.00  0.00    +0.210 HD
ENDBRANCH  61  67
BRANCH  60  69
ATOM     69  O   UNL     1       1.141   5.328  23.095  0.00  0.00    -0.386 OA
ATOM     70  H   UNL     1       1.220   5.586  22.160  0.00  0.00    +0.210 HD
ENDBRANCH  60  69
BRANCH  59  71
ATOM     71  C   UNL     1       2.988   3.693  21.497  0.00  0.00    +0.190 C 
BRANCH  71  72
ATOM     72  O   UNL     1       2.417   2.657  22.301  0.00  0.00    -0.392 OA
ATOM     73  H   UNL     1       2.499   2.946  23.226  0.00  0.00    +0.210 HD
ENDBRANCH  71  72
ENDBRANCH  59  71
ENDBRANCH  58  63
ENDBRANCH  45  58
ENDBRANCH  44  48
ENDBRANCH   1  44
TORSDOF 30
ENDMDL
MODEL 3
REMARK VINA RESULT:      -6.3      2.088     10.736
REMARK  Name = 
REMARK  30 active torsions:
REMARK  status: ('A' for Active; 'I' for Inactive)
REMARK    1  A    between atoms: O_1  and  C_2
REMARK    2  A    between atoms: C_2  and  C_3
REMARK    3  A    between atoms: C_6  and  S_8
REMARK    4  A    between atoms: S_8  and  C_9
REMARK    5  A    between atoms: C_11  and  O_13
REMARK    6  A    between atoms: C_14  and  O_16
REMARK    7  A    between atoms: C_17  and  O_19
REMARK    8  A    between atoms: O_19  and  C_20
REMARK    9  A    between atoms: C_22  and  O_24
REMARK   10  A    between atoms: C_25  and  O_27
REMARK   11  A    between atoms: C_28  and  S_35
REMARK   12  A    between atoms: C_31  and  C_33
REMARK   13  A    between atoms: C_33  and  O_34
REMARK   14  A    between atoms: S_35  and  C_36
REMARK   15  A    between atoms: C_38  and  O_40
REMARK   16  A    between atoms: C_41  and  O_43
REMARK   17  A    between atoms: C_44  and  O_46
REMARK   18  A    between atoms: O_46  and  C_47
REMARK   19  A    between atoms: C_49  and  O_51
REMARK   20  A    between atoms: C_52  and  O_54
REMARK   21  A    between atoms: C_55  and  S_57
REMARK   22  A    between atoms: C_59  and  C_61
REMARK   23  A    between atoms: C_61  and  O_62
REMARK   24  A    between atoms: C_64  and  C_66
REMARK   25  A    between atoms: C_66  and  O_67
REMARK   26  A    between atoms: C_69  and  C_71
REMARK   27  A    between atoms: C_71  and  O_72
REMARK   28  A    between atoms: C_73  and  O_75
REMARK   29  A    between atoms: C_76  and  O_78
REMARK   30  A    between atoms: C_79  and  O_81
REMARK                            x       y       z     vdW  Elec       q    Type
REMARK                         _______ _______ _______ _____ _____    ______ ____
ROOT
ATOM      1  C   UNL     1       7.641  -0.309  23.228  0.00  0.00    +0.183 C 
ATOM      2  C   UNL     1       7.377  -1.036  24.564  0.00  0.00    +0.176 C 
ATOM      3  O   UNL     1       8.581  -1.546  25.128  0.00  0.00    -0.355 OA
ATOM      4  C   UNL     1       9.298  -2.439  24.279  0.00  0.00    +0.207 C 
ATOM      5  C   UNL     1       9.615  -1.860  22.883  0.00  0.00    +0.184 C 
ATOM      6  C   UNL     1       8.352  -1.265  22.249  0.00  0.00    +0.178 C 
ENDROOT
BRANCH   5   7
ATOM      7  O   UNL     1      10.648  -0.870  22.933  0.00  0.00    -0.386 OA
ATOM      8  H   UNL     1      11.518  -1.302  22.878  0.00  0.00    +0.210 HD
ENDBRANCH   5   7
BRANCH   6   9
ATOM      9  O   UNL     1       7.443  -2.279  21.796  0.00  0.00    -0.386 OA
ATOM     10  H   UNL     1       6.754  -1.879  21.238  0.00  0.00    +0.210 HD
ENDBRANCH   6   9
BRANCH   4  11
ATOM     11  S   UNL     1       8.433  -4.054  24.109  0.00  0.00    -0.118 S 
BRANCH  11  12
ATOM     12  C   UNL     1       6.797  -3.621  24.876  0.00  0.00    +0.111 C 
ATOM     13  C   UNL     1       6.405  -4.639  25.961  0.00  0.00    +0.162 C 
ATOM     14  O   UNL     1       6.288  -5.946  25.384  0.00  0.00    -0.342 OA
ATOM     15  C   UNL     1       5.311  -6.051  24.337  0.00  0.00    +0.282 C 
ATOM     16  C   UNL     1       5.466  -4.995  23.217  0.00  0.00    +0.200 C 
ATOM     17  C   UNL     1       5.672  -3.602  23.830  0.00  0.00    +0.163 C 
BRANCH  16  18
ATOM     18  O   UNL     1       6.520  -5.364  22.319  0.00  0.00    -0.384 OA
ATOM     19  H   UNL     1       6.263  -6.196  21.872  0.00  0.00    +0.210 HD
ENDBRANCH  16  18
BRANCH  17  20
ATOM     20  O   UNL     1       4.495  -3.057  24.432  0.00  0.00    -0.388 OA
ATOM     21  H   UNL     1       4.649  -2.125  24.682  0.00  0.00    +0.210 HD
ENDBRANCH  17  20
BRANCH  13  22
ATOM     22  C   UNL     1       7.403  -4.699  27.128  0.00  0.00    +0.188 C 
BRANCH  22  23
ATOM     23  O   UNL     1       7.939  -6.017  27.235  0.00  0.00    -0.392 OA
ATOM     24  H   UNL     1       7.676  -6.341  28.120  0.00  0.00    +0.210 HD
ENDBRANCH  22  23
ENDBRANCH  13  22
BRANCH  15  25
ATOM     25  O   UNL     1       3.996  -6.033  24.900  0.00  0.00    -0.340 OA
BRANCH  25  26
ATOM     26  C   UNL     1       3.762  -7.057  25.896  0.00  0.00    +0.183 C 
ATOM     27  C   UNL     1       2.405  -7.738  25.587  0.00  0.00    +0.176 C 
ATOM     28  O   UNL     1       1.291  -6.872  25.849  0.00  0.00    -0.356 OA
ATOM     29  C   UNL     1       1.234  -6.327  27.177  0.00  0.00    +0.204 C 
ATOM     30  C   UNL     1       2.532  -5.576  27.518  0.00  0.00    +0.184 C 
ATOM     31  C   UNL     1       3.760  -6.478  27.328  0.00  0.00    +0.178 C 
BRANCH  29  32
ATOM     32  S   UNL     1       0.784  -7.576  28.431  0.00  0.00    -0.145 S 
ATOM     33  H   UNL     1       1.500  -7.043  29.436  0.00  0.00    +0.104 HD
ENDBRANCH  29  32
BRANCH  30  34
ATOM     34  O   UNL     1       2.636  -4.413  26.673  0.00  0.00    -0.386 OA
ATOM     35  H   UNL     1       3.094  -4.684  25.845  0.00  0.00    +0.210 HD
ENDBRANCH  30  34
BRANCH  31  36
ATOM     36  O   UNL     1       3.872  -7.517  28.306  0.00  0.00    -0.386 OA
ATOM     37  H   UNL     1       4.688  -8.026  28.149  0.00  0.00    +0.210 HD
ENDBRANCH  31  36
BRANCH  27  38
ATOM     38  C   UNL     1       2.316  -8.192  24.120  0.00  0.00    +0.190 C 
BRANCH  38  39
ATOM     39  O   UNL     1       1.941  -7.106  23.280  0.00  0.00    -0.392 OA
ATOM     40  H   UNL     1       2.701  -6.496  23.240  0.00  0.00    +0.210 HD
ENDBRANCH  38  39
ENDBRANCH  27  38
ENDBRANCH  25  26
ENDBRANCH  15  25
ENDBRANCH  11  12
ENDBRANCH   4  11
BRANCH   2  41
ATOM     41  C   UNL     1       6.681  -0.157  25.603  0.00  0.00    +0.190 C 
BRANCH  41  42
ATOM     42  O   UNL     1       7.667   0.428  26.444  0.00  0.00    -0.392 OA
ATOM     43  H   UNL     1       8.523   0.366  25.982  0.00  0.00    +0.210 HD
ENDBRANCH  41  42
ENDBRANCH   2  41
BRANCH   1  44
ATOM     44  O   UNL     1       8.369   0.909  23.485  0.00  0.00    -0.340 OA
BRANCH  44  48
ATOM     45  C   UNL     1       8.031   4.508  23.982  0.00  0.00    +0.111 C 
ATOM     46  C   UNL     1       9.316   3.678  23.782  0.00  0.00    +0.162 C 
ATOM     47  O   UNL     1       9.241   2.901  22.569  0.00  0.00    -0.342 OA
ATOM     48  C   UNL     1       8.148   1.962  22.539  0.00  0.00    +0.282 C 
ATOM     49  C   UNL     1       6.781   2.661  22.765  0.00  0.00    +0.200 C 
ATOM     50  C   UNL     1       6.842   3.532  24.030  0.00  0.00    +0.163 C 
BRANCH  50  51
ATOM     51  O   UNL     1       6.904   2.776  25.243  0.00  0.00    -0.388 OA
ATOM     52  H   UNL     1       6.282   3.147  25.907  0.00  0.00    +0.210 HD
ENDBRANCH  50  51
BRANCH  49  53
ATOM     53  O   UNL     1       6.387   3.419  21.613  0.00  0.00    -0.384 OA
ATOM     54  H   UNL     1       6.126   2.774  20.921  0.00  0.00    +0.210 HD
ENDBRANCH  49  53
BRANCH  46  55
ATOM     55  C   UNL     1      10.585   4.550  23.740  0.00  0.00    +0.188 C 
BRANCH  55  56
ATOM     56  O   UNL     1      11.602   3.889  22.984  0.00  0.00    -0.392 OA
ATOM     57  H   UNL     1      12.446   4.219  23.346  0.00  0.00    +0.210 HD
ENDBRANCH  55  56
ENDBRANCH  46  55
BRANCH  45  58
ATOM     58  S   UNL     1       7.845   5.762  22.618  0.00  0.00    -0.118 S 
BRANCH  58  63
ATOM     59  C   UNL     1       3.945   6.476  22.765  0.00  0.00    +0.176 C 
ATOM     60  C   UNL     1       3.650   6.254  24.254  0.00  0.00    +0.176 C 
ATOM     61  C   UNL     1       4.754   6.914  25.092  0.00  0.00    +0.177 C 
ATOM     62  C   UNL     1       6.136   6.394  24.684  0.00  0.00    +0.184 C 
ATOM     63  C   UNL     1       6.302   6.564  23.164  0.00  0.00    +0.207 C 
ATOM     64  O   UNL     1       5.241   5.967  22.439  0.00  0.00    -0.355 OA
BRANCH  62  65
ATOM     65  O   UNL     1       7.114   7.108  25.462  0.00  0.00    -0.386 OA
ATOM     66  H   UNL     1       7.226   6.664  26.324  0.00  0.00    +0.210 HD
ENDBRANCH  62  65
BRANCH  61  67
ATOM     67  O   UNL     1       4.538   6.670  26.490  0.00  0.00    -0.386 OA
ATOM     68  H   UNL     1       5.041   7.359  26.967  0.00  0.00    +0.210 HD
ENDBRANCH  61  67
BRANCH  60  69
ATOM     69  O   UNL     1       2.365   6.801  24.563  0.00  0.00    -0.386 OA
ATOM     70  H   UNL     1       2.442   7.771  24.554  0.00  0.00    +0.210 HD
ENDBRANCH  60  69
BRANCH  59  71
ATOM     71  C   UNL     1       2.927   5.747  21.877  0.00  0.00    +0.190 C 
BRANCH  71  72
ATOM     72  O   UNL     1       3.445   4.466  21.507  0.00  0.00    -0.392 OA
ATOM     73  H   UNL     1       3.368   3.897  22.292  0.00  0.00    +0.210 HD
ENDBRANCH  71  72
ENDBRANCH  59  71
ENDBRANCH  58  63
ENDBRANCH  45  58
ENDBRANCH  44  48
ENDBRANCH   1  44
TORSDOF 30
ENDMDL
MODEL 4
REMARK VINA RESULT:      -6.2      0.826      1.669
REMARK  Name = 
REMARK  30 active torsions:
REMARK  status: ('A' for Active; 'I' for Inactive)
REMARK    1  A    between atoms: O_1  and  C_2
REMARK    2  A    between atoms: C_2  and  C_3
REMARK    3  A    between atoms: C_6  and  S_8
REMARK    4  A    between atoms: S_8  and  C_9
REMARK    5  A    between atoms: C_11  and  O_13
REMARK    6  A    between atoms: C_14  and  O_16
REMARK    7  A    between atoms: C_17  and  O_19
REMARK    8  A    between atoms: O_19  and  C_20
REMARK    9  A    between atoms: C_22  and  O_24
REMARK   10  A    between atoms: C_25  and  O_27
REMARK   11  A    between atoms: C_28  and  S_35
REMARK   12  A    between atoms: C_31  and  C_33
REMARK   13  A    between atoms: C_33  and  O_34
REMARK   14  A    between atoms: S_35  and  C_36
REMARK   15  A    between atoms: C_38  and  O_40
REMARK   16  A    between atoms: C_41  and  O_43
REMARK   17  A    between atoms: C_44  and  O_46
REMARK   18  A    between atoms: O_46  and  C_47
REMARK   19  A    between atoms: C_49  and  O_51
REMARK   20  A    between atoms: C_52  and  O_54
REMARK   21  A    between atoms: C_55  and  S_57
REMARK   22  A    between atoms: C_59  and  C_61
REMARK   23  A    between atoms: C_61  and  O_62
REMARK   24  A    between atoms: C_64  and  C_66
REMARK   25  A    between atoms: C_66  and  O_67
REMARK   26  A    between atoms: C_69  and  C_71
REMARK   27  A    between atoms: C_71  and  O_72
REMARK   28  A    between atoms: C_73  and  O_75
REMARK   29  A    between atoms: C_76  and  O_78
REMARK   30  A    between atoms: C_79  and  O_81
REMARK                            x       y       z     vdW  Elec       q    Type
REMARK                         _______ _______ _______ _____ _____    ______ ____
ROOT
ATOM      1  C   UNL     1       7.265  -3.931  23.623  0.00  0.00    +0.183 C 
ATOM      2  C   UNL     1       8.600  -3.764  24.379  0.00  0.00    +0.176 C 
ATOM      3  O   UNL     1       8.627  -2.553  25.128  0.00  0.00    -0.355 OA
ATOM      4  C   UNL     1       8.413  -1.375  24.354  0.00  0.00    +0.207 C 
ATOM      5  C   UNL     1       7.119  -1.405  23.512  0.00  0.00    +0.184 C 
ATOM      6  C   UNL     1       7.027  -2.710  22.713  0.00  0.00    +0.178 C 
ENDROOT
BRANCH   5   7
ATOM      7  O   UNL     1       5.947  -1.244  24.321  0.00  0.00    -0.386 OA
ATOM      8  H   UNL     1       5.242  -0.830  23.795  0.00  0.00    +0.210 HD
ENDBRANCH   5   7
BRANCH   6   9
ATOM      9  O   UNL     1       7.937  -2.731  21.602  0.00  0.00    -0.386 OA
ATOM     10  H   UNL     1       8.220  -1.824  21.392  0.00  0.00    +0.210 HD
ENDBRANCH   6   9
BRANCH   4  11
ATOM     11  S   UNL     1       9.856  -1.000  23.276  0.00  0.00    -0.118 S 
BRANCH  11  12
ATOM     12  C   UNL     1      10.046   0.817  23.619  0.00  0.00    +0.111 C 
ATOM     13  C   UNL     1       8.811   1.377  24.346  0.00  0.00    +0.162 C 
ATOM     14  O   UNL     1       7.645   1.203  23.532  0.00  0.00    -0.342 OA
ATOM     15  C   UNL     1       7.707   1.849  22.252  0.00  0.00    +0.282 C 
ATOM     16  C   UNL     1       8.974   1.511  21.431  0.00  0.00    +0.200 C 
ATOM     17  C   UNL     1      10.223   1.618  22.320  0.00  0.00    +0.163 C 
BRANCH  16  18
ATOM     18  O   UNL     1       8.846   0.224  20.815  0.00  0.00    -0.384 OA
ATOM     19  H   UNL     1       9.646  -0.298  21.030  0.00  0.00    +0.210 HD
ENDBRANCH  16  18
BRANCH  17  20
ATOM     20  O   UNL     1      10.577   2.962  22.656  0.00  0.00    -0.388 OA
ATOM     21  H   UNL     1      10.222   3.579  21.986  0.00  0.00    +0.210 HD
ENDBRANCH  17  20
BRANCH  13  22
ATOM     22  C   UNL     1       8.564   0.725  25.715  0.00  0.00    +0.188 C 
BRANCH  22  23
ATOM     23  O   UNL     1       7.887   1.644  26.571  0.00  0.00    -0.392 OA
ATOM     24  H   UNL     1       7.735   2.447  26.034  0.00  0.00    +0.210 HD
ENDBRANCH  22  23
ENDBRANCH  13  22
BRANCH  15  25
ATOM     25  O   UNL     1       7.548   3.261  22.417  0.00  0.00    -0.340 OA
BRANCH  25  26
ATOM     26  C   UNL     1       6.987   3.651  23.693  0.00  0.00    +0.183 C 
ATOM     27  C   UNL     1       5.556   4.193  23.453  0.00  0.00    +0.176 C 
ATOM     28  O   UNL     1       5.561   5.461  22.781  0.00  0.00    -0.356 OA
ATOM     29  C   UNL     1       6.335   6.491  23.416  0.00  0.00    +0.204 C 
ATOM     30  C   UNL     1       7.790   6.036  23.619  0.00  0.00    +0.184 C 
ATOM     31  C   UNL     1       7.853   4.716  24.401  0.00  0.00    +0.178 C 
BRANCH  29  32
ATOM     32  S   UNL     1       5.561   7.108  24.950  0.00  0.00    -0.145 S 
ATOM     33  H   UNL     1       4.449   7.592  24.372  0.00  0.00    +0.104 HD
ENDBRANCH  29  32
BRANCH  30  34
ATOM     34  O   UNL     1       8.417   5.880  22.332  0.00  0.00    -0.386 OA
ATOM     35  H   UNL     1       7.814   6.263  21.655  0.00  0.00    +0.210 HD
ENDBRANCH  30  34
BRANCH  31  36
ATOM     36  O   UNL     1       7.492   4.842  25.780  0.00  0.00    -0.386 OA
ATOM     37  H   UNL     1       6.544   4.646  25.889  0.00  0.00    +0.210 HD
ENDBRANCH  31  36
BRANCH  27  38
ATOM     38  C   UNL     1       4.710   3.219  22.615  0.00  0.00    +0.190 C 
BRANCH  38  39
ATOM     39  O   UNL     1       3.681   2.637  23.407  0.00  0.00    -0.392 OA
ATOM     40  H   UNL     1       4.044   2.510  24.303  0.00  0.00    +0.210 HD
ENDBRANCH  38  39
ENDBRANCH  27  38
ENDBRANCH  25  26
ENDBRANCH  15  25
ENDBRANCH  11  12
ENDBRANCH   4  11
BRANCH   2  41
ATOM     41  C   UNL     1       8.915  -4.930  25.316  0.00  0.00    +0.190 C 
BRANCH  41  42
ATOM     42  O   UNL     1      10.279  -5.295  25.151  0.00  0.00    -0.392 OA
ATOM     43  H   UNL     1      10.370  -6.228  25.417  0.00  0.00    +0.210 HD
ENDBRANCH  41  42
ENDBRANCH   2  41
BRANCH   1  44
ATOM     44  O   UNL     1       6.207  -4.166  24.573  0.00  0.00    -0.340 OA
BRANCH  44  48
ATOM     45  C   UNL     1       2.985  -5.120  25.996  0.00  0.00    +0.111 C 
ATOM     46  C   UNL     1       3.785  -3.818  26.206  0.00  0.00    +0.162 C 
ATOM     47  O   UNL     1       4.089  -3.193  24.942  0.00  0.00    -0.342 OA
ATOM     48  C   UNL     1       4.878  -4.011  24.056  0.00  0.00    +0.282 C 
ATOM     49  C   UNL     1       4.204  -5.381  23.783  0.00  0.00    +0.200 C 
ATOM     50  C   UNL     1       3.830  -6.055  25.112  0.00  0.00    +0.163 C 
BRANCH  50  51
ATOM     51  O   UNL     1       4.960  -6.513  25.860  0.00  0.00    -0.388 OA
ATOM     52  H   UNL     1       5.543  -5.757  26.092  0.00  0.00    +0.210 HD
ENDBRANCH  50  51
BRANCH  49  53
ATOM     53  O   UNL     1       3.069  -5.239  22.917  0.00  0.00    -0.384 OA
ATOM     54  H   UNL     1       3.107  -4.333  22.542  0.00  0.00    +0.210 HD
ENDBRANCH  49  53
BRANCH  46  55
ATOM     55  C   UNL     1       3.046  -2.805  27.100  0.00  0.00    +0.188 C 
BRANCH  55  56
ATOM     56  O   UNL     1       2.847  -1.583  26.387  0.00  0.00    -0.392 OA
ATOM     57  H   UNL     1       1.897  -1.382  26.480  0.00  0.00    +0.210 HD
ENDBRANCH  55  56
ENDBRANCH  46  55
BRANCH  45  58
ATOM     58  S   UNL     1       1.328  -4.751  25.232  0.00  0.00    -0.118 S 
BRANCH  58  63
ATOM     59  C   UNL     1       0.625  -8.396  23.829  0.00  0.00    +0.176 C 
ATOM     60  C   UNL     1       1.132  -9.270  24.983  0.00  0.00    +0.176 C 
ATOM     61  C   UNL     1       0.657  -8.673  26.315  0.00  0.00    +0.177 C 
ATOM     62  C   UNL     1       1.098  -7.212  26.449  0.00  0.00    +0.184 C 
ATOM     63  C   UNL     1       0.636  -6.438  25.202  0.00  0.00    +0.207 C 
ATOM     64  O   UNL     1       1.071  -7.048  24.001  0.00  0.00    -0.355 OA
BRANCH  62  65
ATOM     65  O   UNL     1       0.558  -6.708  27.684  0.00  0.00    -0.386 OA
ATOM     66  H   UNL     1       0.731  -7.351  28.397  0.00  0.00    +0.210 HD
ENDBRANCH  62  65
BRANCH  61  67
ATOM     67  O   UNL     1       1.168  -9.435  27.419  0.00  0.00    -0.386 OA
ATOM     68  H   UNL     1       1.302 -10.343  27.083  0.00  0.00    +0.210 HD
ENDBRANCH  61  67
BRANCH  60  69
ATOM     69  O   UNL     1       0.645 -10.604  24.809  0.00  0.00    -0.386 OA
ATOM     70  H   UNL     1       0.091 -10.825  25.578  0.00  0.00    +0.210 HD
ENDBRANCH  60  69
BRANCH  59  71
ATOM     71  C   UNL     1       1.158  -8.889  22.477  0.00  0.00    +0.190 C 
BRANCH  71  72
ATOM     72  O   UNL     1       1.893  -7.840  21.840  0.00  0.00    -0.392 OA
ATOM     73  H   UNL     1       1.514  -7.735  20.950  0.00  0.00    +0.210 HD
ENDBRANCH  71  72
ENDBRANCH  59  71
ENDBRANCH  58  63
ENDBRANCH  45  58
ENDBRANCH  44  48
ENDBRANCH   1  44
TORSDOF 30
ENDMDL
MODEL 5
REMARK VINA RESULT:      -5.8      2.573      5.017
REMARK  Name = 
REMARK  30 active torsions:
REMARK  status: ('A' for Active; 'I' for Inactive)
REMARK    1  A    between atoms: O_1  and  C_2
REMARK    2  A    between atoms: C_2  and  C_3
REMARK    3  A    between atoms: C_6  and  S_8
REMARK    4  A    between atoms: S_8  and  C_9
REMARK    5  A    between atoms: C_11  and  O_13
REMARK    6  A    between atoms: C_14  and  O_16
REMARK    7  A    between atoms: C_17  and  O_19
REMARK    8  A    between atoms: O_19  and  C_20
REMARK    9  A    between atoms: C_22  and  O_24
REMARK   10  A    between atoms: C_25  and  O_27
REMARK   11  A    between atoms: C_28  and  S_35
REMARK   12  A    between atoms: C_31  and  C_33
REMARK   13  A    between atoms: C_33  and  O_34
REMARK   14  A    between atoms: S_35  and  C_36
REMARK   15  A    between atoms: C_38  and  O_40
REMARK   16  A    between atoms: C_41  and  O_43
REMARK   17  A    between atoms: C_44  and  O_46
REMARK   18  A    between atoms: O_46  and  C_47
REMARK   19  A    between atoms: C_49  and  O_51
REMARK   20  A    between atoms: C_52  and  O_54
REMARK   21  A    between atoms: C_55  and  S_57
REMARK   22  A    between atoms: C_59  and  C_61
REMARK   23  A    between atoms: C_61  and  O_62
REMARK   24  A    between atoms: C_64  and  C_66
REMARK   25  A    between atoms: C_66  and  O_67
REMARK   26  A    between atoms: C_69  and  C_71
REMARK   27  A    between atoms: C_71  and  O_72
REMARK   28  A    between atoms: C_73  and  O_75
REMARK   29  A    between atoms: C_76  and  O_78
REMARK   30  A    between atoms: C_79  and  O_81
REMARK                            x       y       z     vdW  Elec       q    Type
REMARK                         _______ _______ _______ _____ _____    ______ ____
ROOT
ATOM      1  C   UNL     1       9.028   0.071  23.015  0.00  0.00    +0.183 C 
ATOM      2  C   UNL     1       9.667   1.257  23.769  0.00  0.00    +0.176 C 
ATOM      3  O   UNL     1       8.701   1.971  24.532  0.00  0.00    -0.355 OA
ATOM      4  C   UNL     1       7.604   2.476  23.772  0.00  0.00    +0.207 C 
ATOM      5  C   UNL     1       6.875   1.403  22.935  0.00  0.00    +0.184 C 
ATOM      6  C   UNL     1       7.881   0.581  22.120  0.00  0.00    +0.178 C 
ENDROOT
BRANCH   5   7
ATOM      7  O   UNL     1       6.080   0.534  23.749  0.00  0.00    -0.386 OA
ATOM      8  H   UNL     1       5.164   0.860  23.778  0.00  0.00    +0.210 HD
ENDBRANCH   5   7
BRANCH   6   9
ATOM      9  O   UNL     1       8.408   1.318  21.007  0.00  0.00    -0.386 OA
ATOM     10  H   UNL     1       9.249   1.737  21.258  0.00  0.00    +0.210 HD
ENDBRANCH   6   9
BRANCH   4  11
ATOM     11  S   UNL     1       8.114   3.877  22.694  0.00  0.00    -0.118 S 
BRANCH  11  12
ATOM     12  C   UNL     1       7.390   5.296  23.652  0.00  0.00    +0.111 C 
ATOM     13  C   UNL     1       6.923   4.844  25.047  0.00  0.00    +0.162 C 
ATOM     14  O   UNL     1       5.912   3.837  24.921  0.00  0.00    -0.342 OA
ATOM     15  C   UNL     1       4.741   4.253  24.200  0.00  0.00    +0.282 C 
ATOM     16  C   UNL     1       5.036   4.876  22.816  0.00  0.00    +0.200 C 
ATOM     17  C   UNL     1       6.176   5.900  22.930  0.00  0.00    +0.163 C 
BRANCH  16  18
ATOM     18  O   UNL     1       5.310   3.852  21.851  0.00  0.00    -0.384 OA
ATOM     19  H   UNL     1       4.455   3.495  21.535  0.00  0.00    +0.210 HD
ENDBRANCH  16  18
BRANCH  17  20
ATOM     20  O   UNL     1       5.800   7.108  23.596  0.00  0.00    -0.388 OA
ATOM     21  H   UNL     1       4.868   7.054  23.885  0.00  0.00    +0.210 HD
ENDBRANCH  17  20
BRANCH  13  22
ATOM     22  C   UNL     1       8.062   4.297  25.921  0.00  0.00    +0.188 C 
BRANCH  22  23
ATOM     23  O   UNL     1       7.519   3.527  26.993  0.00  0.00    -0.392 OA
ATOM     24  H   UNL     1       7.558   2.595  26.698  0.00  0.00    +0.210 HD
ENDBRANCH  22  23
ENDBRANCH  13  22
BRANCH  15  25
ATOM     25  O   UNL     1       3.959   5.130  25.017  0.00  0.00    -0.340 OA
BRANCH  25  26
ATOM     26  C   UNL     1       2.621   4.650  25.290  0.00  0.00    +0.183 C 
ATOM     27  C   UNL     1       1.829   5.783  25.989  0.00  0.00    +0.176 C 
ATOM     28  O   UNL     1       2.290   6.024  27.326  0.00  0.00    -0.356 OA
ATOM     29  C   UNL     1       2.296   4.876  28.190  0.00  0.00    +0.204 C 
ATOM     30  C   UNL     1       3.129   3.735  27.581  0.00  0.00    +0.184 C 
ATOM     31  C   UNL     1       2.633   3.381  26.171  0.00  0.00    +0.178 C 
BRANCH  29  32
ATOM     32  S   UNL     1       0.616   4.350  28.675  0.00  0.00    -0.145 S 
ATOM     33  H   UNL     1       0.456   5.251  29.659  0.00  0.00    +0.104 HD
ENDBRANCH  29  32
BRANCH  30  34
ATOM     34  O   UNL     1       4.511   4.138  27.532  0.00  0.00    -0.386 OA
ATOM     35  H   UNL     1       4.660   4.791  28.253  0.00  0.00    +0.210 HD
ENDBRANCH  30  34
BRANCH  31  36
ATOM     36  O   UNL     1       1.361   2.727  26.152  0.00  0.00    -0.386 OA
ATOM     37  H   UNL     1       1.061   2.621  25.231  0.00  0.00    +0.210 HD
ENDBRANCH  31  36
BRANCH  27  38
ATOM     38  C   UNL     1       1.924   7.108  25.212  0.00  0.00    +0.190 C 
BRANCH  38  39
ATOM     39  O   UNL     1       2.100   6.864  23.821  0.00  0.00    -0.392 OA
ATOM     40  H   UNL     1       1.362   7.299  23.356  0.00  0.00    +0.210 HD
ENDBRANCH  38  39
ENDBRANCH  27  38
ENDBRANCH  25  26
ENDBRANCH  15  25
ENDBRANCH  11  12
ENDBRANCH   4  11
BRANCH   2  41
ATOM     41  C   UNL     1      10.813   0.840  24.691  0.00  0.00    +0.190 C 
BRANCH  41  42
ATOM     42  O   UNL     1      10.266   0.271  25.873  0.00  0.00    -0.392 OA
ATOM     43  H   UNL     1      10.777  -0.533  26.078  0.00  0.00    +0.210 HD
ENDBRANCH  41  42
ENDBRANCH   2  41
BRANCH   1  44
ATOM     44  O   UNL     1       8.623  -0.934  23.966  0.00  0.00    -0.340 OA
BRANCH  44  48
ATOM     45  C   UNL     1       6.501  -3.857  24.483  0.00  0.00    +0.111 C 
ATOM     46  C   UNL     1       6.420  -2.791  23.372  0.00  0.00    +0.162 C 
ATOM     47  O   UNL     1       7.680  -2.674  22.681  0.00  0.00    -0.342 OA
ATOM     48  C   UNL     1       8.782  -2.289  23.526  0.00  0.00    +0.282 C 
ATOM     49  C   UNL     1       8.960  -3.264  24.720  0.00  0.00    +0.200 C 
ATOM     50  C   UNL     1       7.622  -3.443  25.454  0.00  0.00    +0.163 C 
BRANCH  50  51
ATOM     51  O   UNL     1       7.207  -2.282  26.180  0.00  0.00    -0.388 OA
ATOM     52  H   UNL     1       6.982  -1.555  25.559  0.00  0.00    +0.210 HD
ENDBRANCH  50  51
BRANCH  49  53
ATOM     53  O   UNL     1       9.505  -4.519  24.290  0.00  0.00    -0.384 OA
ATOM     54  H   UNL     1       9.416  -4.550  23.313  0.00  0.00    +0.210 HD
ENDBRANCH  49  53
BRANCH  46  55
ATOM     55  C   UNL     1       5.311  -3.087  22.345  0.00  0.00    +0.188 C 
BRANCH  55  56
ATOM     56  O   UNL     1       5.893  -3.534  21.119  0.00  0.00    -0.392 OA
ATOM     57  H   UNL     1       5.553  -2.925  20.436  0.00  0.00    +0.210 HD
ENDBRANCH  55  56
ENDBRANCH  46  55
BRANCH  45  58
ATOM     58  S   UNL     1       6.805  -5.541  23.751  0.00  0.00    -0.118 S 
BRANCH  58  63
ATOM     59  C   UNL     1       4.501  -6.907  26.678  0.00  0.00    +0.176 C 
ATOM     60  C   UNL     1       3.126  -6.373  26.259  0.00  0.00    +0.176 C 
ATOM     61  C   UNL     1       2.942  -6.581  24.749  0.00  0.00    +0.177 C 
ATOM     62  C   UNL     1       4.087  -5.935  23.963  0.00  0.00    +0.184 C 
ATOM     63  C   UNL     1       5.425  -6.451  24.520  0.00  0.00    +0.207 C 
ATOM     64  O   UNL     1       5.530  -6.265  25.920  0.00  0.00    -0.355 OA
BRANCH  62  65
ATOM     65  O   UNL     1       3.879  -6.233  22.571  0.00  0.00    -0.386 OA
ATOM     66  H   UNL     1       4.479  -6.954  22.303  0.00  0.00    +0.210 HD
ENDBRANCH  62  65
BRANCH  61  67
ATOM     67  O   UNL     1       1.688  -6.035  24.315  0.00  0.00    -0.386 OA
ATOM     68  H   UNL     1       1.900  -5.400  23.602  0.00  0.00    +0.210 HD
ENDBRANCH  61  67
BRANCH  60  69
ATOM     69  O   UNL     1       2.112  -7.053  27.005  0.00  0.00    -0.386 OA
ATOM     70  H   UNL     1       2.162  -6.747  27.927  0.00  0.00    +0.210 HD
ENDBRANCH  60  69
BRANCH  59  71
ATOM     71  C   UNL     1       4.781  -6.629  28.162  0.00  0.00    +0.190 C 
BRANCH  71  72
ATOM     72  O   UNL     1       4.126  -7.615  28.966  0.00  0.00    -0.392 OA
ATOM     73  H   UNL     1       4.564  -7.602  29.834  0.00  0.00    +0.210 HD
ENDBRANCH  71  72
ENDBRANCH  59  71
ENDBRANCH  58  63
ENDBRANCH  45  58
ENDBRANCH  44  48
ENDBRANCH   1  44
TORSDOF 30
ENDMDL
MODEL 6
REMARK VINA RESULT:      -5.7      2.139     10.635
REMARK  Name = 
REMARK  30 active torsions:
REMARK  status: ('A' for Active; 'I' for Inactive)
REMARK    1  A    between atoms: O_1  and  C_2
REMARK    2  A    between atoms: C_2  and  C_3
REMARK    3  A    between atoms: C_6  and  S_8
REMARK    4  A    between atoms: S_8  and  C_9
REMARK    5  A    between atoms: C_11  and  O_13
REMARK    6  A    between atoms: C_14  and  O_16
REMARK    7  A    between atoms: C_17  and  O_19
REMARK    8  A    between atoms: O_19  and  C_20
REMARK    9  A    between atoms: C_22  and  O_24
REMARK   10  A    between atoms: C_25  and  O_27
REMARK   11  A    between atoms: C_28  and  S_35
REMARK   12  A    between atoms: C_31  and  C_33
REMARK   13  A    between atoms: C_33  and  O_34
REMARK   14  A    between atoms: S_35  and  C_36
REMARK   15  A    between atoms: C_38  and  O_40
REMARK   16  A    between atoms: C_41  and  O_43
REMARK   17  A    between atoms: C_44  and  O_46
REMARK   18  A    between atoms: O_46  and  C_47
REMARK   19  A    between atoms: C_49  and  O_51
REMARK   20  A    between atoms: C_52  and  O_54
REMARK   21  A    between atoms: C_55  and  S_57
REMARK   22  A    between atoms: C_59  and  C_61
REMARK   23  A    between atoms: C_61  and  O_62
REMARK   24  A    between atoms: C_64  and  C_66
REMARK   25  A    between atoms: C_66  and  O_67
REMARK   26  A    between atoms: C_69  and  C_71
REMARK   27  A    between atoms: C_71  and  O_72
REMARK   28  A    between atoms: C_73  and  O_75
REMARK   29  A    between atoms: C_76  and  O_78
REMARK   30  A    between atoms: C_79  and  O_81
REMARK                            x       y       z     vdW  Elec       q    Type
REMARK                         _______ _______ _______ _____ _____    ______ ____
ROOT
ATOM      1  C   UNL     1       8.165   1.005  23.191  0.00  0.00    +0.183 C 
ATOM      2  C   UNL     1       7.345   0.145  24.176  0.00  0.00    +0.176 C 
ATOM      3  O   UNL     1       8.097  -0.174  25.342  0.00  0.00    -0.355 OA
ATOM      4  C   UNL     1       9.324  -0.853  25.085  0.00  0.00    +0.207 C 
ATOM      5  C   UNL     1      10.248  -0.123  24.087  0.00  0.00    +0.184 C 
ATOM      6  C   UNL     1       9.472   0.274  22.826  0.00  0.00    +0.178 C 
ENDROOT
BRANCH   5   7
ATOM      7  O   UNL     1      10.859   1.035  24.668  0.00  0.00    -0.386 OA
ATOM      8  H   UNL     1      11.826   0.970  24.586  0.00  0.00    +0.210 HD
ENDBRANCH   5   7
BRANCH   6   9
ATOM      9  O   UNL     1       9.192  -0.855  21.984  0.00  0.00    -0.386 OA
ATOM     10  H   UNL     1      10.023  -1.215  21.630  0.00  0.00    +0.210 HD
ENDBRANCH   6   9
BRANCH   4  11
ATOM     11  S   UNL     1       9.037  -2.583  24.528  0.00  0.00    -0.118 S 
BRANCH  11  12
ATOM     12  C   UNL     1       8.151  -3.255  26.017  0.00  0.00    +0.111 C 
ATOM     13  C   UNL     1       8.289  -4.785  26.102  0.00  0.00    +0.162 C 
ATOM     14  O   UNL     1       7.716  -5.392  24.938  0.00  0.00    -0.342 OA
ATOM     15  C   UNL     1       6.322  -5.107  24.740  0.00  0.00    +0.282 C 
ATOM     16  C   UNL     1       5.973  -3.600  24.772  0.00  0.00    +0.200 C 
ATOM     17  C   UNL     1       6.651  -2.926  25.974  0.00  0.00    +0.163 C 
BRANCH  16  18
ATOM     18  O   UNL     1       6.313  -2.978  23.527  0.00  0.00    -0.384 OA
ATOM     19  H   UNL     1       5.743  -3.359  22.829  0.00  0.00    +0.210 HD
ENDBRANCH  16  18
BRANCH  17  20
ATOM     20  O   UNL     1       6.070  -3.274  27.234  0.00  0.00    -0.388 OA
ATOM     21  H   UNL     1       6.438  -2.707  27.939  0.00  0.00    +0.210 HD
ENDBRANCH  17  20
BRANCH  13  22
ATOM     22  C   UNL     1       9.745  -5.257  26.242  0.00  0.00    +0.188 C 
BRANCH  22  23
ATOM     23  O   UNL     1      10.155  -5.916  25.044  0.00  0.00    -0.392 OA
ATOM     24  H   UNL     1       9.333  -6.107  24.550  0.00  0.00    +0.210 HD
ENDBRANCH  22  23
ENDBRANCH  13  22
BRANCH  15  25
ATOM     25  O   UNL     1       5.540  -5.849  25.680  0.00  0.00    -0.340 OA
BRANCH  25  26
ATOM     26  C   UNL     1       4.177  -5.381  25.820  0.00  0.00    +0.183 C 
ATOM     27  C   UNL     1       3.477  -6.230  26.909  0.00  0.00    +0.176 C 
ATOM     28  O   UNL     1       3.239  -7.578  26.478  0.00  0.00    -0.356 OA
ATOM     29  C   UNL     1       2.498  -7.710  25.254  0.00  0.00    +0.204 C 
ATOM     30  C   UNL     1       3.184  -6.942  24.112  0.00  0.00    +0.184 C 
ATOM     31  C   UNL     1       3.400  -5.469  24.488  0.00  0.00    +0.178 C 
BRANCH  29  32
ATOM     32  S   UNL     1       0.736  -7.273  25.448  0.00  0.00    -0.145 S 
ATOM     33  H   UNL     1       0.707  -7.360  26.788  0.00  0.00    +0.104 HD
ENDBRANCH  29  32
BRANCH  30  34
ATOM     34  O   UNL     1       4.447  -7.568  23.818  0.00  0.00    -0.386 OA
ATOM     35  H   UNL     1       4.629  -7.443  22.858  0.00  0.00    +0.210 HD
ENDBRANCH  30  34
BRANCH  31  36
ATOM     36  O   UNL     1       2.193  -4.702  24.543  0.00  0.00    -0.386 OA
ATOM     37  H   UNL     1       1.914  -4.467  23.639  0.00  0.00    +0.210 HD
ENDBRANCH  31  36
BRANCH  27  38
ATOM     38  C   UNL     1       4.305  -6.290  28.205  0.00  0.00    +0.190 C 
BRANCH  38  39
ATOM     39  O   UNL     1       3.965  -7.444  28.965  0.00  0.00    -0.392 OA
ATOM     40  H   UNL     1       3.845  -8.180  28.336  0.00  0.00    +0.210 HD
ENDBRANCH  38  39
ENDBRANCH  27  38
ENDBRANCH  25  26
ENDBRANCH  15  25
ENDBRANCH  11  12
ENDBRANCH   4  11
BRANCH   2  41
ATOM     41  C   UNL     1       6.030   0.800  24.601  0.00  0.00    +0.190 C 
BRANCH  41  42
ATOM     42  O   UNL     1       5.180  -0.197  25.154  0.00  0.00    -0.392 OA
ATOM     43  H   UNL     1       4.873  -0.763  24.422  0.00  0.00    +0.210 HD
ENDBRANCH  41  42
ENDBRANCH   2  41
BRANCH   1  44
ATOM     44  O   UNL     1       8.369   2.315  23.760  0.00  0.00    -0.340 OA
BRANCH  44  48
ATOM     45  C   UNL     1       7.001   5.598  24.572  0.00  0.00    +0.111 C 
ATOM     46  C   UNL     1       8.477   5.154  24.521  0.00  0.00    +0.162 C 
ATOM     47  O   UNL     1       8.795   4.576  23.239  0.00  0.00    -0.342 OA
ATOM     48  C   UNL     1       8.013   3.411  22.908  0.00  0.00    +0.282 C 
ATOM     49  C   UNL     1       6.491   3.706  22.955  0.00  0.00    +0.200 C 
ATOM     50  C   UNL     1       6.126   4.362  24.296  0.00  0.00    +0.163 C 
BRANCH  50  51
ATOM     51  O   UNL     1       6.211   3.470  25.412  0.00  0.00    -0.388 OA
ATOM     52  H   UNL     1       6.450   2.567  25.108  0.00  0.00    +0.210 HD
ENDBRANCH  50  51
BRANCH  49  53
ATOM     53  O   UNL     1       6.081   4.509  21.839  0.00  0.00    -0.384 OA
ATOM     54  H   UNL     1       5.554   5.253  22.201  0.00  0.00    +0.210 HD
ENDBRANCH  49  53
BRANCH  46  55
ATOM     55  C   UNL     1       9.455   6.309  24.806  0.00  0.00    +0.188 C 
BRANCH  55  56
ATOM     56  O   UNL     1      10.438   6.379  23.771  0.00  0.00    -0.392 OA
ATOM     57  H   UNL     1      10.611   5.452  23.518  0.00  0.00    +0.210 HD
ENDBRANCH  55  56
ENDBRANCH  46  55
BRANCH  45  58
ATOM     58  S   UNL     1       6.686   6.959  23.341  0.00  0.00    -0.118 S 
BRANCH  58  63
ATOM     59  C   UNL     1       2.871   6.498  22.356  0.00  0.00    +0.176 C 
ATOM     60  C   UNL     1       2.327   5.753  23.583  0.00  0.00    +0.176 C 
ATOM     61  C   UNL     1       2.893   6.397  24.856  0.00  0.00    +0.177 C 
ATOM     62  C   UNL     1       4.425   6.428  24.820  0.00  0.00    +0.184 C 
ATOM     63  C   UNL     1       4.877   7.098  23.511  0.00  0.00    +0.207 C 
ATOM     64  O   UNL     1       4.300   6.489  22.370  0.00  0.00    -0.355 OA
BRANCH  62  65
ATOM     65  O   UNL     1       4.871   7.104  26.009  0.00  0.00    -0.386 OA
ATOM     66  H   UNL     1       4.098   7.455  26.490  0.00  0.00    +0.210 HD
ENDBRANCH  62  65
BRANCH  61  67
ATOM     67  O   UNL     1       2.451   5.683  26.020  0.00  0.00    -0.386 OA
ATOM     68  H   UNL     1       2.602   4.736  25.832  0.00  0.00    +0.210 HD
ENDBRANCH  61  67
BRANCH  60  69
ATOM     69  O   UNL     1       0.898   5.804  23.566  0.00  0.00    -0.386 OA
ATOM     70  H   UNL     1       0.632   6.710  23.327  0.00  0.00    +0.210 HD
ENDBRANCH  60  69
BRANCH  59  71
ATOM     71  C   UNL     1       2.419   5.830  21.050  0.00  0.00    +0.190 C 
BRANCH  71  72
ATOM     72  O   UNL     1       2.803   6.643  19.939  0.00  0.00    -0.392 OA
ATOM     73  H   UNL     1       2.286   7.464  20.002  0.00  0.00    +0.210 HD
ENDBRANCH  71  72
ENDBRANCH  59  71
ENDBRANCH  58  63
ENDBRANCH  45  58
ENDBRANCH  44  48
ENDBRANCH   1  44
TORSDOF 30
ENDMDL
MODEL 7
REMARK VINA RESULT:      -4.8      2.870      9.672
REMARK  Name = 
REMARK  30 active torsions:
REMARK  status: ('A' for Active; 'I' for Inactive)
REMARK    1  A    between atoms: O_1  and  C_2
REMARK    2  A    between atoms: C_2  and  C_3
REMARK    3  A    between atoms: C_6  and  S_8
REMARK    4  A    between atoms: S_8  and  C_9
REMARK    5  A    between atoms: C_11  and  O_13
REMARK    6  A    between atoms: C_14  and  O_16
REMARK    7  A    between atoms: C_17  and  O_19
REMARK    8  A    between atoms: O_19  and  C_20
REMARK    9  A    between atoms: C_22  and  O_24
REMARK   10  A    between atoms: C_25  and  O_27
REMARK   11  A    between atoms: C_28  and  S_35
REMARK   12  A    between atoms: C_31  and  C_33
REMARK   13  A    between atoms: C_33  and  O_34
REMARK   14  A    between atoms: S_35  and  C_36
REMARK   15  A    between atoms: C_38  and  O_40
REMARK   16  A    between atoms: C_41  and  O_43
REMARK   17  A    between atoms: C_44  and  O_46
REMARK   18  A    between atoms: O_46  and  C_47
REMARK   19  A    between atoms: C_49  and  O_51
REMARK   20  A    between atoms: C_52  and  O_54
REMARK   21  A    between atoms: C_55  and  S_57
REMARK   22  A    between atoms: C_59  and  C_61
REMARK   23  A    between atoms: C_61  and  O_62
REMARK   24  A    between atoms: C_64  and  C_66
REMARK   25  A    between atoms: C_66  and  O_67
REMARK   26  A    between atoms: C_69  and  C_71
REMARK   27  A    between atoms: C_71  and  O_72
REMARK   28  A    between atoms: C_73  and  O_75
REMARK   29  A    between atoms: C_76  and  O_78
REMARK   30  A    between atoms: C_79  and  O_81
REMARK                            x       y       z     vdW  Elec       q    Type
REMARK                         _______ _______ _______ _____ _____    ______ ____
ROOT
ATOM      1  C   UNL     1       9.546  -2.890  23.982  0.00  0.00    +0.183 C 
ATOM      2  C   UNL     1       8.305  -3.185  23.114  0.00  0.00    +0.176 C 
ATOM      3  O   UNL     1       7.102  -3.077  23.868  0.00  0.00    -0.355 OA
ATOM      4  C   UNL     1       7.047  -3.925  25.014  0.00  0.00    +0.207 C 
ATOM      5  C   UNL     1       8.246  -3.765  25.972  0.00  0.00    +0.184 C 
ATOM      6  C   UNL     1       9.567  -3.838  25.197  0.00  0.00    +0.178 C 
ENDROOT
BRANCH   5   7
ATOM      7  O   UNL     1       8.183  -2.541  26.713  0.00  0.00    -0.386 OA
ATOM      8  H   UNL     1       7.369  -2.523  27.245  0.00  0.00    +0.210 HD
ENDBRANCH   5   7
BRANCH   6   9
ATOM      9  O   UNL     1       9.878  -5.176  24.780  0.00  0.00    -0.386 OA
ATOM     10  H   UNL     1      10.716  -5.181  24.288  0.00  0.00    +0.210 HD
ENDBRANCH   6   9
BRANCH   4  11
ATOM     11  S   UNL     1       6.852  -5.692  24.540  0.00  0.00    -0.118 S 
BRANCH  11  12
ATOM     12  C   UNL     1       5.079  -5.960  25.030  0.00  0.00    +0.111 C 
ATOM     13  C   UNL     1       4.367  -4.622  25.293  0.00  0.00    +0.162 C 
ATOM     14  O   UNL     1       5.018  -3.924  26.361  0.00  0.00    -0.342 OA
ATOM     15  C   UNL     1       5.049  -4.635  27.608  0.00  0.00    +0.282 C 
ATOM     16  C   UNL     1       5.607  -6.073  27.505  0.00  0.00    +0.200 C 
ATOM     17  C   UNL     1       4.972  -6.802  26.311  0.00  0.00    +0.163 C 
BRANCH  16  18
ATOM     18  O   UNL     1       7.039  -6.055  27.440  0.00  0.00    -0.384 OA
ATOM     19  H   UNL     1       7.309  -5.282  26.904  0.00  0.00    +0.210 HD
ENDBRANCH  16  18
BRANCH  17  20
ATOM     20  O   UNL     1       3.601  -7.154  26.515  0.00  0.00    -0.388 OA
ATOM     21  H   UNL     1       3.460  -7.427  27.442  0.00  0.00    +0.210 HD
ENDBRANCH  17  20
BRANCH  13  22
ATOM     22  C   UNL     1       4.318  -3.708  24.059  0.00  0.00    +0.188 C 
BRANCH  22  23
ATOM     23  O   UNL     1       3.914  -4.462  22.917  0.00  0.00    -0.392 OA
ATOM     24  H   UNL     1       4.726  -4.607  22.392  0.00  0.00    +0.210 HD
ENDBRANCH  22  23
ENDBRANCH  13  22
BRANCH  15  25
ATOM     25  O   UNL     1       3.749  -4.616  28.206  0.00  0.00    -0.340 OA
BRANCH  25  26
ATOM     26  C   UNL     1       3.641  -3.756  29.366  0.00  0.00    +0.183 C 
ATOM     27  C   UNL     1       2.346  -4.126  30.130  0.00  0.00    +0.176 C 
ATOM     28  O   UNL     1       1.163  -3.737  29.415  0.00  0.00    -0.356 OA
ATOM     29  C   UNL     1       1.094  -2.349  29.050  0.00  0.00    +0.204 C 
ATOM     30  C   UNL     1       2.325  -1.937  28.226  0.00  0.00    +0.184 C 
ATOM     31  C   UNL     1       3.626  -2.262  28.974  0.00  0.00    +0.178 C 
BRANCH  29  32
ATOM     32  S   UNL     1       0.800  -1.259  30.484  0.00  0.00    -0.145 S 
ATOM     33  H   UNL     1       1.851  -1.676  31.209  0.00  0.00    +0.104 HD
ENDBRANCH  29  32
BRANCH  30  34
ATOM     34  O   UNL     1       2.296  -2.627  26.962  0.00  0.00    -0.386 OA
ATOM     35  H   UNL     1       2.293  -1.948  26.249  0.00  0.00    +0.210 HD
ENDBRANCH  30  34
BRANCH  31  36
ATOM     36  O   UNL     1       3.863  -1.427  30.112  0.00  0.00    -0.386 OA
ATOM     37  H   UNL     1       4.561  -0.779  29.903  0.00  0.00    +0.210 HD
ENDBRANCH  31  36
BRANCH  27  38
ATOM     38  C   UNL     1       2.256  -5.638  30.402  0.00  0.00    +0.190 C 
BRANCH  38  39
ATOM     39  O   UNL     1       1.595  -6.303  29.331  0.00  0.00    -0.392 OA
ATOM     40  H   UNL     1       0.772  -5.811  29.150  0.00  0.00    +0.210 HD
ENDBRANCH  38  39
ENDBRANCH  27  38
ENDBRANCH  25  26
ENDBRANCH  15  25
ENDBRANCH  11  12
ENDBRANCH   4  11
BRANCH   2  41
ATOM     41  C   UNL     1       8.198  -2.282  21.885  0.00  0.00    +0.190 C 
BRANCH  41  42
ATOM     42  O   UNL     1       9.506  -2.024  21.391  0.00  0.00    -0.392 OA
ATOM     43  H   UNL     1      10.082  -1.848  22.157  0.00  0.00    +0.210 HD
ENDBRANCH  41  42
ENDBRANCH   2  41
BRANCH   1  44
ATOM     44  O   UNL     1       9.560  -1.492  24.333  0.00  0.00    -0.340 OA
BRANCH  44  48
ATOM     45  C   UNL     1       8.576   1.975  24.903  0.00  0.00    +0.111 C 
ATOM     46  C   UNL     1       9.684   1.426  23.981  0.00  0.00    +0.162 C 
ATOM     47  O   UNL     1       9.149   0.453  23.061  0.00  0.00    -0.342 OA
ATOM     48  C   UNL     1       8.553  -0.694  23.698  0.00  0.00    +0.282 C 
ATOM     49  C   UNL     1       7.433  -0.284  24.691  0.00  0.00    +0.200 C 
ATOM     50  C   UNL     1       7.960   0.785  25.661  0.00  0.00    +0.163 C 
BRANCH  50  51
ATOM     51  O   UNL     1       8.914   0.284  26.602  0.00  0.00    -0.388 OA
ATOM     52  H   UNL     1       9.813   0.617  26.384  0.00  0.00    +0.210 HD
ENDBRANCH  50  51
BRANCH  49  53
ATOM     53  O   UNL     1       6.258   0.157  23.997  0.00  0.00    -0.384 OA
ATOM     54  H   UNL     1       6.311   1.135  23.937  0.00  0.00    +0.210 HD
ENDBRANCH  49  53
BRANCH  46  55
ATOM     55  C   UNL     1      10.393   2.534  23.181  0.00  0.00    +0.188 C 
BRANCH  55  56
ATOM     56  O   UNL     1      10.266   2.279  21.781  0.00  0.00    -0.392 OA
ATOM     57  H   UNL     1       9.887   1.382  21.717  0.00  0.00    +0.210 HD
ENDBRANCH  55  56
ENDBRANCH  46  55
BRANCH  45  58
ATOM     58  S   UNL     1       7.301   2.901  23.912  0.00  0.00    -0.118 S 
BRANCH  58  63
ATOM     59  C   UNL     1       4.621   3.020  26.836  0.00  0.00    +0.176 C 
ATOM     60  C   UNL     1       5.491   3.437  28.029  0.00  0.00    +0.176 C 
ATOM     61  C   UNL     1       6.447   4.555  27.590  0.00  0.00    +0.177 C 
ATOM     62  C   UNL     1       7.281   4.120  26.382  0.00  0.00    +0.184 C 
ATOM     63  C   UNL     1       6.332   3.622  25.277  0.00  0.00    +0.207 C 
ATOM     64  O   UNL     1       5.449   2.617  25.741  0.00  0.00    -0.355 OA
BRANCH  62  65
ATOM     65  O   UNL     1       8.096   5.240  25.992  0.00  0.00    -0.386 OA
ATOM     66  H   UNL     1       8.501   5.057  25.123  0.00  0.00    +0.210 HD
ENDBRANCH  62  65
BRANCH  61  67
ATOM     67  O   UNL     1       7.317   4.925  28.671  0.00  0.00    -0.386 OA
ATOM     68  H   UNL     1       6.811   5.550  29.225  0.00  0.00    +0.210 HD
ENDBRANCH  61  67
BRANCH  60  69
ATOM     69  O   UNL     1       4.643   3.868  29.097  0.00  0.00    -0.386 OA
ATOM     70  H   UNL     1       4.408   3.087  29.628  0.00  0.00    +0.210 HD
ENDBRANCH  60  69
BRANCH  59  71
ATOM     71  C   UNL     1       3.717   1.832  27.190  0.00  0.00    +0.190 C 
BRANCH  71  72
ATOM     72  O   UNL     1       4.305   1.083  28.257  0.00  0.00    -0.392 OA
ATOM     73  H   UNL     1       5.178   1.477  28.426  0.00  0.00    +0.210 HD
ENDBRANCH  71  72
ENDBRANCH  59  71
ENDBRANCH  58  63
ENDBRANCH  45  58
ENDBRANCH  44  48
ENDBRANCH   1  44
TORSDOF 30
ENDMDL
MODEL 8
REMARK VINA RESULT:      -4.7      2.593      4.721
REMARK  Name = 
REMARK  30 active torsions:
REMARK  status: ('A' for Active; 'I' for Inactive)
REMARK    1  A    between atoms: O_1  and  C_2
REMARK    2  A    between atoms: C_2  and  C_3
REMARK    3  A    between atoms: C_6  and  S_8
REMARK    4  A    between atoms: S_8  and  C_9
REMARK    5  A    between atoms: C_11  and  O_13
REMARK    6  A    between atoms: C_14  and  O_16
REMARK    7  A    between atoms: C_17  and  O_19
REMARK    8  A    between atoms: O_19  and  C_20
REMARK    9  A    between atoms: C_22  and  O_24
REMARK   10  A    between atoms: C_25  and  O_27
REMARK   11  A    between atoms: C_28  and  S_35
REMARK   12  A    between atoms: C_31  and  C_33
REMARK   13  A    between atoms: C_33  and  O_34
REMARK   14  A    between atoms: S_35  and  C_36
REMARK   15  A    between atoms: C_38  and  O_40
REMARK   16  A    between atoms: C_41  and  O_43
REMARK   17  A    between atoms: C_44  and  O_46
REMARK   18  A    between atoms: O_46  and  C_47
REMARK   19  A    between atoms: C_49  and  O_51
REMARK   20  A    between atoms: C_52  and  O_54
REMARK   21  A    between atoms: C_55  and  S_57
REMARK   22  A    between atoms: C_59  and  C_61
REMARK   23  A    between atoms: C_61  and  O_62
REMARK   24  A    between atoms: C_64  and  C_66
REMARK   25  A    between atoms: C_66  and  O_67
REMARK   26  A    between atoms: C_69  and  C_71
REMARK   27  A    between atoms: C_71  and  O_72
REMARK   28  A    between atoms: C_73  and  O_75
REMARK   29  A    between atoms: C_76  and  O_78
REMARK   30  A    between atoms: C_79  and  O_81
REMARK                            x       y       z     vdW  Elec       q    Type
REMARK                         _______ _______ _______ _____ _____    ______ ____
ROOT
ATOM      1  C   UNL     1       8.758   0.091  22.721  0.00  0.00    +0.183 C 
ATOM      2  C   UNL     1       9.613   1.118  23.494  0.00  0.00    +0.176 C 
ATOM      3  O   UNL     1       8.847   1.790  24.488  0.00  0.00    -0.355 OA
ATOM      4  C   UNL     1       7.695   2.466  23.990  0.00  0.00    +0.207 C 
ATOM      5  C   UNL     1       6.749   1.568  23.164  0.00  0.00    +0.184 C 
ATOM      6  C   UNL     1       7.536   0.794  22.100  0.00  0.00    +0.178 C 
ENDROOT
BRANCH   5   7
ATOM      7  O   UNL     1       6.017   0.655  23.990  0.00  0.00    -0.386 OA
ATOM      8  H   UNL     1       5.132   1.015  24.170  0.00  0.00    +0.210 HD
ENDBRANCH   5   7
BRANCH   6   9
ATOM      9  O   UNL     1       7.945   1.634  21.010  0.00  0.00    -0.386 OA
ATOM     10  H   UNL     1       8.266   2.485  21.353  0.00  0.00    +0.210 HD
ENDBRANCH   6   9
BRANCH   4  11
ATOM     11  S   UNL     1       8.152   3.960  23.017  0.00  0.00    -0.118 S 
BRANCH  11  12
ATOM     12  C   UNL     1       7.186   5.250  23.941  0.00  0.00    +0.111 C 
ATOM     13  C   UNL     1       6.546   4.662  25.211  0.00  0.00    +0.162 C 
ATOM     14  O   UNL     1       5.644   3.606  24.859  0.00  0.00    -0.342 OA
ATOM     15  C   UNL     1       4.570   4.002  23.992  0.00  0.00    +0.282 C 
ATOM     16  C   UNL     1       5.026   4.749  22.717  0.00  0.00    +0.200 C 
ATOM     17  C   UNL     1       6.055   5.831  23.079  0.00  0.00    +0.163 C 
BRANCH  16  18
ATOM     18  O   UNL     1       5.520   3.824  21.740  0.00  0.00    -0.384 OA
ATOM     19  H   UNL     1       5.905   3.058  22.214  0.00  0.00    +0.210 HD
ENDBRANCH  16  18
BRANCH  17  20
ATOM     20  O   UNL     1       5.493   6.957  23.757  0.00  0.00    -0.388 OA
ATOM     21  H   UNL     1       5.196   6.694  24.650  0.00  0.00    +0.210 HD
ENDBRANCH  17  20
BRANCH  13  22
ATOM     22  C   UNL     1       7.576   4.122  26.216  0.00  0.00    +0.188 C 
BRANCH  22  23
ATOM     23  O   UNL     1       8.582   5.107  26.450  0.00  0.00    -0.392 OA
ATOM     24  H   UNL     1       9.381   4.788  25.985  0.00  0.00    +0.210 HD
ENDBRANCH  22  23
ENDBRANCH  13  22
BRANCH  15  25
ATOM     25  O   UNL     1       3.609   4.761  24.732  0.00  0.00    -0.340 OA
BRANCH  25  26
ATOM     26  C   UNL     1       2.745   3.964  25.577  0.00  0.00    +0.183 C 
ATOM     27  C   UNL     1       1.312   4.544  25.497  0.00  0.00    +0.176 C 
ATOM     28  O   UNL     1       1.203   5.816  26.153  0.00  0.00    -0.356 OA
ATOM     29  C   UNL     1       1.626   5.838  27.526  0.00  0.00    +0.204 C 
ATOM     30  C   UNL     1       3.073   5.336  27.663  0.00  0.00    +0.184 C 
ATOM     31  C   UNL     1       3.235   3.941  27.042  0.00  0.00    +0.178 C 
BRANCH  29  32
ATOM     32  S   UNL     1       0.464   4.969  28.634  0.00  0.00    -0.145 S 
ATOM     33  H   UNL     1      -0.105   6.072  29.150  0.00  0.00    +0.104 HD
ENDBRANCH  29  32
BRANCH  30  34
ATOM     34  O   UNL     1       3.957   6.271  27.016  0.00  0.00    -0.386 OA
ATOM     35  H   UNL     1       4.315   5.837  26.208  0.00  0.00    +0.210 HD
ENDBRANCH  30  34
BRANCH  31  36
ATOM     36  O   UNL     1       2.595   2.898  27.784  0.00  0.00    -0.386 OA
ATOM     37  H   UNL     1       3.267   2.282  28.128  0.00  0.00    +0.210 HD
ENDBRANCH  31  36
BRANCH  27  38
ATOM     38  C   UNL     1       0.849   4.724  24.041  0.00  0.00    +0.190 C 
BRANCH  38  39
ATOM     39  O   UNL     1       1.242   3.610  23.248  0.00  0.00    -0.392 OA
ATOM     40  H   UNL     1       0.943   2.806  23.712  0.00  0.00    +0.210 HD
ENDBRANCH  38  39
ENDBRANCH  27  38
ENDBRANCH  25  26
ENDBRANCH  15  25
ENDBRANCH  11  12
ENDBRANCH   4  11
BRANCH   2  41
ATOM     41  C   UNL     1      10.847   0.505  24.153  0.00  0.00    +0.190 C 
BRANCH  41  42
ATOM     42  O   UNL     1      10.430  -0.292  25.255  0.00  0.00    -0.392 OA
ATOM     43  H   UNL     1      10.499   0.256  26.058  0.00  0.00    +0.210 HD
ENDBRANCH  41  42
ENDBRANCH   2  41
BRANCH   1  44
ATOM     44  O   UNL     1       8.419  -1.002  23.599  0.00  0.00    -0.340 OA
BRANCH  44  48
ATOM     45  C   UNL     1       7.084  -4.082  25.027  0.00  0.00    +0.111 C 
ATOM     46  C   UNL     1       6.570  -2.639  25.197  0.00  0.00    +0.162 C 
ATOM     47  O   UNL     1       6.319  -2.029  23.914  0.00  0.00    -0.342 OA
ATOM     48  C   UNL     1       7.481  -1.944  23.065  0.00  0.00    +0.282 C 
ATOM     49  C   UNL     1       8.129  -3.334  22.835  0.00  0.00    +0.200 C 
ATOM     50  C   UNL     1       8.372  -4.029  24.185  0.00  0.00    +0.163 C 
BRANCH  50  51
ATOM     51  O   UNL     1       9.413  -3.427  24.960  0.00  0.00    -0.388 OA
ATOM     52  H   UNL     1       9.619  -3.983  25.743  0.00  0.00    +0.210 HD
ENDBRANCH  50  51
BRANCH  49  53
ATOM     53  O   UNL     1       7.334  -4.141  21.955  0.00  0.00    -0.384 OA
ATOM     54  H   UNL     1       6.539  -4.417  22.461  0.00  0.00    +0.210 HD
ENDBRANCH  49  53
BRANCH  46  55
ATOM     55  C   UNL     1       5.288  -2.561  26.047  0.00  0.00    +0.188 C 
BRANCH  55  56
ATOM     56  O   UNL     1       4.320  -1.740  25.391  0.00  0.00    -0.392 OA
ATOM     57  H   UNL     1       4.681  -1.578  24.499  0.00  0.00    +0.210 HD
ENDBRANCH  55  56
ENDBRANCH  46  55
BRANCH  45  58
ATOM     58  S   UNL     1       5.781  -5.150  24.235  0.00  0.00    -0.118 S 
BRANCH  58  63
ATOM     59  C   UNL     1       2.342  -5.824  26.094  0.00  0.00    +0.176 C 
ATOM     60  C   UNL     1       2.735  -6.945  27.066  0.00  0.00    +0.176 C 
ATOM     61  C   UNL     1       4.092  -6.610  27.701  0.00  0.00    +0.177 C 
ATOM     62  C   UNL     1       5.155  -6.367  26.625  0.00  0.00    +0.184 C 
ATOM     63  C   UNL     1       4.632  -5.306  25.641  0.00  0.00    +0.207 C 
ATOM     64  O   UNL     1       3.364  -5.646  25.110  0.00  0.00    -0.355 OA
BRANCH  62  65
ATOM     65  O   UNL     1       6.372  -5.993  27.297  0.00  0.00    -0.386 OA
ATOM     66  H   UNL     1       7.001  -6.738  27.262  0.00  0.00    +0.210 HD
ENDBRANCH  62  65
BRANCH  61  67
ATOM     67  O   UNL     1       4.516  -7.670  28.570  0.00  0.00    -0.386 OA
ATOM     68  H   UNL     1       5.490  -7.704  28.502  0.00  0.00    +0.210 HD
ENDBRANCH  61  67
BRANCH  60  69
ATOM     69  O   UNL     1       1.715  -7.082  28.059  0.00  0.00    -0.386 OA
ATOM     70  H   UNL     1       1.896  -6.438  28.766  0.00  0.00    +0.210 HD
ENDBRANCH  60  69
BRANCH  59  71
ATOM     71  C   UNL     1       1.041  -6.158  25.352  0.00  0.00    +0.190 C 
BRANCH  71  72
ATOM     72  O   UNL     1       0.958  -7.570  25.140  0.00  0.00    -0.392 OA
ATOM     73  H   UNL     1       0.013  -7.799  25.156  0.00  0.00    +0.210 HD
ENDBRANCH  71  72
ENDBRANCH  59  71
ENDBRANCH  58  63
ENDBRANCH  45  58
ENDBRANCH  44  48
ENDBRANCH   1  44
TORSDOF 30
ENDMDL
MODEL 9
REMARK VINA RESULT:      -4.5      1.821      3.151
REMARK  Name = 
REMARK  30 active torsions:
REMARK  status: ('A' for Active; 'I' for Inactive)
REMARK    1  A    between atoms: O_1  and  C_2
REMARK    2  A    between atoms: C_2  and  C_3
REMARK    3  A    between atoms: C_6  and  S_8
REMARK    4  A    between atoms: S_8  and  C_9
REMARK    5  A    between atoms: C_11  and  O_13
REMARK    6  A    between atoms: C_14  and  O_16
REMARK    7  A    between atoms: C_17  and  O_19
REMARK    8  A    between atoms: O_19  and  C_20
REMARK    9  A    between atoms: C_22  and  O_24
REMARK   10  A    between atoms: C_25  and  O_27
REMARK   11  A    between atoms: C_28  and  S_35
REMARK   12  A    between atoms: C_31  and  C_33
REMARK   13  A    between atoms: C_33  and  O_34
REMARK   14  A    between atoms: S_35  and  C_36
REMARK   15  A    between atoms: C_38  and  O_40
REMARK   16  A    between atoms: C_41  and  O_43
REMARK   17  A    between atoms: C_44  and  O_46
REMARK   18  A    between atoms: O_46  and  C_47
REMARK   19  A    between atoms: C_49  and  O_51
REMARK   20  A    between atoms: C_52  and  O_54
REMARK   21  A    between atoms: C_55  and  S_57
REMARK   22  A    between atoms: C_59  and  C_61
REMARK   23  A    between atoms: C_61  and  O_62
REMARK   24  A    between atoms: C_64  and  C_66
REMARK   25  A    between atoms: C_66  and  O_67
REMARK   26  A    between atoms: C_69  and  C_71
REMARK   27  A    between atoms: C_71  and  O_72
REMARK   28  A    between atoms: C_73  and  O_75
REMARK   29  A    between atoms: C_76  and  O_78
REMARK   30  A    between atoms: C_79  and  O_81
REMARK                            x       y       z     vdW  Elec       q    Type
REMARK                         _______ _______ _______ _____ _____    ______ ____
ROOT
ATOM      1  C   UNL     1       7.252  -4.589  23.795  0.00  0.00    +0.183 C 
ATOM      2  C   UNL     1       8.747  -4.346  24.089  0.00  0.00    +0.176 C 
ATOM      3  O   UNL     1       8.928  -3.299  25.036  0.00  0.00    -0.355 OA
ATOM      4  C   UNL     1       8.349  -2.052  24.656  0.00  0.00    +0.207 C 
ATOM      5  C   UNL     1       6.849  -2.140  24.301  0.00  0.00    +0.184 C 
ATOM      6  C   UNL     1       6.598  -3.281  23.307  0.00  0.00    +0.178 C 
ENDROOT
BRANCH   5   7
ATOM      7  O   UNL     1       6.030  -2.316  25.463  0.00  0.00    -0.386 OA
ATOM      8  H   UNL     1       5.110  -2.083  25.252  0.00  0.00    +0.210 HD
ENDBRANCH   5   7
BRANCH   6   9
ATOM      9  O   UNL     1       7.055  -2.959  21.985  0.00  0.00    -0.386 OA
ATOM     10  H   UNL     1       6.856  -2.028  21.786  0.00  0.00    +0.210 HD
ENDBRANCH   6   9
BRANCH   4  11
ATOM     11  S   UNL     1       9.278  -1.265  23.277  0.00  0.00    -0.118 S 
BRANCH  11  12
ATOM     12  C   UNL     1       9.857   0.284  24.125  0.00  0.00    +0.111 C 
ATOM     13  C   UNL     1       8.699   0.980  24.862  0.00  0.00    +0.162 C 
ATOM     14  O   UNL     1       7.676   1.346  23.927  0.00  0.00    -0.342 OA
ATOM     15  C   UNL     1       8.108   2.237  22.887  0.00  0.00    +0.282 C 
ATOM     16  C   UNL     1       9.368   1.760  22.126  0.00  0.00    +0.200 C 
ATOM     17  C   UNL     1      10.439   1.290  23.121  0.00  0.00    +0.163 C 
BRANCH  16  18
ATOM     18  O   UNL     1       9.025   0.751  21.168  0.00  0.00    -0.384 OA
ATOM     19  H   UNL     1       9.724   0.732  20.483  0.00  0.00    +0.210 HD
ENDBRANCH  16  18
BRANCH  17  20
ATOM     20  O   UNL     1      11.058   2.355  23.847  0.00  0.00    -0.388 OA
ATOM     21  H   UNL     1      10.936   3.200  23.370  0.00  0.00    +0.210 HD
ENDBRANCH  17  20
BRANCH  13  22
ATOM     22  C   UNL     1       8.075   0.114  25.967  0.00  0.00    +0.188 C 
BRANCH  22  23
ATOM     23  O   UNL     1       6.823   0.673  26.367  0.00  0.00    -0.392 OA
ATOM     24  H   UNL     1       7.025   1.278  27.108  0.00  0.00    +0.210 HD
ENDBRANCH  22  23
ENDBRANCH  13  22
BRANCH  15  25
ATOM     25  O   UNL     1       8.282   3.553  23.421  0.00  0.00    -0.340 OA
BRANCH  25  26
ATOM     26  C   UNL     1       7.425   4.555  22.823  0.00  0.00    +0.183 C 
ATOM     27  C   UNL     1       7.781   5.931  23.436  0.00  0.00    +0.176 C 
ATOM     28  O   UNL     1       7.374   6.037  24.808  0.00  0.00    -0.356 OA
ATOM     29  C   UNL     1       5.984   5.774  25.060  0.00  0.00    +0.204 C 
ATOM     30  C   UNL     1       5.584   4.385  24.533  0.00  0.00    +0.184 C 
ATOM     31  C   UNL     1       5.929   4.238  23.044  0.00  0.00    +0.178 C 
BRANCH  29  32
ATOM     32  S   UNL     1       4.895   7.107  24.450  0.00  0.00    -0.145 S 
ATOM     33  H   UNL     1       3.771   6.372  24.403  0.00  0.00    +0.104 HD
ENDBRANCH  29  32
BRANCH  30  34
ATOM     34  O   UNL     1       6.270   3.378  25.302  0.00  0.00    -0.386 OA
ATOM     35  H   UNL     1       6.020   2.499  24.936  0.00  0.00    +0.210 HD
ENDBRANCH  30  34
BRANCH  31  36
ATOM     36  O   UNL     1       5.102   5.021  22.178  0.00  0.00    -0.386 OA
ATOM     37  H   UNL     1       5.499   5.902  22.055  0.00  0.00    +0.210 HD
ENDBRANCH  31  36
BRANCH  27  38
ATOM     38  C   UNL     1       9.292   6.212  23.370  0.00  0.00    +0.190 C 
BRANCH  38  39
ATOM     39  O   UNL     1       9.916   5.898  24.610  0.00  0.00    -0.392 OA
ATOM     40  H   UNL     1      10.873   5.813  24.438  0.00  0.00    +0.210 HD
ENDBRANCH  38  39
ENDBRANCH  27  38
ENDBRANCH  25  26
ENDBRANCH  15  25
ENDBRANCH  11  12
ENDBRANCH   4  11
BRANCH   2  41
ATOM     41  C   UNL     1       9.476  -5.593  24.588  0.00  0.00    +0.190 C 
BRANCH  41  42
ATOM     42  O   UNL     1      10.191  -5.263  25.772  0.00  0.00    -0.392 OA
ATOM     43  H   UNL     1       9.612  -5.457  26.531  0.00  0.00    +0.210 HD
ENDBRANCH  41  42
ENDBRANCH   2  41
BRANCH   1  44
ATOM     44  O   UNL     1       6.623  -5.156  24.962  0.00  0.00    -0.340 OA
BRANCH  44  48
ATOM     45  C   UNL     1       3.612  -7.147  25.492  0.00  0.00    +0.111 C 
ATOM     46  C   UNL     1       4.640  -6.657  26.532  0.00  0.00    +0.162 C 
ATOM     47  O   UNL     1       4.800  -5.226  26.459  0.00  0.00    -0.342 OA
ATOM     48  C   UNL     1       5.266  -4.750  25.181  0.00  0.00    +0.282 C 
ATOM     49  C   UNL     1       4.337  -5.204  24.024  0.00  0.00    +0.200 C 
ATOM     50  C   UNL     1       4.112  -6.723  24.099  0.00  0.00    +0.163 C 
BRANCH  50  51
ATOM     51  O   UNL     1       5.271  -7.490  23.763  0.00  0.00    -0.388 OA
ATOM     52  H   UNL     1       6.004  -6.897  23.488  0.00  0.00    +0.210 HD
ENDBRANCH  50  51
BRANCH  49  53
ATOM     53  O   UNL     1       3.099  -4.480  24.036  0.00  0.00    -0.384 OA
ATOM     54  H   UNL     1       3.104  -3.892  23.250  0.00  0.00    +0.210 HD
ENDBRANCH  49  53
BRANCH  46  55
ATOM     55  C   UNL     1       4.257  -7.045  27.972  0.00  0.00    +0.188 C 
BRANCH  55  56
ATOM     56  O   UNL     1       5.329  -6.726  28.862  0.00  0.00    -0.392 OA
ATOM     57  H   UNL     1       5.776  -5.957  28.460  0.00  0.00    +0.210 HD
ENDBRANCH  55  56
ENDBRANCH  46  55
BRANCH  45  58
ATOM     58  S   UNL     1       1.925  -6.455  25.865  0.00  0.00    -0.118 S 
BRANCH  58  63
ATOM     59  C   UNL     1       2.778  -3.169  27.918  0.00  0.00    +0.176 C 
ATOM     60  C   UNL     1       1.675  -3.181  28.984  0.00  0.00    +0.176 C 
ATOM     61  C   UNL     1       1.512  -4.607  29.527  0.00  0.00    +0.177 C 
ATOM     62  C   UNL     1       1.240  -5.598  28.391  0.00  0.00    +0.184 C 
ATOM     63  C   UNL     1       2.337  -5.443  27.324  0.00  0.00    +0.207 C 
ATOM     64  O   UNL     1       2.469  -4.104  26.882  0.00  0.00    -0.355 OA
BRANCH  62  65
ATOM     65  O   UNL     1       1.170  -6.913  28.972  0.00  0.00    -0.386 OA
ATOM     66  H   UNL     1       1.634  -7.546  28.392  0.00  0.00    +0.210 HD
ENDBRANCH  62  65
BRANCH  61  67
ATOM     67  O   UNL     1       0.444  -4.662  30.484  0.00  0.00    -0.386 OA
ATOM     68  H   UNL     1      -0.214  -3.999  30.196  0.00  0.00    +0.210 HD
ENDBRANCH  61  67
BRANCH  60  69
ATOM     69  O   UNL     1       2.021  -2.264  30.026  0.00  0.00    -0.386 OA
ATOM     70  H   UNL     1       2.738  -2.662  30.551  0.00  0.00    +0.210 HD
ENDBRANCH  60  69
BRANCH  59  71
ATOM     71  C   UNL     1       2.911  -1.786  27.266  0.00  0.00    +0.190 C 
BRANCH  71  72
ATOM     72  O   UNL     1       3.041  -1.935  25.849  0.00  0.00    -0.392 OA
ATOM     73  H   UNL     1       2.241  -2.395  25.543  0.00  0.00    +0.210 HD
ENDBRANCH  71  72
ENDBRANCH  59  71
ENDBRANCH  58  63
ENDBRANCH  45  58
ENDBRANCH  44  48
ENDBRANCH   1  44
TORSDOF 30
ENDMDL
