MODEL 1
REMARK VINA RESULT:      -6.7      0.000      0.000
REMARK  Name = 
REMARK  15 active torsions:
REMARK  status: ('A' for Active; 'I' for Inactive)
REMARK    1  A    between atoms: C_1  and  O_2
REMARK    2  A    between atoms: O_2  and  C_3
REMARK    3  A    between atoms: C_5  and  C_13
REMARK    4  A    between atoms: C_7  and  O_8
REMARK    5  A    between atoms: O_8  and  C_9
REMARK    6  A    between atoms: C_10  and  O_11
REMARK    7  A    between atoms: O_11  and  C_12
REMARK    8  A    between atoms: N_15  and  C_16
REMARK    9  A    between atoms: C_16  and  C_17
REMARK   10  A    between atoms: C_20  and  O_21
REMARK   11  A    between atoms: O_21  and  C_22
REMARK   12  A    between atoms: C_22  and  C_23
REMARK   13  A    between atoms: C_23  and  N_24
REMARK   14  A    between atoms: N_24  and  C_25
REMARK   15  A    between atoms: N_24  and  C_26
REMARK                            x       y       z     vdW  Elec       q    Type
REMARK                         _______ _______ _______ _____ _____    ______ ____
ROOT
ATOM      1  C   UNL     1       9.102  -3.691  24.019  0.00  0.00    +0.245 C 
ATOM      2  N   UNL     1       9.205  -2.604  23.180  0.00  0.00    -0.307 N 
ATOM      3  H   UNL     1       8.373  -2.193  22.777  0.00  0.00    +0.149 HD
ATOM      4  O   UNL     1      10.032  -4.089  24.710  0.00  0.00    -0.270 OA
ENDROOT
BRANCH   1   9
ATOM      5  C   UNL     1       6.067  -5.389  25.491  0.00  0.00    +0.166 A 
ATOM      6  C   UNL     1       5.327  -5.760  24.343  0.00  0.00    +0.204 A 
ATOM      7  C   UNL     1       5.822  -5.385  23.069  0.00  0.00    +0.166 A 
ATOM      8  C   UNL     1       7.038  -4.688  22.955  0.00  0.00    +0.062 A 
ATOM      9  C   UNL     1       7.782  -4.369  24.087  0.00  0.00    +0.044 A 
ATOM     10  C   UNL     1       7.299  -4.732  25.344  0.00  0.00    +0.062 A 
BRANCH   5  12
ATOM     11  C   UNL     1       6.487  -5.584  27.832  0.00  0.00    +0.277 C 
ATOM     12  O   UNL     1       5.586  -5.717  26.735  0.00  0.00    -0.491 OA
ENDBRANCH   5  12
BRANCH   6  13
ATOM     13  O   UNL     1       4.157  -6.471  24.337  0.00  0.00    -0.488 OA
ATOM     14  C   UNL     1       2.894  -5.836  24.447  0.00  0.00    +0.277 C 
ENDBRANCH   6  13
BRANCH   7  15
ATOM     15  O   UNL     1       5.272  -5.611  21.831  0.00  0.00    -0.491 OA
ATOM     16  C   UNL     1       6.116  -5.847  20.714  0.00  0.00    +0.277 C 
ENDBRANCH   7  15
ENDBRANCH   1   9
BRANCH   2  17
ATOM     17  C   UNL     1      10.433  -1.844  23.132  0.00  0.00    +0.139 C 
BRANCH  17  18
ATOM     18  C   UNL     1      10.145  -0.368  23.090  0.00  0.00    -0.030 A 
ATOM     19  C   UNL     1       9.520   0.232  21.990  0.00  0.00    +0.009 A 
ATOM     20  C   UNL     1       9.193   1.594  22.014  0.00  0.00    +0.046 A 
ATOM     21  C   UNL     1       9.478   2.369  23.140  0.00  0.00    +0.121 A 
ATOM     22  C   UNL     1      10.130   1.768  24.226  0.00  0.00    +0.046 A 
ATOM     23  C   UNL     1      10.453   0.414  24.205  0.00  0.00    +0.009 A 
BRANCH  21  24
ATOM     24  O   UNL     1       9.077   3.686  23.100  0.00  0.00    -0.491 OA
BRANCH  24  25
ATOM     25  C   UNL     1       9.715   4.506  24.089  0.00  0.00    +0.244 C 
BRANCH  25  26
ATOM     26  C   UNL     1      10.146   5.881  23.568  0.00  0.00    +0.124 C 
BRANCH  26  27
ATOM     27  N   UNL     1      11.621   6.041  23.607  0.00  0.00    -0.305 NA
ATOM     28  C   UNL     1      12.285   4.769  23.317  0.00  0.00    +0.104 C 
ATOM     29  C   UNL     1      12.097   6.567  24.889  0.00  0.00    +0.104 C 
ENDBRANCH  26  27
ENDBRANCH  25  26
ENDBRANCH  24  25
ENDBRANCH  21  24
ENDBRANCH  17  18
ENDBRANCH   2  17
TORSDOF 10
ENDMDL
MODEL 2
REMARK VINA RESULT:      -6.7      0.490      2.737
REMARK  Name = 
REMARK  15 active torsions:
REMARK  status: ('A' for Active; 'I' for Inactive)
REMARK    1  A    between atoms: C_1  and  O_2
REMARK    2  A    between atoms: O_2  and  C_3
REMARK    3  A    between atoms: C_5  and  C_13
REMARK    4  A    between atoms: C_7  and  O_8
REMARK    5  A    between atoms: O_8  and  C_9
REMARK    6  A    between atoms: C_10  and  O_11
REMARK    7  A    between atoms: O_11  and  C_12
REMARK    8  A    between atoms: N_15  and  C_16
REMARK    9  A    between atoms: C_16  and  C_17
REMARK   10  A    between atoms: C_20  and  O_21
REMARK   11  A    between atoms: O_21  and  C_22
REMARK   12  A    between atoms: C_22  and  C_23
REMARK   13  A    between atoms: C_23  and  N_24
REMARK   14  A    between atoms: N_24  and  C_25
REMARK   15  A    between atoms: N_24  and  C_26
REMARK                            x       y       z     vdW  Elec       q    Type
REMARK                         _______ _______ _______ _____ _____    ______ ____
ROOT
ATOM      1  C   UNL     1       9.129  -3.785  24.191  0.00  0.00    +0.245 C 
ATOM      2  N   UNL     1       9.054  -2.575  23.537  0.00  0.00    -0.307 N 
ATOM      3  H   UNL     1       8.153  -2.188  23.287  0.00  0.00    +0.149 HD
ATOM      4  O   UNL     1      10.156  -4.196  24.716  0.00  0.00    -0.270 OA
ENDROOT
BRANCH   1   9
ATOM      5  C   UNL     1       5.958  -5.512  23.084  0.00  0.00    +0.166 A 
ATOM      6  C   UNL     1       5.434  -6.016  24.297  0.00  0.00    +0.204 A 
ATOM      7  C   UNL     1       6.181  -5.825  25.487  0.00  0.00    +0.166 A 
ATOM      8  C   UNL     1       7.399  -5.122  25.458  0.00  0.00    +0.062 A 
ATOM      9  C   UNL     1       7.882  -4.589  24.267  0.00  0.00    +0.044 A 
ATOM     10  C   UNL     1       7.154  -4.776  23.091  0.00  0.00    +0.062 A 
BRANCH   5  12
ATOM     11  C   UNL     1       6.022  -5.760  20.711  0.00  0.00    +0.277 C 
ATOM     12  O   UNL     1       5.263  -5.715  21.916  0.00  0.00    -0.491 OA
ENDBRANCH   5  12
BRANCH   6  13
ATOM     13  O   UNL     1       4.245  -6.676  24.446  0.00  0.00    -0.488 OA
ATOM     14  C   UNL     1       3.027  -5.985  24.673  0.00  0.00    +0.277 C 
ENDBRANCH   6  13
BRANCH   7  15
ATOM     15  O   UNL     1       5.888  -6.240  26.764  0.00  0.00    -0.491 OA
ATOM     16  C   UNL     1       6.276  -5.443  27.873  0.00  0.00    +0.277 C 
ENDBRANCH   7  15
ENDBRANCH   1   9
BRANCH   2  17
ATOM     17  C   UNL     1      10.206  -1.703  23.502  0.00  0.00    +0.139 C 
BRANCH  17  18
ATOM     18  C   UNL     1       9.781  -0.264  23.394  0.00  0.00    -0.030 A 
ATOM     19  C   UNL     1       9.332   0.459  24.506  0.00  0.00    +0.009 A 
ATOM     20  C   UNL     1       9.021   1.821  24.390  0.00  0.00    +0.046 A 
ATOM     21  C   UNL     1       9.161   2.475  23.165  0.00  0.00    +0.121 A 
ATOM     22  C   UNL     1       9.582   1.738  22.050  0.00  0.00    +0.046 A 
ATOM     23  C   UNL     1       9.896   0.386  22.164  0.00  0.00    +0.009 A 
BRANCH  21  24
ATOM     24  O   UNL     1       8.881   3.824  23.150  0.00  0.00    -0.491 OA
BRANCH  24  25
ATOM     25  C   UNL     1       9.604   4.566  24.142  0.00  0.00    +0.244 C 
BRANCH  25  26
ATOM     26  C   UNL     1      10.485   5.678  23.561  0.00  0.00    +0.124 C 
BRANCH  26  27
ATOM     27  N   UNL     1      11.900   5.528  23.981  0.00  0.00    -0.305 NA
ATOM     28  C   UNL     1      12.296   6.630  24.860  0.00  0.00    +0.104 C 
ATOM     29  C   UNL     1      12.821   5.446  22.844  0.00  0.00    +0.104 C 
ENDBRANCH  26  27
ENDBRANCH  25  26
ENDBRANCH  24  25
ENDBRANCH  21  24
ENDBRANCH  17  18
ENDBRANCH   2  17
TORSDOF 10
ENDMDL
MODEL 3
REMARK VINA RESULT:      -6.5      1.771      2.563
REMARK  Name = 
REMARK  15 active torsions:
REMARK  status: ('A' for Active; 'I' for Inactive)
REMARK    1  A    between atoms: C_1  and  O_2
REMARK    2  A    between atoms: O_2  and  C_3
REMARK    3  A    between atoms: C_5  and  C_13
REMARK    4  A    between atoms: C_7  and  O_8
REMARK    5  A    between atoms: O_8  and  C_9
REMARK    6  A    between atoms: C_10  and  O_11
REMARK    7  A    between atoms: O_11  and  C_12
REMARK    8  A    between atoms: N_15  and  C_16
REMARK    9  A    between atoms: C_16  and  C_17
REMARK   10  A    between atoms: C_20  and  O_21
REMARK   11  A    between atoms: O_21  and  C_22
REMARK   12  A    between atoms: C_22  and  C_23
REMARK   13  A    between atoms: C_23  and  N_24
REMARK   14  A    between atoms: N_24  and  C_25
REMARK   15  A    between atoms: N_24  and  C_26
REMARK                            x       y       z     vdW  Elec       q    Type
REMARK                         _______ _______ _______ _____ _____    ______ ____
ROOT
ATOM      1  C   UNL     1       9.097  -4.062  24.599  0.00  0.00    +0.245 C 
ATOM      2  N   UNL     1       9.020  -2.908  23.850  0.00  0.00    -0.307 N 
ATOM      3  H   UNL     1       8.163  -2.371  23.831  0.00  0.00    +0.149 HD
ATOM      4  O   UNL     1      10.155  -4.627  24.844  0.00  0.00    -0.270 OA
ENDROOT
BRANCH   1   9
ATOM      5  C   UNL     1       6.516  -5.181  27.117  0.00  0.00    +0.166 A 
ATOM      6  C   UNL     1       5.484  -5.701  26.300  0.00  0.00    +0.204 A 
ATOM      7  C   UNL     1       5.631  -5.622  24.892  0.00  0.00    +0.166 A 
ATOM      8  C   UNL     1       6.793  -5.065  24.329  0.00  0.00    +0.062 A 
ATOM      9  C   UNL     1       7.823  -4.600  25.141  0.00  0.00    +0.044 A 
ATOM     10  C   UNL     1       7.684  -4.672  26.527  0.00  0.00    +0.062 A 
BRANCH   5  12
ATOM     11  C   UNL     1       6.412  -6.507  29.099  0.00  0.00    +0.277 C 
ATOM     12  O   UNL     1       6.376  -5.222  28.483  0.00  0.00    -0.491 OA
ENDBRANCH   5  12
BRANCH   6  13
ATOM     13  O   UNL     1       4.334  -6.299  26.741  0.00  0.00    -0.488 OA
ATOM     14  C   UNL     1       3.183  -5.545  27.086  0.00  0.00    +0.277 C 
ENDBRANCH   6  13
BRANCH   7  15
ATOM     15  O   UNL     1       4.763  -6.035  23.911  0.00  0.00    -0.491 OA
ATOM     16  C   UNL     1       3.813  -5.124  23.379  0.00  0.00    +0.277 C 
ENDBRANCH   7  15
ENDBRANCH   1   9
BRANCH   2  17
ATOM     17  C   UNL     1      10.230  -2.282  23.366  0.00  0.00    +0.139 C 
BRANCH  17  18
ATOM     18  C   UNL     1      10.088  -0.784  23.360  0.00  0.00    -0.030 A 
ATOM     19  C   UNL     1      10.221  -0.024  24.529  0.00  0.00    +0.009 A 
ATOM     20  C   UNL     1      10.163   1.375  24.477  0.00  0.00    +0.046 A 
ATOM     21  C   UNL     1       9.981   2.030  23.257  0.00  0.00    +0.121 A 
ATOM     22  C   UNL     1       9.820   1.262  22.097  0.00  0.00    +0.046 A 
ATOM     23  C   UNL     1       9.880  -0.129  22.145  0.00  0.00    +0.009 A 
BRANCH  21  24
ATOM     24  O   UNL     1       9.987   3.407  23.290  0.00  0.00    -0.491 OA
BRANCH  24  25
ATOM     25  C   UNL     1       9.225   3.954  24.373  0.00  0.00    +0.244 C 
BRANCH  25  26
ATOM     26  C   UNL     1       7.778   4.299  24.000  0.00  0.00    +0.124 C 
BRANCH  26  27
ATOM     27  N   UNL     1       7.597   4.369  22.529  0.00  0.00    -0.305 NA
ATOM     28  C   UNL     1       7.291   5.739  22.113  0.00  0.00    +0.104 C 
ATOM     29  C   UNL     1       6.554   3.461  22.045  0.00  0.00    +0.104 C 
ENDBRANCH  26  27
ENDBRANCH  25  26
ENDBRANCH  24  25
ENDBRANCH  21  24
ENDBRANCH  17  18
ENDBRANCH   2  17
TORSDOF 10
ENDMDL
MODEL 4
REMARK VINA RESULT:      -6.5      1.582      2.062
REMARK  Name = 
REMARK  15 active torsions:
REMARK  status: ('A' for Active; 'I' for Inactive)
REMARK    1  A    between atoms: C_1  and  O_2
REMARK    2  A    between atoms: O_2  and  C_3
REMARK    3  A    between atoms: C_5  and  C_13
REMARK    4  A    between atoms: C_7  and  O_8
REMARK    5  A    between atoms: O_8  and  C_9
REMARK    6  A    between atoms: C_10  and  O_11
REMARK    7  A    between atoms: O_11  and  C_12
REMARK    8  A    between atoms: N_15  and  C_16
REMARK    9  A    between atoms: C_16  and  C_17
REMARK   10  A    between atoms: C_20  and  O_21
REMARK   11  A    between atoms: O_21  and  C_22
REMARK   12  A    between atoms: C_22  and  C_23
REMARK   13  A    between atoms: C_23  and  N_24
REMARK   14  A    between atoms: N_24  and  C_25
REMARK   15  A    between atoms: N_24  and  C_26
REMARK                            x       y       z     vdW  Elec       q    Type
REMARK                         _______ _______ _______ _____ _____    ______ ____
ROOT
ATOM      1  C   UNL     1       9.091  -3.388  23.887  0.00  0.00    +0.245 C 
ATOM      2  N   UNL     1       9.161  -2.375  22.957  0.00  0.00    -0.307 N 
ATOM      3  H   UNL     1       8.315  -1.924  22.633  0.00  0.00    +0.149 HD
ATOM      4  O   UNL     1      10.073  -3.814  24.482  0.00  0.00    -0.270 OA
ENDROOT
BRANCH   1   9
ATOM      5  C   UNL     1       6.028  -4.397  25.851  0.00  0.00    +0.166 A 
ATOM      6  C   UNL     1       5.240  -5.065  24.884  0.00  0.00    +0.204 A 
ATOM      7  C   UNL     1       5.715  -5.126  23.550  0.00  0.00    +0.166 A 
ATOM      8  C   UNL     1       6.957  -4.560  23.210  0.00  0.00    +0.062 A 
ATOM      9  C   UNL     1       7.745  -3.946  24.178  0.00  0.00    +0.044 A 
ATOM     10  C   UNL     1       7.283  -3.879  25.492  0.00  0.00    +0.062 A 
BRANCH   5  12
ATOM     11  C   UNL     1       6.108  -5.219  28.090  0.00  0.00    +0.277 C 
ATOM     12  O   UNL     1       5.568  -4.301  27.142  0.00  0.00    -0.491 OA
ENDBRANCH   5  12
BRANCH   6  13
ATOM     13  O   UNL     1       4.041  -5.684  25.113  0.00  0.00    -0.488 OA
ATOM     14  C   UNL     1       3.964  -7.039  25.525  0.00  0.00    +0.277 C 
ENDBRANCH   6  13
BRANCH   7  15
ATOM     15  O   UNL     1       5.121  -5.695  22.449  0.00  0.00    -0.491 OA
ATOM     16  C   UNL     1       5.894  -5.968  21.290  0.00  0.00    +0.277 C 
ENDBRANCH   7  15
ENDBRANCH   1   9
BRANCH   2  17
ATOM     17  C   UNL     1      10.425  -1.727  22.690  0.00  0.00    +0.139 C 
BRANCH  17  18
ATOM     18  C   UNL     1      10.325  -0.245  22.930  0.00  0.00    -0.030 A 
ATOM     19  C   UNL     1       9.900   0.638  21.930  0.00  0.00    +0.009 A 
ATOM     20  C   UNL     1       9.739   2.002  22.208  0.00  0.00    +0.046 A 
ATOM     21  C   UNL     1       9.994   2.497  23.488  0.00  0.00    +0.121 A 
ATOM     22  C   UNL     1      10.447   1.611  24.476  0.00  0.00    +0.046 A 
ATOM     23  C   UNL     1      10.604   0.255  24.203  0.00  0.00    +0.009 A 
BRANCH  21  24
ATOM     24  O   UNL     1       9.763   3.840  23.688  0.00  0.00    -0.491 OA
BRANCH  24  25
ATOM     25  C   UNL     1       8.693   4.103  24.605  0.00  0.00    +0.244 C 
BRANCH  25  26
ATOM     26  C   UNL     1       7.623   5.051  24.051  0.00  0.00    +0.124 C 
BRANCH  26  27
ATOM     27  N   UNL     1       7.470   4.902  22.583  0.00  0.00    -0.305 NA
ATOM     28  C   UNL     1       7.152   6.191  21.965  0.00  0.00    +0.104 C 
ATOM     29  C   UNL     1       6.450   3.915  22.220  0.00  0.00    +0.104 C 
ENDBRANCH  26  27
ENDBRANCH  25  26
ENDBRANCH  24  25
ENDBRANCH  21  24
ENDBRANCH  17  18
ENDBRANCH   2  17
TORSDOF 10
ENDMDL
MODEL 5
REMARK VINA RESULT:      -6.4      1.967      3.487
REMARK  Name = 
REMARK  15 active torsions:
REMARK  status: ('A' for Active; 'I' for Inactive)
REMARK    1  A    between atoms: C_1  and  O_2
REMARK    2  A    between atoms: O_2  and  C_3
REMARK    3  A    between atoms: C_5  and  C_13
REMARK    4  A    between atoms: C_7  and  O_8
REMARK    5  A    between atoms: O_8  and  C_9
REMARK    6  A    between atoms: C_10  and  O_11
REMARK    7  A    between atoms: O_11  and  C_12
REMARK    8  A    between atoms: N_15  and  C_16
REMARK    9  A    between atoms: C_16  and  C_17
REMARK   10  A    between atoms: C_20  and  O_21
REMARK   11  A    between atoms: O_21  and  C_22
REMARK   12  A    between atoms: C_22  and  C_23
REMARK   13  A    between atoms: C_23  and  N_24
REMARK   14  A    between atoms: N_24  and  C_25
REMARK   15  A    between atoms: N_24  and  C_26
REMARK                            x       y       z     vdW  Elec       q    Type
REMARK                         _______ _______ _______ _____ _____    ______ ____
ROOT
ATOM      1  C   UNL     1       9.074  -4.235  24.760  0.00  0.00    +0.245 C 
ATOM      2  N   UNL     1       8.986  -3.016  24.124  0.00  0.00    -0.307 N 
ATOM      3  H   UNL     1       8.147  -2.458  24.210  0.00  0.00    +0.149 HD
ATOM      4  O   UNL     1      10.127  -4.847  24.883  0.00  0.00    -0.270 OA
ENDROOT
BRANCH   1   9
ATOM      5  C   UNL     1       5.601  -5.709  24.916  0.00  0.00    +0.166 A 
ATOM      6  C   UNL     1       5.344  -5.763  26.307  0.00  0.00    +0.204 A 
ATOM      7  C   UNL     1       6.368  -5.356  27.200  0.00  0.00    +0.166 A 
ATOM      8  C   UNL     1       7.596  -4.881  26.705  0.00  0.00    +0.062 A 
ATOM      9  C   UNL     1       7.821  -4.787  25.336  0.00  0.00    +0.044 A 
ATOM     10  C   UNL     1       6.820  -5.190  24.451  0.00  0.00    +0.062 A 
BRANCH   5  12
ATOM     11  C   UNL     1       3.932  -5.119  23.316  0.00  0.00    +0.277 C 
ATOM     12  O   UNL     1       4.632  -6.129  24.038  0.00  0.00    -0.491 OA
ENDBRANCH   5  12
BRANCH   6  13
ATOM     13  O   UNL     1       4.176  -6.168  26.893  0.00  0.00    -0.488 OA
ATOM     14  C   UNL     1       3.095  -5.274  27.105  0.00  0.00    +0.277 C 
ENDBRANCH   6  13
BRANCH   7  15
ATOM     15  O   UNL     1       6.357  -5.342  28.573  0.00  0.00    -0.491 OA
ATOM     16  C   UNL     1       6.328  -6.565  29.293  0.00  0.00    +0.277 C 
ENDBRANCH   7  15
ENDBRANCH   1   9
BRANCH   2  17
ATOM     17  C   UNL     1      10.181  -2.380  23.619  0.00  0.00    +0.139 C 
BRANCH  17  18
ATOM     18  C   UNL     1       9.987  -0.892  23.511  0.00  0.00    -0.030 A 
ATOM     19  C   UNL     1       9.900  -0.074  24.644  0.00  0.00    +0.009 A 
ATOM     20  C   UNL     1       9.800   1.318  24.509  0.00  0.00    +0.046 A 
ATOM     21  C   UNL     1       9.794   1.907  23.243  0.00  0.00    +0.121 A 
ATOM     22  C   UNL     1       9.853   1.079  22.114  0.00  0.00    +0.046 A 
ATOM     23  C   UNL     1       9.955  -0.304  22.245  0.00  0.00    +0.009 A 
BRANCH  21  24
ATOM     24  O   UNL     1       9.744   3.282  23.203  0.00  0.00    -0.491 OA
BRANCH  24  25
ATOM     25  C   UNL     1       8.456   3.815  23.540  0.00  0.00    +0.244 C 
BRANCH  25  26
ATOM     26  C   UNL     1       7.534   4.013  22.331  0.00  0.00    +0.124 C 
BRANCH  26  27
ATOM     27  N   UNL     1       6.942   5.373  22.315  0.00  0.00    -0.305 NA
ATOM     28  C   UNL     1       7.970   6.386  22.559  0.00  0.00    +0.104 C 
ATOM     29  C   UNL     1       5.856   5.527  23.286  0.00  0.00    +0.104 C 
ENDBRANCH  26  27
ENDBRANCH  25  26
ENDBRANCH  24  25
ENDBRANCH  21  24
ENDBRANCH  17  18
ENDBRANCH   2  17
TORSDOF 10
ENDMDL
MODEL 6
REMARK VINA RESULT:      -6.4      1.656      3.468
REMARK  Name = 
REMARK  15 active torsions:
REMARK  status: ('A' for Active; 'I' for Inactive)
REMARK    1  A    between atoms: C_1  and  O_2
REMARK    2  A    between atoms: O_2  and  C_3
REMARK    3  A    between atoms: C_5  and  C_13
REMARK    4  A    between atoms: C_7  and  O_8
REMARK    5  A    between atoms: O_8  and  C_9
REMARK    6  A    between atoms: C_10  and  O_11
REMARK    7  A    between atoms: O_11  and  C_12
REMARK    8  A    between atoms: N_15  and  C_16
REMARK    9  A    between atoms: C_16  and  C_17
REMARK   10  A    between atoms: C_20  and  O_21
REMARK   11  A    between atoms: O_21  and  C_22
REMARK   12  A    between atoms: C_22  and  C_23
REMARK   13  A    between atoms: C_23  and  N_24
REMARK   14  A    between atoms: N_24  and  C_25
REMARK   15  A    between atoms: N_24  and  C_26
REMARK                            x       y       z     vdW  Elec       q    Type
REMARK                         _______ _______ _______ _____ _____    ______ ____
ROOT
ATOM      1  C   UNL     1       9.079  -3.323  23.736  0.00  0.00    +0.245 C 
ATOM      2  N   UNL     1       9.136  -2.364  22.749  0.00  0.00    -0.307 N 
ATOM      3  H   UNL     1       8.284  -2.015  22.330  0.00  0.00    +0.149 HD
ATOM      4  O   UNL     1      10.042  -3.619  24.433  0.00  0.00    -0.270 OA
ENDROOT
BRANCH   1   9
ATOM      5  C   UNL     1       5.866  -5.152  22.972  0.00  0.00    +0.166 A 
ATOM      6  C   UNL     1       5.217  -5.187  24.229  0.00  0.00    +0.204 A 
ATOM      7  C   UNL     1       5.890  -4.644  25.353  0.00  0.00    +0.166 A 
ATOM      8  C   UNL     1       7.160  -4.058  25.206  0.00  0.00    +0.062 A 
ATOM      9  C   UNL     1       7.768  -3.986  23.957  0.00  0.00    +0.044 A 
ATOM     10  C   UNL     1       7.114  -4.522  22.848  0.00  0.00    +0.062 A 
BRANCH   5  12
ATOM     11  C   UNL     1       6.037  -5.904  20.714  0.00  0.00    +0.277 C 
ATOM     12  O   UNL     1       5.241  -5.702  21.879  0.00  0.00    -0.491 OA
ENDBRANCH   5  12
BRANCH   6  13
ATOM     13  O   UNL     1       3.970  -5.695  24.476  0.00  0.00    -0.488 OA
ATOM     14  C   UNL     1       2.797  -4.913  24.315  0.00  0.00    +0.277 C 
ENDBRANCH   6  13
BRANCH   7  15
ATOM     15  O   UNL     1       5.474  -4.586  26.661  0.00  0.00    -0.491 OA
ATOM     16  C   UNL     1       6.228  -5.237  27.672  0.00  0.00    +0.277 C 
ENDBRANCH   7  15
ENDBRANCH   1   9
BRANCH   2  17
ATOM     17  C   UNL     1      10.355  -1.617  22.539  0.00  0.00    +0.139 C 
BRANCH  17  18
ATOM     18  C   UNL     1      10.155  -0.165  22.878  0.00  0.00    -0.030 A 
ATOM     19  C   UNL     1      10.367   0.328  24.171  0.00  0.00    +0.009 A 
ATOM     20  C   UNL     1      10.251   1.699  24.437  0.00  0.00    +0.046 A 
ATOM     21  C   UNL     1       9.930   2.592  23.413  0.00  0.00    +0.121 A 
ATOM     22  C   UNL     1       9.691   2.087  22.128  0.00  0.00    +0.046 A 
ATOM     23  C   UNL     1       9.809   0.726  21.860  0.00  0.00    +0.009 A 
BRANCH  21  24
ATOM     24  O   UNL     1       9.886   3.927  23.750  0.00  0.00    -0.491 OA
BRANCH  24  25
ATOM     25  C   UNL     1       8.612   4.535  23.499  0.00  0.00    +0.244 C 
BRANCH  25  26
ATOM     26  C   UNL     1       7.531   4.147  24.514  0.00  0.00    +0.124 C 
BRANCH  26  27
ATOM     27  N   UNL     1       6.377   3.487  23.857  0.00  0.00    -0.305 NA
ATOM     28  C   UNL     1       6.368   2.052  24.150  0.00  0.00    +0.104 C 
ATOM     29  C   UNL     1       6.359   3.694  22.406  0.00  0.00    +0.104 C 
ENDBRANCH  26  27
ENDBRANCH  25  26
ENDBRANCH  24  25
ENDBRANCH  21  24
ENDBRANCH  17  18
ENDBRANCH   2  17
TORSDOF 10
ENDMDL
MODEL 7
REMARK VINA RESULT:      -6.4      2.615      9.992
REMARK  Name = 
REMARK  15 active torsions:
REMARK  status: ('A' for Active; 'I' for Inactive)
REMARK    1  A    between atoms: C_1  and  O_2
REMARK    2  A    between atoms: O_2  and  C_3
REMARK    3  A    between atoms: C_5  and  C_13
REMARK    4  A    between atoms: C_7  and  O_8
REMARK    5  A    between atoms: O_8  and  C_9
REMARK    6  A    between atoms: C_10  and  O_11
REMARK    7  A    between atoms: O_11  and  C_12
REMARK    8  A    between atoms: N_15  and  C_16
REMARK    9  A    between atoms: C_16  and  C_17
REMARK   10  A    between atoms: C_20  and  O_21
REMARK   11  A    between atoms: O_21  and  C_22
REMARK   12  A    between atoms: C_22  and  C_23
REMARK   13  A    between atoms: C_23  and  N_24
REMARK   14  A    between atoms: N_24  and  C_25
REMARK   15  A    between atoms: N_24  and  C_26
REMARK                            x       y       z     vdW  Elec       q    Type
REMARK                         _______ _______ _______ _____ _____    ______ ____
ROOT
ATOM      1  C   UNL     1       9.976   1.375  22.638  0.00  0.00    +0.245 C 
ATOM      2  N   UNL     1      10.377   0.355  23.472  0.00  0.00    -0.307 N 
ATOM      3  H   UNL     1      10.559   0.541  24.450  0.00  0.00    +0.149 HD
ATOM      4  O   UNL     1       9.527   1.179  21.515  0.00  0.00    -0.270 OA
ENDROOT
BRANCH   1   9
ATOM      5  C   UNL     1       8.916   4.715  24.045  0.00  0.00    +0.166 A 
ATOM      6  C   UNL     1      10.132   5.437  24.092  0.00  0.00    +0.204 A 
ATOM      7  C   UNL     1      11.325   4.777  23.704  0.00  0.00    +0.166 A 
ATOM      8  C   UNL     1      11.288   3.446  23.253  0.00  0.00    +0.062 A 
ATOM      9  C   UNL     1      10.081   2.760  23.166  0.00  0.00    +0.044 A 
ATOM     10  C   UNL     1       8.903   3.401  23.550  0.00  0.00    +0.062 A 
BRANCH   5  12
ATOM     11  C   UNL     1       6.595   5.105  23.650  0.00  0.00    +0.277 C 
ATOM     12  O   UNL     1       7.755   5.328  24.448  0.00  0.00    -0.491 OA
ENDBRANCH   5  12
BRANCH   6  13
ATOM     13  O   UNL     1      10.277   6.743  24.474  0.00  0.00    -0.488 OA
ATOM     14  C   UNL     1      10.557   7.105  25.817  0.00  0.00    +0.277 C 
ENDBRANCH   6  13
BRANCH   7  15
ATOM     15  O   UNL     1      12.611   5.262  23.688  0.00  0.00    -0.491 OA
ATOM     16  C   UNL     1      13.218   5.616  22.455  0.00  0.00    +0.277 C 
ENDBRANCH   7  15
ENDBRANCH   1   9
BRANCH   2  17
ATOM     17  C   UNL     1      10.220  -1.020  23.056  0.00  0.00    +0.139 C 
BRANCH  17  18
ATOM     18  C   UNL     1       9.662  -1.855  24.176  0.00  0.00    -0.030 A 
ATOM     19  C   UNL     1       9.031  -1.277  25.285  0.00  0.00    +0.009 A 
ATOM     20  C   UNL     1       8.450  -2.084  26.272  0.00  0.00    +0.046 A 
ATOM     21  C   UNL     1       8.485  -3.476  26.158  0.00  0.00    +0.121 A 
ATOM     22  C   UNL     1       9.143  -4.046  25.060  0.00  0.00    +0.046 A 
ATOM     23  C   UNL     1       9.719  -3.246  24.076  0.00  0.00    +0.009 A 
BRANCH  21  24
ATOM     24  O   UNL     1       7.847  -4.192  27.146  0.00  0.00    -0.491 OA
BRANCH  24  25
ATOM     25  C   UNL     1       7.505  -5.527  26.751  0.00  0.00    +0.244 C 
BRANCH  25  26
ATOM     26  C   UNL     1       6.001  -5.745  26.547  0.00  0.00    +0.124 C 
BRANCH  26  27
ATOM     27  N   UNL     1       5.646  -5.788  25.108  0.00  0.00    -0.305 NA
ATOM     28  C   UNL     1       5.206  -4.470  24.646  0.00  0.00    +0.104 C 
ATOM     29  C   UNL     1       4.614  -6.785  24.810  0.00  0.00    +0.104 C 
ENDBRANCH  26  27
ENDBRANCH  25  26
ENDBRANCH  24  25
ENDBRANCH  21  24
ENDBRANCH  17  18
ENDBRANCH   2  17
TORSDOF 10
ENDMDL
MODEL 8
REMARK VINA RESULT:      -6.3      2.409      9.674
REMARK  Name = 
REMARK  15 active torsions:
REMARK  status: ('A' for Active; 'I' for Inactive)
REMARK    1  A    between atoms: C_1  and  O_2
REMARK    2  A    between atoms: O_2  and  C_3
REMARK    3  A    between atoms: C_5  and  C_13
REMARK    4  A    between atoms: C_7  and  O_8
REMARK    5  A    between atoms: O_8  and  C_9
REMARK    6  A    between atoms: C_10  and  O_11
REMARK    7  A    between atoms: O_11  and  C_12
REMARK    8  A    between atoms: N_15  and  C_16
REMARK    9  A    between atoms: C_16  and  C_17
REMARK   10  A    between atoms: C_20  and  O_21
REMARK   11  A    between atoms: O_21  and  C_22
REMARK   12  A    between atoms: C_22  and  C_23
REMARK   13  A    between atoms: C_23  and  N_24
REMARK   14  A    between atoms: N_24  and  C_25
REMARK   15  A    between atoms: N_24  and  C_26
REMARK                            x       y       z     vdW  Elec       q    Type
REMARK                         _______ _______ _______ _____ _____    ______ ____
ROOT
ATOM      1  C   UNL     1      10.467   0.996  23.699  0.00  0.00    +0.245 C 
ATOM      2  N   UNL     1       9.876   0.388  22.613  0.00  0.00    -0.307 N 
ATOM      3  H   UNL     1       9.357   0.941  21.943  0.00  0.00    +0.149 HD
ATOM      4  O   UNL     1      11.287   0.431  24.412  0.00  0.00    -0.270 OA
ENDROOT
BRANCH   1   9
ATOM      5  C   UNL     1       8.446   3.954  24.890  0.00  0.00    +0.166 A 
ATOM      6  C   UNL     1       9.215   5.058  24.452  0.00  0.00    +0.204 A 
ATOM      7  C   UNL     1      10.450   4.806  23.803  0.00  0.00    +0.166 A 
ATOM      8  C   UNL     1      10.879   3.486  23.577  0.00  0.00    +0.062 A 
ATOM      9  C   UNL     1      10.093   2.407  23.969  0.00  0.00    +0.044 A 
ATOM     10  C   UNL     1       8.877   2.647  24.611  0.00  0.00    +0.062 A 
BRANCH   5  12
ATOM     11  C   UNL     1       6.062   4.014  24.795  0.00  0.00    +0.277 C 
ATOM     12  O   UNL     1       7.261   4.180  25.548  0.00  0.00    -0.491 OA
ENDBRANCH   5  12
BRANCH   6  13
ATOM     13  O   UNL     1       8.875   6.377  24.584  0.00  0.00    -0.488 OA
ATOM     14  C   UNL     1       8.067   7.042  23.626  0.00  0.00    +0.277 C 
ENDBRANCH   6  13
BRANCH   7  15
ATOM     15  O   UNL     1      11.367   5.707  23.317  0.00  0.00    -0.491 OA
ATOM     16  C   UNL     1      12.726   5.325  23.176  0.00  0.00    +0.277 C 
ENDBRANCH   7  15
ENDBRANCH   1   9
BRANCH   2  17
ATOM     17  C   UNL     1      10.260  -0.954  22.240  0.00  0.00    +0.139 C 
BRANCH  17  18
ATOM     18  C   UNL     1       9.356  -1.966  22.889  0.00  0.00    -0.030 A 
ATOM     19  C   UNL     1       9.784  -2.759  23.961  0.00  0.00    +0.009 A 
ATOM     20  C   UNL     1       8.894  -3.635  24.597  0.00  0.00    +0.046 A 
ATOM     21  C   UNL     1       7.566  -3.722  24.173  0.00  0.00    +0.121 A 
ATOM     22  C   UNL     1       7.153  -2.947  23.082  0.00  0.00    +0.046 A 
ATOM     23  C   UNL     1       8.035  -2.073  22.450  0.00  0.00    +0.009 A 
BRANCH  21  24
ATOM     24  O   UNL     1       6.746  -4.570  24.885  0.00  0.00    -0.491 OA
BRANCH  24  25
ATOM     25  C   UNL     1       7.431  -5.287  25.921  0.00  0.00    +0.244 C 
BRANCH  25  26
ATOM     26  C   UNL     1       6.787  -5.137  27.305  0.00  0.00    +0.124 C 
BRANCH  26  27
ATOM     27  N   UNL     1       6.241  -6.427  27.794  0.00  0.00    -0.305 NA
ATOM     28  C   UNL     1       4.964  -6.725  27.144  0.00  0.00    +0.104 C 
ATOM     29  C   UNL     1       6.073  -6.452  29.250  0.00  0.00    +0.104 C 
ENDBRANCH  26  27
ENDBRANCH  25  26
ENDBRANCH  24  25
ENDBRANCH  21  24
ENDBRANCH  17  18
ENDBRANCH   2  17
TORSDOF 10
ENDMDL
MODEL 9
REMARK VINA RESULT:      -6.2      2.488      9.771
REMARK  Name = 
REMARK  15 active torsions:
REMARK  status: ('A' for Active; 'I' for Inactive)
REMARK    1  A    between atoms: C_1  and  O_2
REMARK    2  A    between atoms: O_2  and  C_3
REMARK    3  A    between atoms: C_5  and  C_13
REMARK    4  A    between atoms: C_7  and  O_8
REMARK    5  A    between atoms: O_8  and  C_9
REMARK    6  A    between atoms: C_10  and  O_11
REMARK    7  A    between atoms: O_11  and  C_12
REMARK    8  A    between atoms: N_15  and  C_16
REMARK    9  A    between atoms: C_16  and  C_17
REMARK   10  A    between atoms: C_20  and  O_21
REMARK   11  A    between atoms: O_21  and  C_22
REMARK   12  A    between atoms: C_22  and  C_23
REMARK   13  A    between atoms: C_23  and  N_24
REMARK   14  A    between atoms: N_24  and  C_25
REMARK   15  A    between atoms: N_24  and  C_26
REMARK                            x       y       z     vdW  Elec       q    Type
REMARK                         _______ _______ _______ _____ _____    ______ ____
ROOT
ATOM      1  C   UNL     1       9.991   1.097  22.804  0.00  0.00    +0.245 C 
ATOM      2  N   UNL     1      10.026   0.242  23.884  0.00  0.00    -0.307 N 
ATOM      3  H   UNL     1       9.868   0.597  24.818  0.00  0.00    +0.149 HD
ATOM      4  O   UNL     1       9.949   0.703  21.645  0.00  0.00    -0.270 OA
ENDROOT
BRANCH   1   9
ATOM      5  C   UNL     1      11.273   4.567  23.558  0.00  0.00    +0.166 A 
ATOM      6  C   UNL     1      10.083   5.306  23.758  0.00  0.00    +0.204 A 
ATOM      7  C   UNL     1       8.840   4.647  23.581  0.00  0.00    +0.166 A 
ATOM      8  C   UNL     1       8.801   3.282  23.245  0.00  0.00    +0.062 A 
ATOM      9  C   UNL     1       9.976   2.553  23.096  0.00  0.00    +0.044 A 
ATOM     10  C   UNL     1      11.203   3.196  23.266  0.00  0.00    +0.062 A 
BRANCH   5  12
ATOM     11  C   UNL     1      13.161   5.568  22.495  0.00  0.00    +0.277 C 
ATOM     12  O   UNL     1      12.486   5.198  23.695  0.00  0.00    -0.491 OA
ENDBRANCH   5  12
BRANCH   6  13
ATOM     13  O   UNL     1      10.006   6.622  24.125  0.00  0.00    -0.488 OA
ATOM     14  C   UNL     1      10.029   7.023  25.485  0.00  0.00    +0.277 C 
ENDBRANCH   6  13
BRANCH   7  15
ATOM     15  O   UNL     1       7.570   5.157  23.697  0.00  0.00    -0.491 OA
ATOM     16  C   UNL     1       6.937   5.741  22.569  0.00  0.00    +0.277 C 
ENDBRANCH   7  15
ENDBRANCH   1   9
BRANCH   2  17
ATOM     17  C   UNL     1       9.953  -1.186  23.675  0.00  0.00    +0.139 C 
BRANCH  17  18
ATOM     18  C   UNL     1       8.532  -1.668  23.781  0.00  0.00    -0.030 A 
ATOM     19  C   UNL     1       7.677  -1.695  22.673  0.00  0.00    +0.009 A 
ATOM     20  C   UNL     1       6.384  -2.225  22.785  0.00  0.00    +0.046 A 
ATOM     21  C   UNL     1       5.936  -2.741  24.003  0.00  0.00    +0.121 A 
ATOM     22  C   UNL     1       6.788  -2.684  25.114  0.00  0.00    +0.046 A 
ATOM     23  C   UNL     1       8.074  -2.161  25.004  0.00  0.00    +0.009 A 
BRANCH  21  24
ATOM     24  O   UNL     1       4.672  -3.288  24.014  0.00  0.00    -0.491 OA
BRANCH  24  25
ATOM     25  C   UNL     1       4.529  -4.408  23.130  0.00  0.00    +0.244 C 
BRANCH  25  26
ATOM     26  C   UNL     1       5.275  -5.663  23.598  0.00  0.00    +0.124 C 
BRANCH  26  27
ATOM     27  N   UNL     1       6.304  -6.084  22.615  0.00  0.00    -0.305 NA
ATOM     28  C   UNL     1       7.623  -5.581  23.003  0.00  0.00    +0.104 C 
ATOM     29  C   UNL     1       5.992  -5.650  21.251  0.00  0.00    +0.104 C 
ENDBRANCH  26  27
ENDBRANCH  25  26
ENDBRANCH  24  25
ENDBRANCH  21  24
ENDBRANCH  17  18
ENDBRANCH   2  17
TORSDOF 10
ENDMDL
