MODEL 1
REMARK VINA RESULT:      -6.1      0.000      0.000
REMARK  Name = 
REMARK  6 active torsions:
REMARK  status: ('A' for Active; 'I' for Inactive)
REMARK    1  A    between atoms: C_2  and  C_3
REMARK    2  A    between atoms: C_2  and  O_4
REMARK    3  A    between atoms: C_2  and  C_5
REMARK    4  A    between atoms: CA_7  and  C_17
REMARK    5  A    between atoms: C_14  and  O_16
REMARK    6  A    between atoms: C_17  and  O_18
REMARK                            x       y       z     vdW  Elec       q    Type
REMARK                         _______ _______ _______ _____ _____    ______ ____
ROOT
ATOM      1  C   UNL     1       8.660  -4.159  24.328  0.00  0.00    -0.008 A 
ATOM      2  C   UNL     1       7.335  -4.253  23.834  0.00  0.00    +0.004 A 
ATOM      3  C   UNL     1       6.411  -5.315  24.248  0.00  0.00    +0.006 C 
ATOM      4  C   UNL     1       5.151  -5.379  23.800  0.00  0.00    -0.023 C 
ATOM      5  C   UNL     1       4.545  -4.387  22.858  0.00  0.00    +0.065 C 
ATOM      6  C   UNL     1       5.493  -3.302  22.328  0.00  0.00    +0.167 C 
ATOM      7  C   UNL     1       6.904  -3.289  22.900  0.00  0.00    +0.078 A 
ATOM      8  N   UNL     1       7.702  -2.280  22.442  0.00  0.00    -0.242 NA
ATOM      9  CA  UNL     1       8.966  -2.218  22.943  0.00  0.00    +0.148 A 
ATOM     10  C   UNL     1       9.472  -3.106  23.870  0.00  0.00    +0.041 A 
ENDROOT
BRANCH   1  11
ATOM     11  C   UNL     1       9.244  -5.106  25.363  0.00  0.00    +0.142 C 
ATOM     12  C   UNL     1       9.084  -4.551  26.776  0.00  0.00    +0.043 C 
BRANCH  11  13
ATOM     13  O   UNL     1      10.635  -5.300  25.098  0.00  0.00    -0.387 OA
ATOM     14  H   UNL     1      11.063  -4.428  25.118  0.00  0.00    +0.210 HD
ENDBRANCH  11  13
ENDBRANCH   1  11
BRANCH   6  15
ATOM     15  O   UNL     1       5.541  -3.418  20.896  0.00  0.00    -0.385 OA
ATOM     16  H   UNL     1       6.111  -4.178  20.690  0.00  0.00    +0.210 HD
ENDBRANCH   6  15
BRANCH   9  17
ATOM     17  C   UNL     1       9.806  -1.095  22.431  0.00  0.00    +0.355 C 
ATOM     18  OXT UNL     1      10.446  -0.323  23.118  0.00  0.00    -0.243 OA
BRANCH  17  19
ATOM     19  O   UNL     1       9.749  -1.053  21.076  0.00  0.00    -0.476 OA
ATOM     20  H   UNL     1      10.590  -1.424  20.713  0.00  0.00    +0.295 HD
ENDBRANCH  17  19
ENDBRANCH   9  17
TORSDOF 5
ENDMDL
MODEL 2
REMARK VINA RESULT:      -6.0      2.670      4.314
REMARK  Name = 
REMARK  6 active torsions:
REMARK  status: ('A' for Active; 'I' for Inactive)
REMARK    1  A    between atoms: C_2  and  C_3
REMARK    2  A    between atoms: C_2  and  O_4
REMARK    3  A    between atoms: C_2  and  C_5
REMARK    4  A    between atoms: CA_7  and  C_17
REMARK    5  A    between atoms: C_14  and  O_16
REMARK    6  A    between atoms: C_17  and  O_18
REMARK                            x       y       z     vdW  Elec       q    Type
REMARK                         _______ _______ _______ _____ _____    ______ ____
ROOT
ATOM      1  C   UNL     1       7.966  -4.781  24.804  0.00  0.00    -0.008 A 
ATOM      2  C   UNL     1       7.036  -5.255  25.762  0.00  0.00    +0.004 A 
ATOM      3  C   UNL     1       7.344  -5.322  27.195  0.00  0.00    +0.006 C 
ATOM      4  C   UNL     1       6.449  -5.742  28.098  0.00  0.00    -0.023 C 
ATOM      5  C   UNL     1       5.055  -6.167  27.761  0.00  0.00    +0.065 C 
ATOM      6  C   UNL     1       4.707  -6.195  26.265  0.00  0.00    +0.167 C 
ATOM      7  C   UNL     1       5.775  -5.686  25.306  0.00  0.00    +0.078 A 
ATOM      8  N   UNL     1       5.411  -5.680  23.990  0.00  0.00    -0.242 NA
ATOM      9  CA  UNL     1       6.327  -5.213  23.099  0.00  0.00    +0.148 A 
ATOM     10  C   UNL     1       7.581  -4.757  23.451  0.00  0.00    +0.041 A 
ENDROOT
BRANCH   1  11
ATOM     11  C   UNL     1       9.347  -4.252  25.157  0.00  0.00    +0.142 C 
ATOM     12  C   UNL     1       9.735  -3.074  24.268  0.00  0.00    +0.043 C 
BRANCH  11  13
ATOM     13  O   UNL     1      10.311  -5.294  24.990  0.00  0.00    -0.387 OA
ATOM     14  H   UNL     1      11.022  -5.143  25.635  0.00  0.00    +0.210 HD
ENDBRANCH  11  13
ENDBRANCH   1  11
BRANCH   6  15
ATOM     15  O   UNL     1       4.336  -7.541  25.923  0.00  0.00    -0.385 OA
ATOM     16  H   UNL     1       5.159  -8.028  25.746  0.00  0.00    +0.210 HD
ENDBRANCH   6  15
BRANCH   9  17
ATOM     17  C   UNL     1       5.892  -5.208  21.671  0.00  0.00    +0.355 C 
ATOM     18  OXT UNL     1       5.749  -4.218  20.981  0.00  0.00    -0.243 OA
BRANCH  17  19
ATOM     19  O   UNL     1       5.669  -6.478  21.249  0.00  0.00    -0.476 OA
ATOM     20  H   UNL     1       6.538  -6.899  21.041  0.00  0.00    +0.295 HD
ENDBRANCH  17  19
ENDBRANCH   9  17
TORSDOF 5
ENDMDL
MODEL 3
REMARK VINA RESULT:      -6.0      3.659      6.476
REMARK  Name = 
REMARK  6 active torsions:
REMARK  status: ('A' for Active; 'I' for Inactive)
REMARK    1  A    between atoms: C_2  and  C_3
REMARK    2  A    between atoms: C_2  and  O_4
REMARK    3  A    between atoms: C_2  and  C_5
REMARK    4  A    between atoms: CA_7  and  C_17
REMARK    5  A    between atoms: C_14  and  O_16
REMARK    6  A    between atoms: C_17  and  O_18
REMARK                            x       y       z     vdW  Elec       q    Type
REMARK                         _______ _______ _______ _____ _____    ______ ____
ROOT
ATOM      1  C   UNL     1       5.488  -5.952  25.416  0.00  0.00    -0.008 A 
ATOM      2  C   UNL     1       6.703  -5.249  25.224  0.00  0.00    +0.004 A 
ATOM      3  C   UNL     1       7.129  -4.751  23.912  0.00  0.00    +0.006 C 
ATOM      4  C   UNL     1       8.264  -4.062  23.745  0.00  0.00    -0.023 C 
ATOM      5  C   UNL     1       9.203  -3.711  24.855  0.00  0.00    +0.065 C 
ATOM      6  C   UNL     1       8.848  -4.279  26.237  0.00  0.00    +0.167 C 
ATOM      7  C   UNL     1       7.532  -5.038  26.344  0.00  0.00    +0.078 A 
ATOM      8  N   UNL     1       7.226  -5.485  27.598  0.00  0.00    -0.242 NA
ATOM      9  CA  UNL     1       6.049  -6.150  27.745  0.00  0.00    +0.148 A 
ATOM     10  C   UNL     1       5.166  -6.393  26.712  0.00  0.00    +0.041 A 
ENDROOT
BRANCH   1  11
ATOM     11  C   UNL     1       4.484  -6.220  24.307  0.00  0.00    +0.142 C 
ATOM     12  C   UNL     1       3.099  -5.690  24.671  0.00  0.00    +0.043 C 
BRANCH  11  13
ATOM     13  O   UNL     1       4.393  -7.628  24.078  0.00  0.00    -0.387 OA
ATOM     14  H   UNL     1       4.736  -7.804  23.185  0.00  0.00    +0.210 HD
ENDBRANCH  11  13
ENDBRANCH   1  11
BRANCH   6  15
ATOM     15  O   UNL     1       9.937  -5.114  26.665  0.00  0.00    -0.385 OA
ATOM     16  H   UNL     1      10.614  -4.528  27.045  0.00  0.00    +0.210 HD
ENDBRANCH   6  15
BRANCH   9  17
ATOM     17  C   UNL     1       5.740  -6.613  29.131  0.00  0.00    +0.355 C 
ATOM     18  OXT UNL     1       6.326  -6.267  30.137  0.00  0.00    -0.243 OA
BRANCH  17  19
ATOM     19  O   UNL     1       4.704  -7.490  29.107  0.00  0.00    -0.476 OA
ATOM     20  H   UNL     1       4.347  -7.533  28.187  0.00  0.00    +0.295 HD
ENDBRANCH  17  19
ENDBRANCH   9  17
TORSDOF 5
ENDMDL
MODEL 4
REMARK VINA RESULT:      -6.0      3.355      6.319
REMARK  Name = 
REMARK  6 active torsions:
REMARK  status: ('A' for Active; 'I' for Inactive)
REMARK    1  A    between atoms: C_2  and  C_3
REMARK    2  A    between atoms: C_2  and  O_4
REMARK    3  A    between atoms: C_2  and  C_5
REMARK    4  A    between atoms: CA_7  and  C_17
REMARK    5  A    between atoms: C_14  and  O_16
REMARK    6  A    between atoms: C_17  and  O_18
REMARK                            x       y       z     vdW  Elec       q    Type
REMARK                         _______ _______ _______ _____ _____    ______ ____
ROOT
ATOM      1  C   UNL     1       6.213  -5.580  23.225  0.00  0.00    -0.008 A 
ATOM      2  C   UNL     1       7.012  -5.078  24.283  0.00  0.00    +0.004 A 
ATOM      3  C   UNL     1       8.193  -4.240  24.052  0.00  0.00    +0.006 C 
ATOM      4  C   UNL     1       8.924  -3.746  25.058  0.00  0.00    -0.023 C 
ATOM      5  C   UNL     1       8.619  -3.970  26.505  0.00  0.00    +0.065 C 
ATOM      6  C   UNL     1       7.442  -4.909  26.803  0.00  0.00    +0.167 C 
ATOM      7  C   UNL     1       6.652  -5.415  25.603  0.00  0.00    +0.078 A 
ATOM      8  N   UNL     1       5.583  -6.207  25.911  0.00  0.00    -0.242 NA
ATOM      9  CA  UNL     1       4.836  -6.665  24.870  0.00  0.00    +0.148 A 
ATOM     10  C   UNL     1       5.100  -6.378  23.546  0.00  0.00    +0.041 A 
ENDROOT
BRANCH   1  11
ATOM     11  C   UNL     1       6.461  -5.268  21.759  0.00  0.00    +0.142 C 
ATOM     12  C   UNL     1       6.065  -3.833  21.421  0.00  0.00    +0.043 C 
BRANCH  11  13
ATOM     13  O   UNL     1       5.697  -6.161  20.947  0.00  0.00    -0.387 OA
ATOM     14  H   UNL     1       6.277  -6.483  20.237  0.00  0.00    +0.210 HD
ENDBRANCH  11  13
ENDBRANCH   1  11
BRANCH   6  15
ATOM     15  O   UNL     1       7.943  -6.017  27.569  0.00  0.00    -0.385 OA
ATOM     16  H   UNL     1       7.754  -5.827  28.505  0.00  0.00    +0.210 HD
ENDBRANCH   6  15
BRANCH   9  17
ATOM     17  C   UNL     1       3.668  -7.517  25.242  0.00  0.00    +0.355 C 
ATOM     18  OXT UNL     1       3.059  -8.249  24.487  0.00  0.00    -0.243 OA
BRANCH  17  19
ATOM     19  O   UNL     1       3.373  -7.352  26.556  0.00  0.00    -0.476 OA
ATOM     20  H   UNL     1       4.217  -7.288  27.064  0.00  0.00    +0.295 HD
ENDBRANCH  17  19
ENDBRANCH   9  17
TORSDOF 5
ENDMDL
MODEL 5
REMARK VINA RESULT:      -5.9      2.729      4.852
REMARK  Name = 
REMARK  6 active torsions:
REMARK  status: ('A' for Active; 'I' for Inactive)
REMARK    1  A    between atoms: C_2  and  C_3
REMARK    2  A    between atoms: C_2  and  O_4
REMARK    3  A    between atoms: C_2  and  C_5
REMARK    4  A    between atoms: CA_7  and  C_17
REMARK    5  A    between atoms: C_14  and  O_16
REMARK    6  A    between atoms: C_17  and  O_18
REMARK                            x       y       z     vdW  Elec       q    Type
REMARK                         _______ _______ _______ _____ _____    ______ ____
ROOT
ATOM      1  C   UNL     1       6.076  -5.463  23.901  0.00  0.00    -0.008 A 
ATOM      2  C   UNL     1       5.576  -5.798  25.184  0.00  0.00    +0.004 A 
ATOM      3  C   UNL     1       4.187  -6.217  25.405  0.00  0.00    +0.006 C 
ATOM      4  C   UNL     1       3.731  -6.561  26.615  0.00  0.00    -0.023 C 
ATOM      5  C   UNL     1       4.569  -6.577  27.854  0.00  0.00    +0.065 C 
ATOM      6  C   UNL     1       6.010  -6.069  27.694  0.00  0.00    +0.167 C 
ATOM      7  C   UNL     1       6.454  -5.712  26.282  0.00  0.00    +0.078 A 
ATOM      8  N   UNL     1       7.755  -5.311  26.173  0.00  0.00    -0.242 NA
ATOM      9  CA  UNL     1       8.202  -5.002  24.925  0.00  0.00    +0.148 A 
ATOM     10  C   UNL     1       7.422  -5.070  23.788  0.00  0.00    +0.041 A 
ENDROOT
BRANCH   1  11
ATOM     11  C   UNL     1       5.253  -5.545  22.626  0.00  0.00    +0.142 C 
ATOM     12  C   UNL     1       6.130  -5.864  21.418  0.00  0.00    +0.043 C 
BRANCH  11  13
ATOM     13  O   UNL     1       4.597  -4.295  22.403  0.00  0.00    -0.387 OA
ATOM     14  H   UNL     1       3.639  -4.450  22.466  0.00  0.00    +0.210 HD
ENDBRANCH  11  13
ENDBRANCH   1  11
BRANCH   6  15
ATOM     15  O   UNL     1       6.179  -4.939  28.567  0.00  0.00    -0.385 OA
ATOM     16  H   UNL     1       6.322  -5.289  29.463  0.00  0.00    +0.210 HD
ENDBRANCH   6  15
BRANCH   9  17
ATOM     17  C   UNL     1       9.632  -4.581  24.839  0.00  0.00    +0.355 C 
ATOM     18  OXT UNL     1      10.038  -3.571  24.300  0.00  0.00    -0.243 OA
BRANCH  17  19
ATOM     19  O   UNL     1      10.423  -5.498  25.450  0.00  0.00    -0.476 OA
ATOM     20  H   UNL     1      10.712  -5.136  26.322  0.00  0.00    +0.295 HD
ENDBRANCH  17  19
ENDBRANCH   9  17
TORSDOF 5
ENDMDL
MODEL 6
REMARK VINA RESULT:      -5.9      1.939      4.026
REMARK  Name = 
REMARK  6 active torsions:
REMARK  status: ('A' for Active; 'I' for Inactive)
REMARK    1  A    between atoms: C_2  and  C_3
REMARK    2  A    between atoms: C_2  and  O_4
REMARK    3  A    between atoms: C_2  and  C_5
REMARK    4  A    between atoms: CA_7  and  C_17
REMARK    5  A    between atoms: C_14  and  O_16
REMARK    6  A    between atoms: C_17  and  O_18
REMARK                            x       y       z     vdW  Elec       q    Type
REMARK                         _______ _______ _______ _____ _____    ______ ____
ROOT
ATOM      1  C   UNL     1       8.306  -4.610  24.151  0.00  0.00    -0.008 A 
ATOM      2  C   UNL     1       8.394  -3.206  23.979  0.00  0.00    +0.004 A 
ATOM      3  C   UNL     1       9.214  -2.354  24.847  0.00  0.00    +0.006 C 
ATOM      4  C   UNL     1       9.316  -1.033  24.659  0.00  0.00    -0.023 C 
ATOM      5  C   UNL     1       8.636  -0.288  23.554  0.00  0.00    +0.065 C 
ATOM      6  C   UNL     1       7.699  -1.119  22.665  0.00  0.00    +0.167 C 
ATOM      7  C   UNL     1       7.652  -2.617  22.936  0.00  0.00    +0.078 A 
ATOM      8  N   UNL     1       6.847  -3.329  22.093  0.00  0.00    -0.242 NA
ATOM      9  CA  UNL     1       6.791  -4.675  22.285  0.00  0.00    +0.148 A 
ATOM     10  C   UNL     1       7.491  -5.343  23.269  0.00  0.00    +0.041 A 
ENDROOT
BRANCH   1  11
ATOM     11  C   UNL     1       9.077  -5.381  25.209  0.00  0.00    +0.142 C 
ATOM     12  C   UNL     1       8.724  -4.902  26.614  0.00  0.00    +0.043 C 
BRANCH  11  13
ATOM     13  O   UNL     1      10.480  -5.201  24.999  0.00  0.00    -0.387 OA
ATOM     14  H   UNL     1      10.669  -4.251  25.072  0.00  0.00    +0.210 HD
ENDBRANCH  11  13
ENDBRANCH   1  11
BRANCH   6  15
ATOM     15  O   UNL     1       6.380  -0.557  22.766  0.00  0.00    -0.385 OA
ATOM     16  H   UNL     1       6.376   0.024  23.546  0.00  0.00    +0.210 HD
ENDBRANCH   6  15
BRANCH   9  17
ATOM     17  C   UNL     1       5.912  -5.424  21.339  0.00  0.00    +0.355 C 
ATOM     18  OXT UNL     1       6.049  -5.467  20.132  0.00  0.00    -0.243 OA
BRANCH  17  19
ATOM     19  O   UNL     1       4.922  -6.051  22.023  0.00  0.00    -0.476 OA
ATOM     20  H   UNL     1       4.102  -5.503  21.967  0.00  0.00    +0.295 HD
ENDBRANCH  17  19
ENDBRANCH   9  17
TORSDOF 5
ENDMDL
MODEL 7
REMARK VINA RESULT:      -5.7      1.621      3.770
REMARK  Name = 
REMARK  6 active torsions:
REMARK  status: ('A' for Active; 'I' for Inactive)
REMARK    1  A    between atoms: C_2  and  C_3
REMARK    2  A    between atoms: C_2  and  O_4
REMARK    3  A    between atoms: C_2  and  C_5
REMARK    4  A    between atoms: CA_7  and  C_17
REMARK    5  A    between atoms: C_14  and  O_16
REMARK    6  A    between atoms: C_17  and  O_18
REMARK                            x       y       z     vdW  Elec       q    Type
REMARK                         _______ _______ _______ _____ _____    ______ ____
ROOT
ATOM      1  C   UNL     1       7.048  -3.888  22.655  0.00  0.00    -0.008 A 
ATOM      2  C   UNL     1       7.308  -4.161  24.021  0.00  0.00    +0.004 A 
ATOM      3  C   UNL     1       6.547  -5.155  24.786  0.00  0.00    +0.006 C 
ATOM      4  C   UNL     1       6.820  -5.428  26.068  0.00  0.00    -0.023 C 
ATOM      5  C   UNL     1       7.918  -4.779  26.849  0.00  0.00    +0.065 C 
ATOM      6  C   UNL     1       8.693  -3.671  26.120  0.00  0.00    +0.167 C 
ATOM      7  C   UNL     1       8.332  -3.434  24.660  0.00  0.00    +0.078 A 
ATOM      8  N   UNL     1       9.075  -2.476  24.032  0.00  0.00    -0.242 NA
ATOM      9  CA  UNL     1       8.801  -2.245  22.719  0.00  0.00    +0.148 A 
ATOM     10  C   UNL     1       7.829  -2.915  22.005  0.00  0.00    +0.041 A 
ENDROOT
BRANCH   1  11
ATOM     11  C   UNL     1       6.000  -4.620  21.832  0.00  0.00    +0.142 C 
ATOM     12  C   UNL     1       6.521  -5.968  21.341  0.00  0.00    +0.043 C 
BRANCH  11  13
ATOM     13  O   UNL     1       5.642  -3.824  20.701  0.00  0.00    -0.387 OA
ATOM     14  H   UNL     1       6.409  -3.271  20.475  0.00  0.00    +0.210 HD
ENDBRANCH  11  13
ENDBRANCH   1  11
BRANCH   6  15
ATOM     15  O   UNL     1       8.537  -2.456  26.872  0.00  0.00    -0.385 OA
ATOM     16  H   UNL     1       8.036  -1.836  26.313  0.00  0.00    +0.210 HD
ENDBRANCH   6  15
BRANCH   9  17
ATOM     17  C   UNL     1       9.641  -1.201  22.060  0.00  0.00    +0.355 C 
ATOM     18  OXT UNL     1       9.241  -0.128  21.653  0.00  0.00    -0.243 OA
BRANCH  17  19
ATOM     19  O   UNL     1      10.926  -1.626  21.973  0.00  0.00    -0.476 OA
ATOM     20  H   UNL     1      11.315  -1.645  22.881  0.00  0.00    +0.295 HD
ENDBRANCH  17  19
ENDBRANCH   9  17
TORSDOF 5
ENDMDL
MODEL 8
REMARK VINA RESULT:      -5.5      2.441      5.068
REMARK  Name = 
REMARK  6 active torsions:
REMARK  status: ('A' for Active; 'I' for Inactive)
REMARK    1  A    between atoms: C_2  and  C_3
REMARK    2  A    between atoms: C_2  and  O_4
REMARK    3  A    between atoms: C_2  and  C_5
REMARK    4  A    between atoms: CA_7  and  C_17
REMARK    5  A    between atoms: C_14  and  O_16
REMARK    6  A    between atoms: C_17  and  O_18
REMARK                            x       y       z     vdW  Elec       q    Type
REMARK                         _______ _______ _______ _____ _____    ______ ____
ROOT
ATOM      1  C   UNL     1       7.164  -1.721  25.006  0.00  0.00    -0.008 A 
ATOM      2  C   UNL     1       8.043  -1.019  24.143  0.00  0.00    +0.004 A 
ATOM      3  C   UNL     1       7.756   0.334  23.654  0.00  0.00    +0.006 C 
ATOM      4  C   UNL     1       8.605   1.001  22.863  0.00  0.00    -0.023 C 
ATOM      5  C   UNL     1       9.926   0.465  22.410  0.00  0.00    +0.065 C 
ATOM      6  C   UNL     1      10.239  -0.980  22.824  0.00  0.00    +0.167 C 
ATOM      7  C   UNL     1       9.228  -1.663  23.736  0.00  0.00    +0.078 A 
ATOM      8  N   UNL     1       9.566  -2.928  24.124  0.00  0.00    -0.242 NA
ATOM      9  CA  UNL     1       8.702  -3.568  24.957  0.00  0.00    +0.148 A 
ATOM     10  C   UNL     1       7.524  -3.016  25.419  0.00  0.00    +0.041 A 
ENDROOT
BRANCH   1  11
ATOM     11  C   UNL     1       5.871  -1.137  25.550  0.00  0.00    +0.142 C 
ATOM     12  C   UNL     1       5.820  -1.225  27.073  0.00  0.00    +0.043 C 
BRANCH  11  13
ATOM     13  O   UNL     1       4.761  -1.855  25.009  0.00  0.00    -0.387 OA
ATOM     14  H   UNL     1       5.113  -2.616  24.519  0.00  0.00    +0.210 HD
ENDBRANCH  11  13
ENDBRANCH   1  11
BRANCH   6  15
ATOM     15  O   UNL     1      10.426  -1.753  21.627  0.00  0.00    -0.385 OA
ATOM     16  H   UNL     1      10.852  -1.171  20.974  0.00  0.00    +0.210 HD
ENDBRANCH   6  15
BRANCH   9  17
ATOM     17  C   UNL     1       9.107  -4.944  25.371  0.00  0.00    +0.355 C 
ATOM     18  OXT UNL     1       8.405  -5.736  25.969  0.00  0.00    -0.243 OA
BRANCH  17  19
ATOM     19  O   UNL     1      10.386  -5.187  24.987  0.00  0.00    -0.476 OA
ATOM     20  H   UNL     1      10.971  -4.499  25.386  0.00  0.00    +0.295 HD
ENDBRANCH  17  19
ENDBRANCH   9  17
TORSDOF 5
ENDMDL
MODEL 9
REMARK VINA RESULT:      -5.5      5.902      8.610
REMARK  Name = 
REMARK  6 active torsions:
REMARK  status: ('A' for Active; 'I' for Inactive)
REMARK    1  A    between atoms: C_2  and  C_3
REMARK    2  A    between atoms: C_2  and  O_4
REMARK    3  A    between atoms: C_2  and  C_5
REMARK    4  A    between atoms: CA_7  and  C_17
REMARK    5  A    between atoms: C_14  and  O_16
REMARK    6  A    between atoms: C_17  and  O_18
REMARK                            x       y       z     vdW  Elec       q    Type
REMARK                         _______ _______ _______ _____ _____    ______ ____
ROOT
ATOM      1  C   UNL     1       9.089   5.038  23.600  0.00  0.00    -0.008 A 
ATOM      2  C   UNL     1       9.016   3.623  23.576  0.00  0.00    +0.004 A 
ATOM      3  C   UNL     1       7.742   2.898  23.630  0.00  0.00    +0.006 C 
ATOM      4  C   UNL     1       7.680   1.561  23.576  0.00  0.00    -0.023 C 
ATOM      5  C   UNL     1       8.874   0.671  23.439  0.00  0.00    +0.065 C 
ATOM      6  C   UNL     1      10.239   1.375  23.461  0.00  0.00    +0.167 C 
ATOM      7  C   UNL     1      10.221   2.897  23.508  0.00  0.00    +0.078 A 
ATOM      8  N   UNL     1      11.452   3.487  23.476  0.00  0.00    -0.242 NA
ATOM      9  CA  UNL     1      11.484   4.847  23.495  0.00  0.00    +0.148 A 
ATOM     10  C   UNL     1      10.358   5.644  23.546  0.00  0.00    +0.041 A 
ENDROOT
BRANCH   1  11
ATOM     11  C   UNL     1       7.871   5.946  23.635  0.00  0.00    +0.142 C 
ATOM     12  C   UNL     1       7.493   6.423  22.236  0.00  0.00    +0.043 C 
BRANCH  11  13
ATOM     13  O   UNL     1       8.152   7.086  24.451  0.00  0.00    -0.387 OA
ATOM     14  H   UNL     1       7.834   6.891  25.349  0.00  0.00    +0.210 HD
ENDBRANCH  11  13
ENDBRANCH   1  11
BRANCH   6  15
ATOM     15  O   UNL     1      10.987   0.854  24.573  0.00  0.00    -0.385 OA
ATOM     16  H   UNL     1      11.754   1.438  24.700  0.00  0.00    +0.210 HD
ENDBRANCH   6  15
BRANCH   9  17
ATOM     17  C   UNL     1      12.844   5.460  23.446  0.00  0.00    +0.355 C 
ATOM     18  OXT UNL     1      13.696   5.220  22.613  0.00  0.00    -0.243 OA
BRANCH  17  19
ATOM     19  O   UNL     1      12.999   6.330  24.476  0.00  0.00    -0.476 OA
ATOM     20  H   UNL     1      12.516   7.164  24.262  0.00  0.00    +0.295 HD
ENDBRANCH  17  19
ENDBRANCH   9  17
TORSDOF 5
ENDMDL
