MODEL 1
REMARK VINA RESULT:      -6.8      0.000      0.000
REMARK  Name = 
REMARK  3 active torsions:
REMARK  status: ('A' for Active; 'I' for Inactive)
REMARK    1  A    between atoms: C_6  and  O_7
REMARK    2  A    between atoms: C_8  and  O_9
REMARK    3  A    between atoms: N_19  and  C_20
REMARK                            x       y       z     vdW  Elec       q    Type
REMARK                         _______ _______ _______ _____ _____    ______ ____
ROOT
ATOM      1  C   UNL     1       6.520  -0.436  23.632  0.00  0.00    +0.092 C 
ATOM      2  C   UNL     1       7.929  -0.791  23.189  0.00  0.00    -0.019 A 
ATOM      3  C   UNL     1       8.620  -1.924  23.676  0.00  0.00    -0.009 A 
ATOM      4  C   UNL     1       9.955  -2.052  23.237  0.00  0.00    +0.009 A 
ATOM      5  C   UNL     1      10.542  -1.179  22.309  0.00  0.00    +0.001 A 
ATOM      6  C   UNL     1       9.834  -0.094  21.823  0.00  0.00    +0.004 A 
ATOM      7  C   UNL     1       7.959  -2.875  24.631  0.00  0.00    +0.031 A 
ATOM      8  C   UNL     1       8.533  -4.048  25.173  0.00  0.00    +0.166 A 
ATOM      9  C   UNL     1       7.859  -4.862  26.100  0.00  0.00    +0.159 A 
ATOM     10  C   UNL     1       6.569  -4.592  26.491  0.00  0.00    +0.049 A 
ATOM     11  C   UNL     1       5.955  -3.473  25.963  0.00  0.00    +0.008 A 
ATOM     12  C   UNL     1       6.639  -2.618  25.065  0.00  0.00    -0.034 A 
ATOM     13  C   UNL     1       8.544   0.132  22.288  0.00  0.00    -0.041 A 
ATOM     14  C   UNL     1       7.848   1.433  21.911  0.00  0.00    +0.051 C 
ATOM     15  C   UNL     1       6.583   1.769  22.727  0.00  0.00    +0.089 C 
ATOM     16  N   UNL     1       6.544   1.005  23.978  0.00  0.00    -0.298 NA
ATOM     17  C   UNL     1       5.596   1.514  24.942  0.00  0.00    +0.105 C 
ATOM     18  C   UNL     1       5.863  -1.406  24.626  0.00  0.00    +0.059 C 
ENDROOT
BRANCH   8  19
ATOM     19  O   UNL     1       9.761  -4.549  24.814  0.00  0.00    -0.503 OA
ATOM     20  H   UNL     1      10.232  -4.652  25.662  0.00  0.00    +0.292 HD
ENDBRANCH   8  19
BRANCH   9  21
ATOM     21  O   UNL     1       8.482  -5.965  26.617  0.00  0.00    -0.503 OA
ATOM     22  H   UNL     1       8.163  -6.012  27.539  0.00  0.00    +0.292 HD
ENDBRANCH   9  21
TORSDOF 2
ENDMDL
MODEL 2
REMARK VINA RESULT:      -6.5      2.865      5.258
REMARK  Name = 
REMARK  3 active torsions:
REMARK  status: ('A' for Active; 'I' for Inactive)
REMARK    1  A    between atoms: C_6  and  O_7
REMARK    2  A    between atoms: C_8  and  O_9
REMARK    3  A    between atoms: N_19  and  C_20
REMARK                            x       y       z     vdW  Elec       q    Type
REMARK                         _______ _______ _______ _____ _____    ______ ____
ROOT
ATOM      1  C   UNL     1       7.621  -1.862  25.997  0.00  0.00    +0.092 C 
ATOM      2  C   UNL     1       7.634  -2.568  24.653  0.00  0.00    -0.019 A 
ATOM      3  C   UNL     1       8.134  -1.963  23.477  0.00  0.00    -0.009 A 
ATOM      4  C   UNL     1       7.981  -2.721  22.296  0.00  0.00    +0.009 A 
ATOM      5  C   UNL     1       7.460  -4.023  22.285  0.00  0.00    +0.001 A 
ATOM      6  C   UNL     1       7.006  -4.606  23.454  0.00  0.00    +0.004 A 
ATOM      7  C   UNL     1       8.734  -0.588  23.516  0.00  0.00    +0.031 A 
ATOM      8  C   UNL     1       9.282   0.117  22.419  0.00  0.00    +0.166 A 
ATOM      9  C   UNL     1       9.784   1.424  22.534  0.00  0.00    +0.159 A 
ATOM     10  C   UNL     1       9.823   2.077  23.743  0.00  0.00    +0.049 A 
ATOM     11  C   UNL     1       9.328   1.417  24.850  0.00  0.00    +0.008 A 
ATOM     12  C   UNL     1       8.775   0.117  24.741  0.00  0.00    -0.034 A 
ATOM     13  C   UNL     1       7.050  -3.872  24.634  0.00  0.00    -0.041 A 
ATOM     14  C   UNL     1       6.364  -4.435  25.872  0.00  0.00    +0.051 C 
ATOM     15  C   UNL     1       6.154  -3.435  27.027  0.00  0.00    +0.089 C 
ATOM     16  N   UNL     1       6.259  -2.052  26.552  0.00  0.00    -0.298 NA
ATOM     17  C   UNL     1       5.734  -1.076  27.480  0.00  0.00    +0.105 C 
ATOM     18  C   UNL     1       8.217  -0.446  26.019  0.00  0.00    +0.059 C 
ENDROOT
BRANCH   8  19
ATOM     19  O   UNL     1       9.442  -0.411  21.160  0.00  0.00    -0.503 OA
ATOM     20  H   UNL     1       9.806   0.330  20.638  0.00  0.00    +0.292 HD
ENDBRANCH   8  19
BRANCH   9  21
ATOM     21  O   UNL     1      10.268   2.067  21.427  0.00  0.00    -0.503 OA
ATOM     22  H   UNL     1      10.100   3.013  21.605  0.00  0.00    +0.292 HD
ENDBRANCH   9  21
TORSDOF 2
ENDMDL
MODEL 3
REMARK VINA RESULT:      -6.4      3.628      5.823
REMARK  Name = 
REMARK  3 active torsions:
REMARK  status: ('A' for Active; 'I' for Inactive)
REMARK    1  A    between atoms: C_6  and  O_7
REMARK    2  A    between atoms: C_8  and  O_9
REMARK    3  A    between atoms: N_19  and  C_20
REMARK                            x       y       z     vdW  Elec       q    Type
REMARK                         _______ _______ _______ _____ _____    ______ ____
ROOT
ATOM      1  C   UNL     1       7.813  -0.176  25.898  0.00  0.00    +0.092 C 
ATOM      2  C   UNL     1       8.781  -0.495  24.773  0.00  0.00    -0.019 A 
ATOM      3  C   UNL     1       9.374   0.506  23.969  0.00  0.00    -0.009 A 
ATOM      4  C   UNL     1      10.171   0.032  22.905  0.00  0.00    +0.009 A 
ATOM      5  C   UNL     1      10.446  -1.328  22.703  0.00  0.00    +0.001 A 
ATOM      6  C   UNL     1       9.878  -2.288  23.523  0.00  0.00    +0.004 A 
ATOM      7  C   UNL     1       9.107   1.960  24.231  0.00  0.00    +0.031 A 
ATOM      8  C   UNL     1       9.650   3.051  23.514  0.00  0.00    +0.166 A 
ATOM      9  C   UNL     1       9.312   4.385  23.796  0.00  0.00    +0.159 A 
ATOM     10  C   UNL     1       8.470   4.711  24.833  0.00  0.00    +0.049 A 
ATOM     11  C   UNL     1       7.940   3.680  25.583  0.00  0.00    +0.008 A 
ATOM     12  C   UNL     1       8.234   2.328  25.279  0.00  0.00    -0.034 A 
ATOM     13  C   UNL     1       9.013  -1.884  24.533  0.00  0.00    -0.041 A 
ATOM     14  C   UNL     1       8.235  -2.947  25.297  0.00  0.00    +0.051 C 
ATOM     15  C   UNL     1       7.058  -2.424  26.147  0.00  0.00    +0.089 C 
ATOM     16  N   UNL     1       6.653  -1.082  25.718  0.00  0.00    -0.298 NA
ATOM     17  C   UNL     1       5.358  -0.677  26.216  0.00  0.00    +0.105 C 
ATOM     18  C   UNL     1       7.532   1.315  26.142  0.00  0.00    +0.059 C 
ENDROOT
BRANCH   8  19
ATOM     19  O   UNL     1      10.598   2.936  22.526  0.00  0.00    -0.503 OA
ATOM     20  H   UNL     1      11.244   3.637  22.735  0.00  0.00    +0.292 HD
ENDBRANCH   8  19
BRANCH   9  21
ATOM     21  O   UNL     1       9.843   5.397  23.043  0.00  0.00    -0.503 OA
ATOM     22  H   UNL     1       9.408   5.303  22.173  0.00  0.00    +0.292 HD
ENDBRANCH   9  21
TORSDOF 2
ENDMDL
MODEL 4
REMARK VINA RESULT:      -6.4      2.148      2.461
REMARK  Name = 
REMARK  3 active torsions:
REMARK  status: ('A' for Active; 'I' for Inactive)
REMARK    1  A    between atoms: C_6  and  O_7
REMARK    2  A    between atoms: C_8  and  O_9
REMARK    3  A    between atoms: N_19  and  C_20
REMARK                            x       y       z     vdW  Elec       q    Type
REMARK                         _______ _______ _______ _____ _____    ______ ____
ROOT
ATOM      1  C   UNL     1       7.065   0.080  26.291  0.00  0.00    +0.092 C 
ATOM      2  C   UNL     1       8.250   0.204  25.348  0.00  0.00    -0.019 A 
ATOM      3  C   UNL     1       9.018  -0.909  24.935  0.00  0.00    -0.009 A 
ATOM      4  C   UNL     1      10.142  -0.604  24.138  0.00  0.00    +0.009 A 
ATOM      5  C   UNL     1      10.438   0.694  23.697  0.00  0.00    +0.001 A 
ATOM      6  C   UNL     1       9.653   1.763  24.090  0.00  0.00    +0.004 A 
ATOM      7  C   UNL     1       8.657  -2.297  25.377  0.00  0.00    +0.031 A 
ATOM      8  C   UNL     1       9.330  -3.488  25.021  0.00  0.00    +0.166 A 
ATOM      9  C   UNL     1       8.953  -4.748  25.517  0.00  0.00    +0.159 A 
ATOM     10  C   UNL     1       7.862  -4.901  26.340  0.00  0.00    +0.049 A 
ATOM     11  C   UNL     1       7.154  -3.769  26.690  0.00  0.00    +0.008 A 
ATOM     12  C   UNL     1       7.551  -2.487  26.236  0.00  0.00    -0.034 A 
ATOM     13  C   UNL     1       8.583   1.535  24.947  0.00  0.00    -0.041 A 
ATOM     14  C   UNL     1       7.851   2.732  25.538  0.00  0.00    +0.051 C 
ATOM     15  C   UNL     1       6.919   2.419  26.728  0.00  0.00    +0.089 C 
ATOM     16  N   UNL     1       7.249   1.123  27.328  0.00  0.00    -0.298 NA
ATOM     17  C   UNL     1       6.671   0.924  28.638  0.00  0.00    +0.105 C 
ATOM     18  C   UNL     1       6.721  -1.344  26.753  0.00  0.00    +0.059 C 
ENDROOT
BRANCH   8  19
ATOM     19  O   UNL     1      10.364  -3.556  24.118  0.00  0.00    -0.503 OA
ATOM     20  H   UNL     1      11.127  -3.845  24.653  0.00  0.00    +0.292 HD
ENDBRANCH   8  19
BRANCH   9  21
ATOM     21  O   UNL     1       9.667  -5.861  25.164  0.00  0.00    -0.503 OA
ATOM     22  H   UNL     1      10.598  -5.565  25.181  0.00  0.00    +0.292 HD
ENDBRANCH   9  21
TORSDOF 2
ENDMDL
MODEL 5
REMARK VINA RESULT:      -6.3      2.859      5.676
REMARK  Name = 
REMARK  3 active torsions:
REMARK  status: ('A' for Active; 'I' for Inactive)
REMARK    1  A    between atoms: C_6  and  O_7
REMARK    2  A    between atoms: C_8  and  O_9
REMARK    3  A    between atoms: N_19  and  C_20
REMARK                            x       y       z     vdW  Elec       q    Type
REMARK                         _______ _______ _______ _____ _____    ______ ____
ROOT
ATOM      1  C   UNL     1       6.488  -4.022  23.063  0.00  0.00    +0.092 C 
ATOM      2  C   UNL     1       6.433  -3.944  24.579  0.00  0.00    -0.019 A 
ATOM      3  C   UNL     1       7.254  -3.072  25.329  0.00  0.00    -0.009 A 
ATOM      4  C   UNL     1       7.146  -3.197  26.731  0.00  0.00    +0.009 A 
ATOM      5  C   UNL     1       6.224  -4.052  27.353  0.00  0.00    +0.001 A 
ATOM      6  C   UNL     1       5.409  -4.874  26.596  0.00  0.00    +0.004 A 
ATOM      7  C   UNL     1       8.199  -2.128  24.645  0.00  0.00    +0.031 A 
ATOM      8  C   UNL     1       9.056  -1.198  25.278  0.00  0.00    +0.166 A 
ATOM      9  C   UNL     1       9.947  -0.379  24.562  0.00  0.00    +0.159 A 
ATOM     10  C   UNL     1       9.994  -0.396  23.189  0.00  0.00    +0.049 A 
ATOM     11  C   UNL     1       9.152  -1.266  22.524  0.00  0.00    +0.008 A 
ATOM     12  C   UNL     1       8.284  -2.131  23.234  0.00  0.00    -0.034 A 
ATOM     13  C   UNL     1       5.534  -4.858  25.212  0.00  0.00    -0.041 A 
ATOM     14  C   UNL     1       4.787  -5.904  24.397  0.00  0.00    +0.051 C 
ATOM     15  C   UNL     1       5.235  -6.046  22.927  0.00  0.00    +0.089 C 
ATOM     16  N   UNL     1       6.565  -5.463  22.724  0.00  0.00    -0.298 NA
ATOM     17  C   UNL     1       7.193  -5.863  21.485  0.00  0.00    +0.105 C 
ATOM     18  C   UNL     1       7.475  -3.066  22.376  0.00  0.00    +0.059 C 
ENDROOT
BRANCH   8  19
ATOM     19  O   UNL     1       9.068  -0.949  26.630  0.00  0.00    -0.503 OA
ATOM     20  H   UNL     1       8.202  -1.276  26.938  0.00  0.00    +0.292 HD
ENDBRANCH   8  19
BRANCH   9  21
ATOM     21  O   UNL     1      10.777   0.475  25.235  0.00  0.00    -0.503 OA
ATOM     22  H   UNL     1      10.190   1.193  25.538  0.00  0.00    +0.292 HD
ENDBRANCH   9  21
TORSDOF 2
ENDMDL
MODEL 6
REMARK VINA RESULT:      -6.3      2.965      5.296
REMARK  Name = 
REMARK  3 active torsions:
REMARK  status: ('A' for Active; 'I' for Inactive)
REMARK    1  A    between atoms: C_6  and  O_7
REMARK    2  A    between atoms: C_8  and  O_9
REMARK    3  A    between atoms: N_19  and  C_20
REMARK                            x       y       z     vdW  Elec       q    Type
REMARK                         _______ _______ _______ _____ _____    ______ ____
ROOT
ATOM      1  C   UNL     1       6.616  -4.178  25.990  0.00  0.00    +0.092 C 
ATOM      2  C   UNL     1       6.705  -4.490  24.506  0.00  0.00    -0.019 A 
ATOM      3  C   UNL     1       7.443  -3.693  23.601  0.00  0.00    -0.009 A 
ATOM      4  C   UNL     1       7.338  -4.066  22.244  0.00  0.00    +0.009 A 
ATOM      5  C   UNL     1       6.635  -5.201  21.815  0.00  0.00    +0.001 A 
ATOM      6  C   UNL     1       5.945  -5.983  22.724  0.00  0.00    +0.004 A 
ATOM      7  C   UNL     1       8.231  -2.511  24.085  0.00  0.00    +0.031 A 
ATOM      8  C   UNL     1       9.021  -1.650  23.288  0.00  0.00    +0.166 A 
ATOM      9  C   UNL     1       9.693  -0.534  23.815  0.00  0.00    +0.159 A 
ATOM     10  C   UNL     1       9.667  -0.247  25.159  0.00  0.00    +0.049 A 
ATOM     11  C   UNL     1       8.934  -1.078  25.983  0.00  0.00    +0.008 A 
ATOM     12  C   UNL     1       8.212  -2.179  25.459  0.00  0.00    -0.034 A 
ATOM     13  C   UNL     1       5.939  -5.613  24.064  0.00  0.00    -0.041 A 
ATOM     14  C   UNL     1       5.017  -6.352  25.024  0.00  0.00    +0.051 C 
ATOM     15  C   UNL     1       4.806  -5.676  26.395  0.00  0.00    +0.089 C 
ATOM     16  N   UNL     1       5.180  -4.260  26.346  0.00  0.00    -0.298 NA
ATOM     17  C   UNL     1       4.686  -3.489  27.465  0.00  0.00    +0.105 C 
ATOM     18  C   UNL     1       7.410  -2.953  26.468  0.00  0.00    +0.059 C 
ENDROOT
BRANCH   8  19
ATOM     19  O   UNL     1       9.268  -1.841  21.950  0.00  0.00    -0.503 OA
ATOM     20  H   UNL     1      10.067  -2.401  21.934  0.00  0.00    +0.292 HD
ENDBRANCH   8  19
BRANCH   9  21
ATOM     21  O   UNL     1      10.412   0.282  22.986  0.00  0.00    -0.503 OA
ATOM     22  H   UNL     1      10.118   1.184  23.221  0.00  0.00    +0.292 HD
ENDBRANCH   9  21
TORSDOF 2
ENDMDL
MODEL 7
REMARK VINA RESULT:      -6.1      2.946      5.994
REMARK  Name = 
REMARK  3 active torsions:
REMARK  status: ('A' for Active; 'I' for Inactive)
REMARK    1  A    between atoms: C_6  and  O_7
REMARK    2  A    between atoms: C_8  and  O_9
REMARK    3  A    between atoms: N_19  and  C_20
REMARK                            x       y       z     vdW  Elec       q    Type
REMARK                         _______ _______ _______ _____ _____    ______ ____
ROOT
ATOM      1  C   UNL     1       7.815  -3.469  24.697  0.00  0.00    +0.092 C 
ATOM      2  C   UNL     1       7.067  -2.331  25.369  0.00  0.00    -0.019 A 
ATOM      3  C   UNL     1       7.134  -0.996  24.909  0.00  0.00    -0.009 A 
ATOM      4  C   UNL     1       6.459  -0.048  25.707  0.00  0.00    +0.009 A 
ATOM      5  C   UNL     1       5.690  -0.399  26.826  0.00  0.00    +0.001 A 
ATOM      6  C   UNL     1       5.615  -1.717  27.239  0.00  0.00    +0.004 A 
ATOM      7  C   UNL     1       7.922  -0.646  23.680  0.00  0.00    +0.031 A 
ATOM      8  C   UNL     1       8.052   0.642  23.110  0.00  0.00    +0.166 A 
ATOM      9  C   UNL     1       8.849   0.892  21.979  0.00  0.00    +0.159 A 
ATOM     10  C   UNL     1       9.507  -0.122  21.324  0.00  0.00    +0.049 A 
ATOM     11  C   UNL     1       9.384  -1.403  21.825  0.00  0.00    +0.008 A 
ATOM     12  C   UNL     1       8.623  -1.662  22.992  0.00  0.00    -0.034 A 
ATOM     13  C   UNL     1       6.332  -2.683  26.543  0.00  0.00    -0.041 A 
ATOM     14  C   UNL     1       6.411  -4.091  27.118  0.00  0.00    +0.051 C 
ATOM     15  C   UNL     1       7.488  -5.003  26.493  0.00  0.00    +0.089 C 
ATOM     16  N   UNL     1       8.498  -4.215  25.781  0.00  0.00    -0.298 NA
ATOM     17  C   UNL     1       9.705  -4.951  25.479  0.00  0.00    +0.105 C 
ATOM     18  C   UNL     1       8.635  -3.093  23.454  0.00  0.00    +0.059 C 
ENDROOT
BRANCH   8  19
ATOM     19  O   UNL     1       7.378   1.756  23.547  0.00  0.00    -0.503 OA
ATOM     20  H   UNL     1       6.826   2.014  22.785  0.00  0.00    +0.292 HD
ENDBRANCH   8  19
BRANCH   9  21
ATOM     21  O   UNL     1       8.964   2.166  21.496  0.00  0.00    -0.503 OA
ATOM     22  H   UNL     1       8.770   2.082  20.543  0.00  0.00    +0.292 HD
ENDBRANCH   9  21
TORSDOF 2
ENDMDL
MODEL 8
REMARK VINA RESULT:      -6.1      3.143      5.539
REMARK  Name = 
REMARK  3 active torsions:
REMARK  status: ('A' for Active; 'I' for Inactive)
REMARK    1  A    between atoms: C_6  and  O_7
REMARK    2  A    between atoms: C_8  and  O_9
REMARK    3  A    between atoms: N_19  and  C_20
REMARK                            x       y       z     vdW  Elec       q    Type
REMARK                         _______ _______ _______ _____ _____    ______ ____
ROOT
ATOM      1  C   UNL     1       6.924  -1.105  24.901  0.00  0.00    +0.092 C 
ATOM      2  C   UNL     1       8.174  -1.075  24.039  0.00  0.00    -0.019 A 
ATOM      3  C   UNL     1       8.500   0.019  23.204  0.00  0.00    -0.009 A 
ATOM      4  C   UNL     1       9.643  -0.158  22.395  0.00  0.00    +0.009 A 
ATOM      5  C   UNL     1      10.465  -1.291  22.472  0.00  0.00    +0.001 A 
ATOM      6  C   UNL     1      10.142  -2.336  23.320  0.00  0.00    +0.004 A 
ATOM      7  C   UNL     1       7.634   1.245  23.172  0.00  0.00    +0.031 A 
ATOM      8  C   UNL     1       7.860   2.407  22.398  0.00  0.00    +0.166 A 
ATOM      9  C   UNL     1       6.973   3.497  22.393  0.00  0.00    +0.159 A 
ATOM     10  C   UNL     1       5.854   3.519  23.191  0.00  0.00    +0.049 A 
ATOM     11  C   UNL     1       5.608   2.419  23.989  0.00  0.00    +0.008 A 
ATOM     12  C   UNL     1       6.468   1.294  23.969  0.00  0.00    -0.034 A 
ATOM     13  C   UNL     1       8.978  -2.255  24.075  0.00  0.00    -0.041 A 
ATOM     14  C   UNL     1       8.520  -3.485  24.847  0.00  0.00    +0.051 C 
ATOM     15  C   UNL     1       7.070  -3.438  25.371  0.00  0.00    +0.089 C 
ATOM     16  N   UNL     1       6.287  -2.422  24.662  0.00  0.00    -0.298 NA
ATOM     17  C   UNL     1       4.859  -2.557  24.843  0.00  0.00    +0.105 C 
ATOM     18  C   UNL     1       6.036   0.147  24.843  0.00  0.00    +0.059 C 
ENDROOT
BRANCH   8  19
ATOM     19  O   UNL     1       8.980   2.624  21.632  0.00  0.00    -0.503 OA
ATOM     20  H   UNL     1       8.678   3.244  20.942  0.00  0.00    +0.292 HD
ENDBRANCH   8  19
BRANCH   9  21
ATOM     21  O   UNL     1       7.227   4.578  21.594  0.00  0.00    -0.503 OA
ATOM     22  H   UNL     1       6.796   5.324  22.053  0.00  0.00    +0.292 HD
ENDBRANCH   9  21
TORSDOF 2
ENDMDL
MODEL 9
REMARK VINA RESULT:      -6.1      1.045      1.458
REMARK  Name = 
REMARK  3 active torsions:
REMARK  status: ('A' for Active; 'I' for Inactive)
REMARK    1  A    between atoms: C_6  and  O_7
REMARK    2  A    between atoms: C_8  and  O_9
REMARK    3  A    between atoms: N_19  and  C_20
REMARK                            x       y       z     vdW  Elec       q    Type
REMARK                         _______ _______ _______ _____ _____    ______ ____
ROOT
ATOM      1  C   UNL     1       6.211  -1.138  24.382  0.00  0.00    +0.092 C 
ATOM      2  C   UNL     1       7.607  -1.674  24.116  0.00  0.00    -0.019 A 
ATOM      3  C   UNL     1       8.139  -2.791  24.800  0.00  0.00    -0.009 A 
ATOM      4  C   UNL     1       9.485  -3.096  24.504  0.00  0.00    +0.009 A 
ATOM      5  C   UNL     1      10.227  -2.411  23.531  0.00  0.00    +0.001 A 
ATOM      6  C   UNL     1       9.674  -1.340  22.852  0.00  0.00    +0.004 A 
ATOM      7  C   UNL     1       7.312  -3.543  25.802  0.00  0.00    +0.031 A 
ATOM      8  C   UNL     1       7.720  -4.681  26.536  0.00  0.00    +0.166 A 
ATOM      9  C   UNL     1       6.897  -5.301  27.492  0.00  0.00    +0.159 A 
ATOM     10  C   UNL     1       5.614  -4.865  27.728  0.00  0.00    +0.049 A 
ATOM     11  C   UNL     1       5.160  -3.775  27.012  0.00  0.00    +0.008 A 
ATOM     12  C   UNL     1       5.995  -3.112  26.080  0.00  0.00    -0.034 A 
ATOM     13  C   UNL     1       8.381  -0.938  23.166  0.00  0.00    -0.041 A 
ATOM     14  C   UNL     1       7.852   0.358  22.569  0.00  0.00    +0.051 C 
ATOM     15  C   UNL     1       6.568   0.914  23.220  0.00  0.00    +0.089 C 
ATOM     16  N   UNL     1       6.355   0.328  24.547  0.00  0.00    -0.298 NA
ATOM     17  C   UNL     1       5.391   1.045  25.351  0.00  0.00    +0.105 C 
ATOM     18  C   UNL     1       5.384  -1.903  25.425  0.00  0.00    +0.059 C 
ENDROOT
BRANCH   8  19
ATOM     19  O   UNL     1       8.915  -5.335  26.354  0.00  0.00    -0.503 OA
ATOM     20  H   UNL     1       8.775  -5.865  25.547  0.00  0.00    +0.292 HD
ENDBRANCH   8  19
BRANCH   9  21
ATOM     21  O   UNL     1       7.362  -6.377  28.197  0.00  0.00    -0.503 OA
ATOM     22  H   UNL     1       7.209  -7.138  27.604  0.00  0.00    +0.292 HD
ENDBRANCH   9  21
TORSDOF 2
ENDMDL
