MODEL 1
REMARK VINA RESULT:      -5.6      0.000      0.000
REMARK  Name = 
REMARK  8 active torsions:
REMARK  status: ('A' for Active; 'I' for Inactive)
REMARK    1  A    between atoms: C_2  and  C_3
REMARK    2  A    between atoms: C_2  and  C_5
REMARK    3  A    between atoms: C_2  and  C_14
REMARK    4  A    between atoms: C_3  and  S_4
REMARK    5  A    between atoms: C_5  and  C_6
REMARK    6  A    between atoms: C_6  and  C_7
REMARK    7  A    between atoms: C_7  and  C_8
REMARK    8  A    between atoms: C_14  and  O_15
REMARK                            x       y       z     vdW  Elec       q    Type
REMARK                         _______ _______ _______ _____ _____    ______ ____
ROOT
ATOM      1  C   UNL     1       8.493  -3.188  24.354  0.00  0.00    +0.016 C 
ENDROOT
BRANCH   1   2
ATOM      2  C   UNL     1       8.414  -4.707  24.072  0.00  0.00    +0.107 C 
BRANCH   2   3
ATOM      3  C   UNL     1       8.848  -5.435  25.336  0.00  0.00    +0.309 C 
ATOM      4  O   UNL     1       8.114  -5.699  26.275  0.00  0.00    -0.251 OA
BRANCH   3   5
ATOM      5  O   UNL     1      10.162  -5.758  25.343  0.00  0.00    -0.480 OA
ATOM      6  H   UNL     1      10.499  -6.111  24.499  0.00  0.00    +0.295 HD
ENDBRANCH   3   5
ENDBRANCH   2   3
BRANCH   2   7
ATOM      7  C   UNL     1       7.006  -5.148  23.638  0.00  0.00    +0.080 C 
BRANCH   7   8
ATOM      8  S   UNL     1       6.957  -5.925  21.990  0.00  0.00    -0.177 S 
ATOM      9  H   UNL     1       5.761  -5.420  21.636  0.00  0.00    +0.102 HD
ENDBRANCH   7   8
ENDBRANCH   2   7
ENDBRANCH   1   2
BRANCH   1  10
ATOM     10  C   UNL     1       9.835  -2.562  23.980  0.00  0.00    +0.005 C 
BRANCH  10  11
ATOM     11  C   UNL     1       9.803  -1.879  22.611  0.00  0.00    +0.035 C 
BRANCH  11  12
ATOM     12  C   UNL     1      10.064  -0.402  22.778  0.00  0.00    -0.047 A 
ATOM     13  C   UNL     1       9.707   0.496  21.762  0.00  0.00    +0.003 A 
ATOM     14  C   UNL     1       9.849   1.871  21.953  0.00  0.00    +0.000 A 
ATOM     15  C   UNL     1      10.351   2.359  23.158  0.00  0.00    +0.000 A 
ATOM     16  C   UNL     1      10.719   1.474  24.170  0.00  0.00    +0.000 A 
ATOM     17  C   UNL     1      10.579   0.099  23.980  0.00  0.00    +0.003 A 
ENDBRANCH  11  12
ENDBRANCH  10  11
ENDBRANCH   1  10
TORSDOF 8
ENDMDL
MODEL 2
REMARK VINA RESULT:      -5.1      2.891      4.184
REMARK  Name = 
REMARK  8 active torsions:
REMARK  status: ('A' for Active; 'I' for Inactive)
REMARK    1  A    between atoms: C_2  and  C_3
REMARK    2  A    between atoms: C_2  and  C_5
REMARK    3  A    between atoms: C_2  and  C_14
REMARK    4  A    between atoms: C_3  and  S_4
REMARK    5  A    between atoms: C_5  and  C_6
REMARK    6  A    between atoms: C_6  and  C_7
REMARK    7  A    between atoms: C_7  and  C_8
REMARK    8  A    between atoms: C_14  and  O_15
REMARK                            x       y       z     vdW  Elec       q    Type
REMARK                         _______ _______ _______ _____ _____    ______ ____
ROOT
ATOM      1  C   UNL     1      10.062  -0.216  24.962  0.00  0.00    +0.016 C 
ENDROOT
BRANCH   1   2
ATOM      2  C   UNL     1       9.185  -0.928  23.906  0.00  0.00    +0.107 C 
BRANCH   2   3
ATOM      3  C   UNL     1      10.003  -2.066  23.316  0.00  0.00    +0.309 C 
ATOM      4  O   UNL     1      10.248  -3.117  23.887  0.00  0.00    -0.251 OA
BRANCH   3   5
ATOM      5  O   UNL     1      10.471  -1.802  22.074  0.00  0.00    -0.480 OA
ATOM      6  H   UNL     1      10.895  -2.558  21.629  0.00  0.00    +0.295 HD
ENDBRANCH   3   5
ENDBRANCH   2   3
BRANCH   2   7
ATOM      7  C   UNL     1       7.864  -1.447  24.498  0.00  0.00    +0.080 C 
BRANCH   7   8
ATOM      8  S   UNL     1       7.898  -1.639  26.310  0.00  0.00    -0.177 S 
ATOM      9  H   UNL     1       8.817  -0.682  26.531  0.00  0.00    +0.102 HD
ENDBRANCH   7   8
ENDBRANCH   2   7
ENDBRANCH   1   2
BRANCH   1  10
ATOM     10  C   UNL     1      10.868   0.956  24.405  0.00  0.00    +0.005 C 
BRANCH  10  11
ATOM     11  C   UNL     1      10.111   1.724  23.319  0.00  0.00    +0.035 C 
BRANCH  11  12
ATOM     12  C   UNL     1      10.267   3.207  23.548  0.00  0.00    -0.047 A 
ATOM     13  C   UNL     1      11.519   3.818  23.387  0.00  0.00    +0.003 A 
ATOM     14  C   UNL     1      11.647   5.203  23.495  0.00  0.00    +0.000 A 
ATOM     15  C   UNL     1      10.528   5.988  23.768  0.00  0.00    +0.000 A 
ATOM     16  C   UNL     1       9.281   5.389  23.941  0.00  0.00    +0.000 A 
ATOM     17  C   UNL     1       9.152   4.004  23.835  0.00  0.00    +0.003 A 
ENDBRANCH  11  12
ENDBRANCH  10  11
ENDBRANCH   1  10
TORSDOF 8
ENDMDL
MODEL 3
REMARK VINA RESULT:      -5.1      0.943      1.782
REMARK  Name = 
REMARK  8 active torsions:
REMARK  status: ('A' for Active; 'I' for Inactive)
REMARK    1  A    between atoms: C_2  and  C_3
REMARK    2  A    between atoms: C_2  and  C_5
REMARK    3  A    between atoms: C_2  and  C_14
REMARK    4  A    between atoms: C_3  and  S_4
REMARK    5  A    between atoms: C_5  and  C_6
REMARK    6  A    between atoms: C_6  and  C_7
REMARK    7  A    between atoms: C_7  and  C_8
REMARK    8  A    between atoms: C_14  and  O_15
REMARK                            x       y       z     vdW  Elec       q    Type
REMARK                         _______ _______ _______ _____ _____    ______ ____
ROOT
ATOM      1  C   UNL     1       9.070  -3.787  24.621  0.00  0.00    +0.016 C 
ENDROOT
BRANCH   1   2
ATOM      2  C   UNL     1       8.082  -4.920  24.255  0.00  0.00    +0.107 C 
BRANCH   2   3
ATOM      3  C   UNL     1       7.273  -5.249  25.500  0.00  0.00    +0.309 C 
ATOM      4  O   UNL     1       7.732  -5.739  26.520  0.00  0.00    -0.251 OA
BRANCH   3   5
ATOM      5  O   UNL     1       5.956  -4.966  25.374  0.00  0.00    -0.480 OA
ATOM      6  H   UNL     1       5.762  -4.105  24.959  0.00  0.00    +0.295 HD
ENDBRANCH   3   5
ENDBRANCH   2   3
BRANCH   2   7
ATOM      7  C   UNL     1       7.161  -4.535  23.084  0.00  0.00    +0.080 C 
BRANCH   7   8
ATOM      8  S   UNL     1       7.025  -5.825  21.805  0.00  0.00    -0.177 S 
ATOM      9  H   UNL     1       8.326  -6.166  21.816  0.00  0.00    +0.102 HD
ENDBRANCH   7   8
ENDBRANCH   2   7
ENDBRANCH   1   2
BRANCH   1  10
ATOM     10  C   UNL     1       8.873  -2.511  23.805  0.00  0.00    +0.005 C 
BRANCH  10  11
ATOM     11  C   UNL     1      10.182  -1.994  23.201  0.00  0.00    +0.035 C 
BRANCH  11  12
ATOM     12  C   UNL     1      10.135  -0.488  23.111  0.00  0.00    -0.047 A 
ATOM     13  C   UNL     1      10.606   0.297  24.174  0.00  0.00    +0.003 A 
ATOM     14  C   UNL     1      10.663   1.685  24.054  0.00  0.00    +0.000 A 
ATOM     15  C   UNL     1      10.248   2.301  22.875  0.00  0.00    +0.000 A 
ATOM     16  C   UNL     1       9.767   1.531  21.817  0.00  0.00    +0.000 A 
ATOM     17  C   UNL     1       9.708   0.142  21.936  0.00  0.00    +0.003 A 
ENDBRANCH  11  12
ENDBRANCH  10  11
ENDBRANCH   1  10
TORSDOF 8
ENDMDL
MODEL 4
REMARK VINA RESULT:      -5.0      2.261      2.568
REMARK  Name = 
REMARK  8 active torsions:
REMARK  status: ('A' for Active; 'I' for Inactive)
REMARK    1  A    between atoms: C_2  and  C_3
REMARK    2  A    between atoms: C_2  and  C_5
REMARK    3  A    between atoms: C_2  and  C_14
REMARK    4  A    between atoms: C_3  and  S_4
REMARK    5  A    between atoms: C_5  and  C_6
REMARK    6  A    between atoms: C_6  and  C_7
REMARK    7  A    between atoms: C_7  and  C_8
REMARK    8  A    between atoms: C_14  and  O_15
REMARK                            x       y       z     vdW  Elec       q    Type
REMARK                         _______ _______ _______ _____ _____    ______ ____
ROOT
ATOM      1  C   UNL     1       7.798  -2.696  23.162  0.00  0.00    +0.016 C 
ENDROOT
BRANCH   1   2
ATOM      2  C   UNL     1       7.119  -4.049  23.477  0.00  0.00    +0.107 C 
BRANCH   2   3
ATOM      3  C   UNL     1       6.734  -4.693  22.153  0.00  0.00    +0.309 C 
ATOM      4  O   UNL     1       7.349  -5.600  21.614  0.00  0.00    -0.251 OA
BRANCH   3   5
ATOM      5  O   UNL     1       5.630  -4.146  21.593  0.00  0.00    -0.480 OA
ATOM      6  H   UNL     1       4.970  -4.791  21.279  0.00  0.00    +0.295 HD
ENDBRANCH   3   5
ENDBRANCH   2   3
BRANCH   2   7
ATOM      7  C   UNL     1       8.025  -4.981  24.300  0.00  0.00    +0.080 C 
BRANCH   7   8
ATOM      8  S   UNL     1       7.441  -5.253  26.005  0.00  0.00    -0.177 S 
ATOM      9  H   UNL     1       7.205  -6.569  25.860  0.00  0.00    +0.102 HD
ENDBRANCH   7   8
ENDBRANCH   2   7
ENDBRANCH   1   2
BRANCH   1  10
ATOM     10  C   UNL     1       9.114  -2.480  23.907  0.00  0.00    +0.005 C 
BRANCH  10  11
ATOM     11  C   UNL     1      10.235  -1.992  22.986  0.00  0.00    +0.035 C 
BRANCH  11  12
ATOM     12  C   UNL     1      10.248  -0.483  22.962  0.00  0.00    -0.047 A 
ATOM     13  C   UNL     1       9.800   0.208  21.827  0.00  0.00    +0.003 A 
ATOM     14  C   UNL     1       9.711   1.600  21.839  0.00  0.00    +0.000 A 
ATOM     15  C   UNL     1      10.070   2.313  22.982  0.00  0.00    +0.000 A 
ATOM     16  C   UNL     1      10.527   1.635  24.111  0.00  0.00    +0.000 A 
ATOM     17  C   UNL     1      10.618   0.243  24.101  0.00  0.00    +0.003 A 
ENDBRANCH  11  12
ENDBRANCH  10  11
ENDBRANCH   1  10
TORSDOF 8
ENDMDL
MODEL 5
REMARK VINA RESULT:      -5.0      2.141      2.391
REMARK  Name = 
REMARK  8 active torsions:
REMARK  status: ('A' for Active; 'I' for Inactive)
REMARK    1  A    between atoms: C_2  and  C_3
REMARK    2  A    between atoms: C_2  and  C_5
REMARK    3  A    between atoms: C_2  and  C_14
REMARK    4  A    between atoms: C_3  and  S_4
REMARK    5  A    between atoms: C_5  and  C_6
REMARK    6  A    between atoms: C_6  and  C_7
REMARK    7  A    between atoms: C_7  and  C_8
REMARK    8  A    between atoms: C_14  and  O_15
REMARK                            x       y       z     vdW  Elec       q    Type
REMARK                         _______ _______ _______ _____ _____    ______ ____
ROOT
ATOM      1  C   UNL     1       8.966  -3.584  24.563  0.00  0.00    +0.016 C 
ENDROOT
BRANCH   1   2
ATOM      2  C   UNL     1       8.100  -3.226  25.794  0.00  0.00    +0.107 C 
BRANCH   2   3
ATOM      3  C   UNL     1       8.234  -4.360  26.800  0.00  0.00    +0.309 C 
ATOM      4  O   UNL     1       7.320  -4.801  27.479  0.00  0.00    -0.251 OA
BRANCH   3   5
ATOM      5  O   UNL     1       9.495  -4.842  26.899  0.00  0.00    -0.480 OA
ATOM      6  H   UNL     1       9.783  -5.387  26.144  0.00  0.00    +0.295 HD
ENDBRANCH   3   5
ENDBRANCH   2   3
BRANCH   2   7
ATOM      7  C   UNL     1       8.506  -1.882  26.423  0.00  0.00    +0.080 C 
BRANCH   7   8
ATOM      8  S   UNL     1       7.238  -0.583  26.254  0.00  0.00    -0.177 S 
ATOM      9  H   UNL     1       8.104   0.445  26.193  0.00  0.00    +0.102 HD
ENDBRANCH   7   8
ENDBRANCH   2   7
ENDBRANCH   1   2
BRANCH   1  10
ATOM     10  C   UNL     1       8.925  -2.532  23.456  0.00  0.00    +0.005 C 
BRANCH  10  11
ATOM     11  C   UNL     1      10.318  -2.014  23.088  0.00  0.00    +0.035 C 
BRANCH  11  12
ATOM     12  C   UNL     1      10.292  -0.507  23.015  0.00  0.00    -0.047 A 
ATOM     13  C   UNL     1       9.815   0.135  21.863  0.00  0.00    +0.003 A 
ATOM     14  C   UNL     1       9.691   1.524  21.830  0.00  0.00    +0.000 A 
ATOM     15  C   UNL     1      10.045   2.283  22.944  0.00  0.00    +0.000 A 
ATOM     16  C   UNL     1      10.531   1.655  24.090  0.00  0.00    +0.000 A 
ATOM     17  C   UNL     1      10.657   0.266  24.124  0.00  0.00    +0.003 A 
ENDBRANCH  11  12
ENDBRANCH  10  11
ENDBRANCH   1  10
TORSDOF 8
ENDMDL
MODEL 6
REMARK VINA RESULT:      -5.0      1.756      2.089
REMARK  Name = 
REMARK  8 active torsions:
REMARK  status: ('A' for Active; 'I' for Inactive)
REMARK    1  A    between atoms: C_2  and  C_3
REMARK    2  A    between atoms: C_2  and  C_5
REMARK    3  A    between atoms: C_2  and  C_14
REMARK    4  A    between atoms: C_3  and  S_4
REMARK    5  A    between atoms: C_5  and  C_6
REMARK    6  A    between atoms: C_6  and  C_7
REMARK    7  A    between atoms: C_7  and  C_8
REMARK    8  A    between atoms: C_14  and  O_15
REMARK                            x       y       z     vdW  Elec       q    Type
REMARK                         _______ _______ _______ _____ _____    ______ ____
ROOT
ATOM      1  C   UNL     1       7.805  -3.408  22.738  0.00  0.00    +0.016 C 
ENDROOT
BRANCH   1   2
ATOM      2  C   UNL     1       7.623  -3.676  24.250  0.00  0.00    +0.107 C 
BRANCH   2   3
ATOM      3  C   UNL     1       8.894  -4.341  24.758  0.00  0.00    +0.309 C 
ATOM      4  O   UNL     1      10.026  -4.013  24.441  0.00  0.00    -0.251 OA
BRANCH   3   5
ATOM      5  O   UNL     1       8.658  -5.373  25.601  0.00  0.00    -0.480 OA
ATOM      6  H   UNL     1       9.311  -6.095  25.554  0.00  0.00    +0.295 HD
ENDBRANCH   3   5
ENDBRANCH   2   3
BRANCH   2   7
ATOM      7  C   UNL     1       7.320  -2.390  25.039  0.00  0.00    +0.080 C 
BRANCH   7   8
ATOM      8  S   UNL     1       5.576  -2.235  25.544  0.00  0.00    -0.177 S 
ATOM      9  H   UNL     1       5.520  -0.896  25.434  0.00  0.00    +0.102 HD
ENDBRANCH   7   8
ENDBRANCH   2   7
ENDBRANCH   1   2
BRANCH   1  10
ATOM     10  C   UNL     1       7.980  -1.930  22.391  0.00  0.00    +0.005 C 
BRANCH  10  11
ATOM     11  C   UNL     1       9.395  -1.605  21.905  0.00  0.00    +0.035 C 
BRANCH  11  12
ATOM     12  C   UNL     1       9.863  -0.319  22.540  0.00  0.00    -0.047 A 
ATOM     13  C   UNL     1       9.787   0.887  21.827  0.00  0.00    +0.003 A 
ATOM     14  C   UNL     1      10.120   2.093  22.445  0.00  0.00    +0.000 A 
ATOM     15  C   UNL     1      10.533   2.105  23.775  0.00  0.00    +0.000 A 
ATOM     16  C   UNL     1      10.622   0.910  24.489  0.00  0.00    +0.000 A 
ATOM     17  C   UNL     1      10.292  -0.297  23.872  0.00  0.00    +0.003 A 
ENDBRANCH  11  12
ENDBRANCH  10  11
ENDBRANCH   1  10
TORSDOF 8
ENDMDL
MODEL 7
REMARK VINA RESULT:      -4.9      2.610      3.319
REMARK  Name = 
REMARK  8 active torsions:
REMARK  status: ('A' for Active; 'I' for Inactive)
REMARK    1  A    between atoms: C_2  and  C_3
REMARK    2  A    between atoms: C_2  and  C_5
REMARK    3  A    between atoms: C_2  and  C_14
REMARK    4  A    between atoms: C_3  and  S_4
REMARK    5  A    between atoms: C_5  and  C_6
REMARK    6  A    between atoms: C_6  and  C_7
REMARK    7  A    between atoms: C_7  and  C_8
REMARK    8  A    between atoms: C_14  and  O_15
REMARK                            x       y       z     vdW  Elec       q    Type
REMARK                         _______ _______ _______ _____ _____    ______ ____
ROOT
ATOM      1  C   UNL     1       7.390  -1.932  24.151  0.00  0.00    +0.016 C 
ENDROOT
BRANCH   1   2
ATOM      2  C   UNL     1       7.884  -2.350  22.746  0.00  0.00    +0.107 C 
BRANCH   2   3
ATOM      3  C   UNL     1       9.388  -2.126  22.699  0.00  0.00    +0.309 C 
ATOM      4  O   UNL     1      10.149  -2.307  23.635  0.00  0.00    -0.251 OA
BRANCH   3   5
ATOM      5  O   UNL     1       9.824  -1.673  21.500  0.00  0.00    -0.480 OA
ATOM      6  H   UNL     1       9.354  -0.887  21.166  0.00  0.00    +0.295 HD
ENDBRANCH   3   5
ENDBRANCH   2   3
BRANCH   2   7
ATOM      7  C   UNL     1       7.533  -3.811  22.415  0.00  0.00    +0.080 C 
BRANCH   7   8
ATOM      8  S   UNL     1       7.569  -4.919  23.862  0.00  0.00    -0.177 S 
ATOM      9  H   UNL     1       8.894  -5.148  23.826  0.00  0.00    +0.102 HD
ENDBRANCH   7   8
ENDBRANCH   2   7
ENDBRANCH   1   2
BRANCH   1  10
ATOM     10  C   UNL     1       6.376  -0.789  24.132  0.00  0.00    +0.005 C 
BRANCH  10  11
ATOM     11  C   UNL     1       6.928   0.496  24.752  0.00  0.00    +0.035 C 
BRANCH  11  12
ATOM     12  C   UNL     1       8.023   1.051  23.873  0.00  0.00    -0.047 A 
ATOM     13  C   UNL     1       9.321   1.210  24.379  0.00  0.00    +0.003 A 
ATOM     14  C   UNL     1      10.358   1.622  23.542  0.00  0.00    +0.000 A 
ATOM     15  C   UNL     1      10.108   1.881  22.196  0.00  0.00    +0.000 A 
ATOM     16  C   UNL     1       8.819   1.736  21.686  0.00  0.00    +0.000 A 
ATOM     17  C   UNL     1       7.779   1.325  22.522  0.00  0.00    +0.003 A 
ENDBRANCH  11  12
ENDBRANCH  10  11
ENDBRANCH   1  10
TORSDOF 8
ENDMDL
MODEL 8
REMARK VINA RESULT:      -4.7      4.058      6.555
REMARK  Name = 
REMARK  8 active torsions:
REMARK  status: ('A' for Active; 'I' for Inactive)
REMARK    1  A    between atoms: C_2  and  C_3
REMARK    2  A    between atoms: C_2  and  C_5
REMARK    3  A    between atoms: C_2  and  C_14
REMARK    4  A    between atoms: C_3  and  S_4
REMARK    5  A    between atoms: C_5  and  C_6
REMARK    6  A    between atoms: C_6  and  C_7
REMARK    7  A    between atoms: C_7  and  C_8
REMARK    8  A    between atoms: C_14  and  O_15
REMARK                            x       y       z     vdW  Elec       q    Type
REMARK                         _______ _______ _______ _____ _____    ______ ____
ROOT
ATOM      1  C   UNL     1       8.681  -0.604  22.875  0.00  0.00    +0.016 C 
ENDROOT
BRANCH   1   2
ATOM      2  C   UNL     1       9.789   0.475  22.862  0.00  0.00    +0.107 C 
BRANCH   2   3
ATOM      3  C   UNL     1       9.395   1.531  21.839  0.00  0.00    +0.309 C 
ATOM      4  O   UNL     1       8.318   1.579  21.267  0.00  0.00    -0.251 OA
BRANCH   3   5
ATOM      5  O   UNL     1      10.377   2.429  21.591  0.00  0.00    -0.480 OA
ATOM      6  H   UNL     1      10.223   3.315  21.968  0.00  0.00    +0.295 HD
ENDBRANCH   3   5
ENDBRANCH   2   3
BRANCH   2   7
ATOM      7  C   UNL     1      10.008   1.105  24.248  0.00  0.00    +0.080 C 
BRANCH   7   8
ATOM      8  S   UNL     1       8.627   2.157  24.801  0.00  0.00    -0.177 S 
ATOM      9  H   UNL     1       9.117   2.391  26.031  0.00  0.00    +0.102 HD
ENDBRANCH   7   8
ENDBRANCH   2   7
ENDBRANCH   1   2
BRANCH   1  10
ATOM     10  C   UNL     1       9.201  -2.023  22.649  0.00  0.00    +0.005 C 
BRANCH  10  11
ATOM     11  C   UNL     1       9.800  -2.636  23.917  0.00  0.00    +0.035 C 
BRANCH  11  12
ATOM     12  C   UNL     1       8.762  -3.491  24.602  0.00  0.00    -0.047 A 
ATOM     13  C   UNL     1       7.903  -4.301  23.845  0.00  0.00    +0.003 A 
ATOM     14  C   UNL     1       7.015  -5.170  24.477  0.00  0.00    +0.000 A 
ATOM     15  C   UNL     1       6.973  -5.237  25.868  0.00  0.00    +0.000 A 
ATOM     16  C   UNL     1       7.815  -4.428  26.630  0.00  0.00    +0.000 A 
ATOM     17  C   UNL     1       8.704  -3.556  26.000  0.00  0.00    +0.003 A 
ENDBRANCH  11  12
ENDBRANCH  10  11
ENDBRANCH   1  10
TORSDOF 8
ENDMDL
MODEL 9
REMARK VINA RESULT:      -4.7      4.217      6.291
REMARK  Name = 
REMARK  8 active torsions:
REMARK  status: ('A' for Active; 'I' for Inactive)
REMARK    1  A    between atoms: C_2  and  C_3
REMARK    2  A    between atoms: C_2  and  C_5
REMARK    3  A    between atoms: C_2  and  C_14
REMARK    4  A    between atoms: C_3  and  S_4
REMARK    5  A    between atoms: C_5  and  C_6
REMARK    6  A    between atoms: C_6  and  C_7
REMARK    7  A    between atoms: C_7  and  C_8
REMARK    8  A    between atoms: C_14  and  O_15
REMARK                            x       y       z     vdW  Elec       q    Type
REMARK                         _______ _______ _______ _____ _____    ______ ____
ROOT
ATOM      1  C   UNL     1       8.879   1.214  22.497  0.00  0.00    +0.016 C 
ENDROOT
BRANCH   1   2
ATOM      2  C   UNL     1      10.084   1.657  23.359  0.00  0.00    +0.107 C 
BRANCH   2   3
ATOM      3  C   UNL     1      10.104   3.179  23.380  0.00  0.00    +0.309 C 
ATOM      4  O   UNL     1       9.182   3.882  23.763  0.00  0.00    -0.251 OA
BRANCH   3   5
ATOM      5  O   UNL     1      11.256   3.706  22.905  0.00  0.00    -0.480 OA
ATOM      6  H   UNL     1      11.456   3.478  21.978  0.00  0.00    +0.295 HD
ENDBRANCH   3   5
ENDBRANCH   2   3
BRANCH   2   7
ATOM      7  C   UNL     1      10.023   1.086  24.786  0.00  0.00    +0.080 C 
BRANCH   7   8
ATOM      8  S   UNL     1       8.341   0.641  25.325  0.00  0.00    -0.177 S 
ATOM      9  H   UNL     1       8.114  -0.251  24.344  0.00  0.00    +0.102 HD
ENDBRANCH   7   8
ENDBRANCH   2   7
ENDBRANCH   1   2
BRANCH   1  10
ATOM     10  C   UNL     1       9.237   0.197  21.415  0.00  0.00    +0.005 C 
BRANCH  10  11
ATOM     11  C   UNL     1      10.182  -0.894  21.925  0.00  0.00    +0.035 C 
BRANCH  11  12
ATOM     12  C   UNL     1       9.391  -1.934  22.680  0.00  0.00    -0.047 A 
ATOM     13  C   UNL     1       8.156  -2.377  22.185  0.00  0.00    +0.003 A 
ATOM     14  C   UNL     1       7.471  -3.412  22.822  0.00  0.00    +0.000 A 
ATOM     15  C   UNL     1       8.011  -4.010  23.959  0.00  0.00    +0.000 A 
ATOM     16  C   UNL     1       9.232  -3.569  24.466  0.00  0.00    +0.000 A 
ATOM     17  C   UNL     1       9.918  -2.533  23.831  0.00  0.00    +0.003 A 
ENDBRANCH  11  12
ENDBRANCH  10  11
ENDBRANCH   1  10
TORSDOF 8
ENDMDL
