MODEL 1
REMARK VINA RESULT:      -6.7      0.000      0.000
REMARK  Name = 
REMARK  7 active torsions:
REMARK  status: ('A' for Active; 'I' for Inactive)
REMARK    1  A    between atoms: C_2  and  C_3
REMARK    2  A    between atoms: C_2  and  O_4
REMARK    3  A    between atoms: C_2  and  C_20
REMARK    4  A    between atoms: O_4  and  C_5
REMARK    5  A    between atoms: C_8  and  O_9
REMARK    6  A    between atoms: O_9  and  C_10
REMARK    7  A    between atoms: C_20  and  O_21
REMARK                            x       y       z     vdW  Elec       q    Type
REMARK                         _______ _______ _______ _____ _____    ______ ____
ROOT
ATOM      1  C   UNL     1       7.896  -4.244  23.664  0.00  0.00    +0.122 A 
ATOM      2  C   UNL     1       7.485  -3.477  22.571  0.00  0.00    +0.049 A 
ATOM      3  C   UNL     1       8.191  -2.332  22.210  0.00  0.00    +0.050 A 
ATOM      4  C   UNL     1       9.372  -2.003  22.878  0.00  0.00    +0.129 A 
ATOM      5  C   UNL     1       9.778  -2.750  23.978  0.00  0.00    +0.050 A 
ATOM      6  C   UNL     1       9.044  -3.882  24.367  0.00  0.00    +0.049 A 
ENDROOT
BRANCH   1   7
ATOM      7  O   UNL     1       7.253  -5.374  24.107  0.00  0.00    -0.478 OA
BRANCH   7   8
ATOM      8  C   UNL     1       5.848  -5.226  24.363  0.00  0.00    +0.278 C 
ATOM      9  C   UNL     1       5.570  -5.723  25.771  0.00  0.00    +0.064 C 
BRANCH   8  10
ATOM     10  C   UNL     1       5.023  -6.047  23.370  0.00  0.00    +0.346 C 
ATOM     11  O   UNL     1       4.636  -5.627  22.293  0.00  0.00    -0.247 OA
BRANCH  10  12
ATOM     12  O   UNL     1       4.734  -7.294  23.820  0.00  0.00    -0.478 OA
ATOM     13  H   UNL     1       4.751  -7.939  23.081  0.00  0.00    +0.295 HD
ENDBRANCH  10  12
ENDBRANCH   8  10
ENDBRANCH   7   8
ENDBRANCH   1   7
BRANCH   4  14
ATOM     14  O   UNL     1      10.159  -0.934  22.514  0.00  0.00    -0.455 OA
BRANCH  14  15
ATOM     15  C   UNL     1       9.638   0.343  22.605  0.00  0.00    +0.147 A 
ATOM     16  C   UNL     1       9.932   1.095  23.751  0.00  0.00    +0.085 A 
ATOM     17 CL   UNL     1      10.907   0.452  25.023  0.00  0.00    -0.080 Cl
ATOM     18  C   UNL     1       9.433   2.394  23.895  0.00  0.00    +0.043 A 
ATOM     19  C   UNL     1       8.633   2.938  22.893  0.00  0.00    +0.043 A 
ATOM     20 CL   UNL     1       7.998   4.528  23.072  0.00  0.00    -0.083 Cl
ATOM     21  C   UNL     1       8.349   2.214  21.740  0.00  0.00    +0.023 A 
ATOM     22  C   UNL     1       8.876   0.931  21.582  0.00  0.00    +0.049 A 
ENDBRANCH  14  15
ENDBRANCH   4  14
TORSDOF 6
ENDMDL
MODEL 2
REMARK VINA RESULT:      -6.5      3.480      7.816
REMARK  Name = 
REMARK  7 active torsions:
REMARK  status: ('A' for Active; 'I' for Inactive)
REMARK    1  A    between atoms: C_2  and  C_3
REMARK    2  A    between atoms: C_2  and  O_4
REMARK    3  A    between atoms: C_2  and  C_20
REMARK    4  A    between atoms: O_4  and  C_5
REMARK    5  A    between atoms: C_8  and  O_9
REMARK    6  A    between atoms: O_9  and  C_10
REMARK    7  A    between atoms: C_20  and  O_21
REMARK                            x       y       z     vdW  Elec       q    Type
REMARK                         _______ _______ _______ _____ _____    ______ ____
ROOT
ATOM      1  C   UNL     1       8.555  -0.340  23.251  0.00  0.00    +0.122 A 
ATOM      2  C   UNL     1       9.652  -1.063  23.728  0.00  0.00    +0.049 A 
ATOM      3  C   UNL     1       9.584  -2.450  23.841  0.00  0.00    +0.050 A 
ATOM      4  C   UNL     1       8.455  -3.132  23.384  0.00  0.00    +0.129 A 
ATOM      5  C   UNL     1       7.353  -2.420  22.926  0.00  0.00    +0.050 A 
ATOM      6  C   UNL     1       7.406  -1.019  22.849  0.00  0.00    +0.049 A 
ENDROOT
BRANCH   1   7
ATOM      7  O   UNL     1       8.520   1.026  23.125  0.00  0.00    -0.478 OA
BRANCH   7   8
ATOM      8  C   UNL     1       9.491   1.745  23.901  0.00  0.00    +0.278 C 
ATOM      9  C   UNL     1       8.747   2.684  24.834  0.00  0.00    +0.064 C 
BRANCH   8  10
ATOM     10  C   UNL     1      10.415   2.564  22.998  0.00  0.00    +0.346 C 
ATOM     11  O   UNL     1      11.213   3.389  23.407  0.00  0.00    -0.247 OA
BRANCH  10  12
ATOM     12  O   UNL     1      10.242   2.300  21.678  0.00  0.00    -0.478 OA
ATOM     13  H   UNL     1       9.507   2.839  21.313  0.00  0.00    +0.295 HD
ENDBRANCH  10  12
ENDBRANCH   8  10
ENDBRANCH   7   8
ENDBRANCH   1   7
BRANCH   4  14
ATOM     14  O   UNL     1       8.364  -4.505  23.391  0.00  0.00    -0.455 OA
BRANCH  14  15
ATOM     15  C   UNL     1       7.254  -5.100  23.962  0.00  0.00    +0.147 A 
ATOM     16  C   UNL     1       6.335  -5.733  23.113  0.00  0.00    +0.085 A 
ATOM     17 CL   UNL     1       6.565  -5.766  21.402  0.00  0.00    -0.080 Cl
ATOM     18  C   UNL     1       5.195  -6.352  23.637  0.00  0.00    +0.043 A 
ATOM     19  C   UNL     1       4.973  -6.333  25.012  0.00  0.00    +0.043 A 
ATOM     20 CL   UNL     1       3.563  -7.075  25.662  0.00  0.00    -0.083 Cl
ATOM     21  C   UNL     1       5.886  -5.728  25.870  0.00  0.00    +0.023 A 
ATOM     22  C   UNL     1       7.039  -5.140  25.349  0.00  0.00    +0.049 A 
ENDBRANCH  14  15
ENDBRANCH   4  14
TORSDOF 6
ENDMDL
MODEL 3
REMARK VINA RESULT:      -6.5      3.421      7.254
REMARK  Name = 
REMARK  7 active torsions:
REMARK  status: ('A' for Active; 'I' for Inactive)
REMARK    1  A    between atoms: C_2  and  C_3
REMARK    2  A    between atoms: C_2  and  O_4
REMARK    3  A    between atoms: C_2  and  C_20
REMARK    4  A    between atoms: O_4  and  C_5
REMARK    5  A    between atoms: C_8  and  O_9
REMARK    6  A    between atoms: O_9  and  C_10
REMARK    7  A    between atoms: C_20  and  O_21
REMARK                            x       y       z     vdW  Elec       q    Type
REMARK                         _______ _______ _______ _____ _____    ______ ____
ROOT
ATOM      1  C   UNL     1      10.092   0.286  24.350  0.00  0.00    +0.122 A 
ATOM      2  C   UNL     1       9.338  -0.379  25.322  0.00  0.00    +0.049 A 
ATOM      3  C   UNL     1       8.996  -1.718  25.150  0.00  0.00    +0.050 A 
ATOM      4  C   UNL     1       9.490  -2.429  24.055  0.00  0.00    +0.129 A 
ATOM      5  C   UNL     1      10.224  -1.771  23.075  0.00  0.00    +0.050 A 
ATOM      6  C   UNL     1      10.536  -0.410  23.228  0.00  0.00    +0.049 A 
ENDROOT
BRANCH   1   7
ATOM      7  O   UNL     1      10.458   1.607  24.421  0.00  0.00    -0.478 OA
BRANCH   7   8
ATOM      8  C   UNL     1      10.449   2.320  23.174  0.00  0.00    +0.278 C 
ATOM      9  C   UNL     1      11.219   3.616  23.367  0.00  0.00    +0.064 C 
BRANCH   8  10
ATOM     10  C   UNL     1       9.019   2.646  22.741  0.00  0.00    +0.346 C 
ATOM     11  O   UNL     1       8.195   3.187  23.458  0.00  0.00    -0.247 OA
BRANCH  10  12
ATOM     12  O   UNL     1       8.742   2.247  21.474  0.00  0.00    -0.478 OA
ATOM     13  H   UNL     1       8.350   2.985  20.959  0.00  0.00    +0.295 HD
ENDBRANCH  10  12
ENDBRANCH   8  10
ENDBRANCH   7   8
ENDBRANCH   1   7
BRANCH   4  14
ATOM     14  O   UNL     1       9.258  -3.774  23.876  0.00  0.00    -0.455 OA
BRANCH  14  15
ATOM     15  C   UNL     1       7.964  -4.207  23.657  0.00  0.00    +0.147 A 
ATOM     16  C   UNL     1       7.337  -4.948  24.669  0.00  0.00    +0.085 A 
ATOM     17 CL   UNL     1       8.150  -5.325  26.145  0.00  0.00    -0.080 Cl
ATOM     18  C   UNL     1       6.027  -5.410  24.502  0.00  0.00    +0.043 A 
ATOM     19  C   UNL     1       5.347  -5.135  23.317  0.00  0.00    +0.043 A 
ATOM     20 CL   UNL     1       3.743  -5.717  23.096  0.00  0.00    -0.083 Cl
ATOM     21  C   UNL     1       5.947  -4.383  22.313  0.00  0.00    +0.023 A 
ATOM     22  C   UNL     1       7.241  -3.893  22.495  0.00  0.00    +0.049 A 
ENDBRANCH  14  15
ENDBRANCH   4  14
TORSDOF 6
ENDMDL
MODEL 4
REMARK VINA RESULT:      -6.4      3.347      7.667
REMARK  Name = 
REMARK  7 active torsions:
REMARK  status: ('A' for Active; 'I' for Inactive)
REMARK    1  A    between atoms: C_2  and  C_3
REMARK    2  A    between atoms: C_2  and  O_4
REMARK    3  A    between atoms: C_2  and  C_20
REMARK    4  A    between atoms: O_4  and  C_5
REMARK    5  A    between atoms: C_8  and  O_9
REMARK    6  A    between atoms: O_9  and  C_10
REMARK    7  A    between atoms: C_20  and  O_21
REMARK                            x       y       z     vdW  Elec       q    Type
REMARK                         _______ _______ _______ _____ _____    ______ ____
ROOT
ATOM      1  C   UNL     1       9.731   0.594  23.381  0.00  0.00    +0.122 A 
ATOM      2  C   UNL     1       9.343   0.101  24.631  0.00  0.00    +0.049 A 
ATOM      3  C   UNL     1       9.331  -1.271  24.871  0.00  0.00    +0.050 A 
ATOM      4  C   UNL     1       9.802  -2.153  23.898  0.00  0.00    +0.129 A 
ATOM      5  C   UNL     1      10.171  -1.673  22.646  0.00  0.00    +0.050 A 
ATOM      6  C   UNL     1      10.147  -0.292  22.390  0.00  0.00    +0.049 A 
ENDROOT
BRANCH   1   7
ATOM      7  O   UNL     1       9.754   1.925  23.045  0.00  0.00    -0.478 OA
BRANCH   7   8
ATOM      8  C   UNL     1       8.510   2.624  23.195  0.00  0.00    +0.278 C 
ATOM      9  C   UNL     1       7.739   2.500  21.892  0.00  0.00    +0.064 C 
BRANCH   8  10
ATOM     10  C   UNL     1       8.747   4.104  23.498  0.00  0.00    +0.346 C 
ATOM     11  O   UNL     1       9.279   4.516  24.515  0.00  0.00    -0.247 OA
BRANCH  10  12
ATOM     12  O   UNL     1       8.278   4.929  22.528  0.00  0.00    -0.478 OA
ATOM     13  H   UNL     1       8.432   5.867  22.769  0.00  0.00    +0.295 HD
ENDBRANCH  10  12
ENDBRANCH   8  10
ENDBRANCH   7   8
ENDBRANCH   1   7
BRANCH   4  14
ATOM     14  O   UNL     1       9.894  -3.510  24.107  0.00  0.00    -0.455 OA
BRANCH  14  15
ATOM     15  C   UNL     1       8.886  -4.151  24.803  0.00  0.00    +0.147 A 
ATOM     16  C   UNL     1       7.724  -4.505  24.104  0.00  0.00    +0.085 A 
ATOM     17 CL   UNL     1       7.539  -4.146  22.425  0.00  0.00    -0.080 Cl
ATOM     18  C   UNL     1       6.673  -5.156  24.758  0.00  0.00    +0.043 A 
ATOM     19  C   UNL     1       6.784  -5.449  26.115  0.00  0.00    +0.043 A 
ATOM     20 CL   UNL     1       5.488  -6.233  26.932  0.00  0.00    -0.083 Cl
ATOM     21  C   UNL     1       7.940  -5.125  26.819  0.00  0.00    +0.023 A 
ATOM     22  C   UNL     1       9.001  -4.505  26.157  0.00  0.00    +0.049 A 
ENDBRANCH  14  15
ENDBRANCH   4  14
TORSDOF 6
ENDMDL
MODEL 5
REMARK VINA RESULT:      -6.3      3.466      7.813
REMARK  Name = 
REMARK  7 active torsions:
REMARK  status: ('A' for Active; 'I' for Inactive)
REMARK    1  A    between atoms: C_2  and  C_3
REMARK    2  A    between atoms: C_2  and  O_4
REMARK    3  A    between atoms: C_2  and  C_20
REMARK    4  A    between atoms: O_4  and  C_5
REMARK    5  A    between atoms: C_8  and  O_9
REMARK    6  A    between atoms: O_9  and  C_10
REMARK    7  A    between atoms: C_20  and  O_21
REMARK                            x       y       z     vdW  Elec       q    Type
REMARK                         _______ _______ _______ _____ _____    ______ ____
ROOT
ATOM      1  C   UNL     1      10.168   1.895  23.344  0.00  0.00    +0.122 A 
ATOM      2  C   UNL     1      10.096   1.113  24.501  0.00  0.00    +0.049 A 
ATOM      3  C   UNL     1       9.870  -0.258  24.409  0.00  0.00    +0.050 A 
ATOM      4  C   UNL     1       9.817  -0.873  23.157  0.00  0.00    +0.129 A 
ATOM      5  C   UNL     1       9.869  -0.100  22.002  0.00  0.00    +0.050 A 
ATOM      6  C   UNL     1      10.057   1.288  22.095  0.00  0.00    +0.049 A 
ENDROOT
BRANCH   1   7
ATOM      7  O   UNL     1      10.365   3.254  23.336  0.00  0.00    -0.478 OA
BRANCH   7   8
ATOM      8  C   UNL     1       9.352   4.031  23.993  0.00  0.00    +0.278 C 
ATOM      9  C   UNL     1       8.099   3.993  23.134  0.00  0.00    +0.064 C 
BRANCH   8  10
ATOM     10  C   UNL     1       9.800   5.483  24.162  0.00  0.00    +0.346 C 
ATOM     11  O   UNL     1       9.806   6.076  25.227  0.00  0.00    -0.247 OA
BRANCH  10  12
ATOM     12  O   UNL     1      10.170   6.066  22.994  0.00  0.00    -0.478 OA
ATOM     13  H   UNL     1      10.237   7.039  23.101  0.00  0.00    +0.295 HD
ENDBRANCH  10  12
ENDBRANCH   8  10
ENDBRANCH   7   8
ENDBRANCH   1   7
BRANCH   4  14
ATOM     14  O   UNL     1       9.682  -2.234  23.003  0.00  0.00    -0.455 OA
BRANCH  14  15
ATOM     15  C   UNL     1       8.427  -2.801  23.126  0.00  0.00    +0.147 A 
ATOM     16  C   UNL     1       8.262  -3.843  24.048  0.00  0.00    +0.085 A 
ATOM     17 CL   UNL     1       9.582  -4.418  25.002  0.00  0.00    -0.080 Cl
ATOM     18  C   UNL     1       7.014  -4.452  24.215  0.00  0.00    +0.043 A 
ATOM     19  C   UNL     1       5.931  -4.021  23.452  0.00  0.00    +0.043 A 
ATOM     20 CL   UNL     1       4.397  -4.779  23.637  0.00  0.00    -0.083 Cl
ATOM     21  C   UNL     1       6.073  -2.974  22.548  0.00  0.00    +0.023 A 
ATOM     22  C   UNL     1       7.311  -2.344  22.407  0.00  0.00    +0.049 A 
ENDBRANCH  14  15
ENDBRANCH   4  14
TORSDOF 6
ENDMDL
MODEL 6
REMARK VINA RESULT:      -6.2      3.614      7.878
REMARK  Name = 
REMARK  7 active torsions:
REMARK  status: ('A' for Active; 'I' for Inactive)
REMARK    1  A    between atoms: C_2  and  C_3
REMARK    2  A    between atoms: C_2  and  O_4
REMARK    3  A    between atoms: C_2  and  C_20
REMARK    4  A    between atoms: O_4  and  C_5
REMARK    5  A    between atoms: C_8  and  O_9
REMARK    6  A    between atoms: O_9  and  C_10
REMARK    7  A    between atoms: C_20  and  O_21
REMARK                            x       y       z     vdW  Elec       q    Type
REMARK                         _______ _______ _______ _____ _____    ______ ____
ROOT
ATOM      1  C   UNL     1       8.495  -0.979  24.177  0.00  0.00    +0.122 A 
ATOM      2  C   UNL     1       9.498  -1.927  24.398  0.00  0.00    +0.049 A 
ATOM      3  C   UNL     1       9.169  -3.269  24.578  0.00  0.00    +0.050 A 
ATOM      4  C   UNL     1       7.844  -3.686  24.438  0.00  0.00    +0.129 A 
ATOM      5  C   UNL     1       6.838  -2.747  24.236  0.00  0.00    +0.050 A 
ATOM      6  C   UNL     1       7.165  -1.389  24.094  0.00  0.00    +0.049 A 
ENDROOT
BRANCH   1   7
ATOM      7  O   UNL     1       8.720   0.365  24.011  0.00  0.00    -0.478 OA
BRANCH   7   8
ATOM      8  C   UNL     1       9.940   0.711  23.338  0.00  0.00    +0.278 C 
ATOM      9  C   UNL     1      10.471   1.994  23.954  0.00  0.00    +0.064 C 
BRANCH   8  10
ATOM     10  C   UNL     1       9.697   0.935  21.845  0.00  0.00    +0.346 C 
ATOM     11  O   UNL     1       9.347   0.060  21.071  0.00  0.00    -0.247 OA
BRANCH  10  12
ATOM     12  O   UNL     1       9.938   2.210  21.451  0.00  0.00    -0.478 OA
ATOM     13  H   UNL     1      10.671   2.600  21.974  0.00  0.00    +0.295 HD
ENDBRANCH  10  12
ENDBRANCH   8  10
ENDBRANCH   7   8
ENDBRANCH   1   7
BRANCH   4  14
ATOM     14  O   UNL     1       7.468  -5.008  24.519  0.00  0.00    -0.455 OA
BRANCH  14  15
ATOM     15  C   UNL     1       6.752  -5.434  25.622  0.00  0.00    +0.147 A 
ATOM     16  C   UNL     1       5.527  -6.081  25.403  0.00  0.00    +0.085 A 
ATOM     17 CL   UNL     1       4.916  -6.334  23.808  0.00  0.00    -0.080 Cl
ATOM     18  C   UNL     1       4.762  -6.534  26.482  0.00  0.00    +0.043 A 
ATOM     19  C   UNL     1       5.220  -6.335  27.783  0.00  0.00    +0.043 A 
ATOM     20 CL   UNL     1       4.275  -6.872  29.116  0.00  0.00    -0.083 Cl
ATOM     21  C   UNL     1       6.443  -5.714  28.016  0.00  0.00    +0.023 A 
ATOM     22  C   UNL     1       7.222  -5.292  26.937  0.00  0.00    +0.049 A 
ENDBRANCH  14  15
ENDBRANCH   4  14
TORSDOF 6
ENDMDL
MODEL 7
REMARK VINA RESULT:      -6.2      3.375      7.821
REMARK  Name = 
REMARK  7 active torsions:
REMARK  status: ('A' for Active; 'I' for Inactive)
REMARK    1  A    between atoms: C_2  and  C_3
REMARK    2  A    between atoms: C_2  and  O_4
REMARK    3  A    between atoms: C_2  and  C_20
REMARK    4  A    between atoms: O_4  and  C_5
REMARK    5  A    between atoms: C_8  and  O_9
REMARK    6  A    between atoms: O_9  and  C_10
REMARK    7  A    between atoms: C_20  and  O_21
REMARK                            x       y       z     vdW  Elec       q    Type
REMARK                         _______ _______ _______ _____ _____    ______ ____
ROOT
ATOM      1  C   UNL     1       9.616   1.210  22.933  0.00  0.00    +0.122 A 
ATOM      2  C   UNL     1       9.675   0.342  21.839  0.00  0.00    +0.049 A 
ATOM      3  C   UNL     1       9.905  -1.018  22.032  0.00  0.00    +0.050 A 
ATOM      4  C   UNL     1       9.976  -1.535  23.327  0.00  0.00    +0.129 A 
ATOM      5  C   UNL     1       9.937  -0.677  24.420  0.00  0.00    +0.050 A 
ATOM      6  C   UNL     1       9.745   0.700  24.224  0.00  0.00    +0.049 A 
ENDROOT
BRANCH   1   7
ATOM      7  O   UNL     1       9.416   2.565  22.841  0.00  0.00    -0.478 OA
BRANCH   7   8
ATOM      8  C   UNL     1       9.906   3.340  23.946  0.00  0.00    +0.278 C 
ATOM      9  C   UNL     1       8.727   4.069  24.569  0.00  0.00    +0.064 C 
BRANCH   8  10
ATOM     10  C   UNL     1      10.940   4.366  23.479  0.00  0.00    +0.346 C 
ATOM     11  O   UNL     1      12.131   4.133  23.371  0.00  0.00    -0.247 OA
BRANCH  10  12
ATOM     12  O   UNL     1      10.402   5.584  23.219  0.00  0.00    -0.478 OA
ATOM     13  H   UNL     1       9.427   5.561  23.331  0.00  0.00    +0.295 HD
ENDBRANCH  10  12
ENDBRANCH   8  10
ENDBRANCH   7   8
ENDBRANCH   1   7
BRANCH   4  14
ATOM     14  O   UNL     1      10.116  -2.880  23.583  0.00  0.00    -0.455 OA
BRANCH  14  15
ATOM     15  C   UNL     1       9.178  -3.512  24.378  0.00  0.00    +0.147 A 
ATOM     16  C   UNL     1       7.946  -3.853  23.801  0.00  0.00    +0.085 A 
ATOM     17 CL   UNL     1       7.595  -3.491  22.150  0.00  0.00    -0.080 Cl
ATOM     18  C   UNL     1       6.962  -4.495  24.559  0.00  0.00    +0.043 A 
ATOM     19  C   UNL     1       7.208  -4.791  25.898  0.00  0.00    +0.043 A 
ATOM     20 CL   UNL     1       5.994  -5.563  26.842  0.00  0.00    -0.083 Cl
ATOM     21  C   UNL     1       8.433  -4.479  26.480  0.00  0.00    +0.023 A 
ATOM     22  C   UNL     1       9.427  -3.869  25.713  0.00  0.00    +0.049 A 
ENDBRANCH  14  15
ENDBRANCH   4  14
TORSDOF 6
ENDMDL
MODEL 8
REMARK VINA RESULT:      -6.1      2.645      3.333
REMARK  Name = 
REMARK  7 active torsions:
REMARK  status: ('A' for Active; 'I' for Inactive)
REMARK    1  A    between atoms: C_2  and  C_3
REMARK    2  A    between atoms: C_2  and  O_4
REMARK    3  A    between atoms: C_2  and  C_20
REMARK    4  A    between atoms: O_4  and  C_5
REMARK    5  A    between atoms: C_8  and  O_9
REMARK    6  A    between atoms: O_9  and  C_10
REMARK    7  A    between atoms: C_20  and  O_21
REMARK                            x       y       z     vdW  Elec       q    Type
REMARK                         _______ _______ _______ _____ _____    ______ ____
ROOT
ATOM      1  C   UNL     1       8.174  -2.581  23.814  0.00  0.00    +0.122 A 
ATOM      2  C   UNL     1       7.715  -1.399  24.401  0.00  0.00    +0.049 A 
ATOM      3  C   UNL     1       7.908  -0.176  23.762  0.00  0.00    +0.050 A 
ATOM      4  C   UNL     1       8.471  -0.139  22.485  0.00  0.00    +0.129 A 
ATOM      5  C   UNL     1       8.947  -1.307  21.902  0.00  0.00    +0.050 A 
ATOM      6  C   UNL     1       8.789  -2.536  22.564  0.00  0.00    +0.049 A 
ENDROOT
BRANCH   1   7
ATOM      7  O   UNL     1       8.050  -3.827  24.376  0.00  0.00    -0.478 OA
BRANCH   7   8
ATOM      8  C   UNL     1       8.732  -4.014  25.626  0.00  0.00    +0.278 C 
ATOM      9  C   UNL     1       9.871  -4.994  25.399  0.00  0.00    +0.064 C 
BRANCH   8  10
ATOM     10  C   UNL     1       7.786  -4.581  26.686  0.00  0.00    +0.346 C 
ATOM     11  O   UNL     1       6.894  -3.941  27.216  0.00  0.00    -0.247 OA
BRANCH  10  12
ATOM     12  O   UNL     1       8.056  -5.871  27.005  0.00  0.00    -0.478 OA
ATOM     13  H   UNL     1       8.006  -6.003  27.976  0.00  0.00    +0.295 HD
ENDBRANCH  10  12
ENDBRANCH   8  10
ENDBRANCH   7   8
ENDBRANCH   1   7
BRANCH   4  14
ATOM     14  O   UNL     1       8.609   1.028  21.768  0.00  0.00    -0.455 OA
BRANCH  14  15
ATOM     15  C   UNL     1       9.031   2.171  22.423  0.00  0.00    +0.147 A 
ATOM     16  C   UNL     1       8.082   3.168  22.686  0.00  0.00    +0.085 A 
ATOM     17 CL   UNL     1       6.433   2.992  22.204  0.00  0.00    -0.080 Cl
ATOM     18  C   UNL     1       8.453   4.344  23.347  0.00  0.00    +0.043 A 
ATOM     19  C   UNL     1       9.778   4.523  23.739  0.00  0.00    +0.043 A 
ATOM     20 CL   UNL     1      10.246   5.976  24.534  0.00  0.00    -0.083 Cl
ATOM     21  C   UNL     1      10.727   3.535  23.504  0.00  0.00    +0.023 A 
ATOM     22  C   UNL     1      10.348   2.348  22.875  0.00  0.00    +0.049 A 
ENDBRANCH  14  15
ENDBRANCH   4  14
TORSDOF 6
ENDMDL
MODEL 9
REMARK VINA RESULT:      -6.0      1.994      3.152
REMARK  Name = 
REMARK  7 active torsions:
REMARK  status: ('A' for Active; 'I' for Inactive)
REMARK    1  A    between atoms: C_2  and  C_3
REMARK    2  A    between atoms: C_2  and  O_4
REMARK    3  A    between atoms: C_2  and  C_20
REMARK    4  A    between atoms: O_4  and  C_5
REMARK    5  A    between atoms: C_8  and  O_9
REMARK    6  A    between atoms: O_9  and  C_10
REMARK    7  A    between atoms: C_20  and  O_21
REMARK                            x       y       z     vdW  Elec       q    Type
REMARK                         _______ _______ _______ _____ _____    ______ ____
ROOT
ATOM      1  C   UNL     1       4.628  -4.539  23.038  0.00  0.00    +0.122 A 
ATOM      2  C   UNL     1       5.677  -5.186  22.377  0.00  0.00    +0.049 A 
ATOM      3  C   UNL     1       6.989  -4.749  22.546  0.00  0.00    +0.050 A 
ATOM      4  C   UNL     1       7.272  -3.728  23.455  0.00  0.00    +0.129 A 
ATOM      5  C   UNL     1       6.233  -3.068  24.102  0.00  0.00    +0.050 A 
ATOM      6  C   UNL     1       4.907  -3.482  23.902  0.00  0.00    +0.049 A 
ENDROOT
BRANCH   1   7
ATOM      7  O   UNL     1       3.305  -4.883  22.917  0.00  0.00    -0.478 OA
BRANCH   7   8
ATOM      8  C   UNL     1       3.008  -6.276  23.098  0.00  0.00    +0.278 C 
ATOM      9  C   UNL     1       1.563  -6.507  22.687  0.00  0.00    +0.064 C 
BRANCH   8  10
ATOM     10  C   UNL     1       3.184  -6.688  24.561  0.00  0.00    +0.346 C 
ATOM     11  O   UNL     1       2.576  -6.185  25.489  0.00  0.00    -0.247 OA
BRANCH  10  12
ATOM     12  O   UNL     1       4.115  -7.660  24.732  0.00  0.00    -0.478 OA
ATOM     13  H   UNL     1       4.892  -7.311  25.219  0.00  0.00    +0.295 HD
ENDBRANCH  10  12
ENDBRANCH   8  10
ENDBRANCH   7   8
ENDBRANCH   1   7
BRANCH   4  14
ATOM     14  O   UNL     1       8.555  -3.311  23.729  0.00  0.00    -0.455 OA
BRANCH  14  15
ATOM     15  C   UNL     1       8.957  -2.059  23.304  0.00  0.00    +0.147 A 
ATOM     16  C   UNL     1       9.170  -1.070  24.274  0.00  0.00    +0.085 A 
ATOM     17 CL   UNL     1       8.929  -1.390  25.954  0.00  0.00    -0.080 Cl
ATOM     18  C   UNL     1       9.580   0.214  23.900  0.00  0.00    +0.043 A 
ATOM     19  C   UNL     1       9.771   0.510  22.552  0.00  0.00    +0.043 A 
ATOM     20 CL   UNL     1      10.256   2.093  22.083  0.00  0.00    -0.083 Cl
ATOM     21  C   UNL     1       9.586  -0.466  21.579  0.00  0.00    +0.023 A 
ATOM     22  C   UNL     1       9.210  -1.756  21.956  0.00  0.00    +0.049 A 
ENDBRANCH  14  15
ENDBRANCH   4  14
TORSDOF 6
ENDMDL
