MODEL 1
REMARK VINA RESULT:      -8.2      0.000      0.000
REMARK  Name = 
REMARK  12 active torsions:
REMARK  status: ('A' for Active; 'I' for Inactive)
REMARK    1  A    between atoms: C_3  and  C_5
REMARK    2  A    between atoms: C_6  and  S_7
REMARK    3  A    between atoms: S_7  and  C_8
REMARK    4  A    between atoms: C_12  and  C_15
REMARK    5  A    between atoms: N_17  and  C_18
REMARK    6  A    between atoms: C_22  and  C_24
REMARK    7  A    between atoms: C_24  and  O_25
REMARK    8  A    between atoms: C_27  and  C_37
REMARK    9  A    between atoms: C_31  and  C_33
REMARK   10  A    between atoms: C_33  and  C_35
REMARK   11  A    between atoms: C_33  and  O_36
REMARK   12  A    between atoms: C_37  and  O_38
REMARK                            x       y       z     vdW  Elec       q    Type
REMARK                         _______ _______ _______ _____ _____    ______ ____
ROOT
ATOM      1  C   UNL     1       5.602   2.872  24.055  0.00  0.00    +0.067 C 
ATOM      2  C   UNL     1       5.689   4.394  24.228  0.00  0.00    +0.044 C 
ATOM      3  C   UNL     1       6.309   4.935  22.932  0.00  0.00    +0.142 C 
ATOM      4  N   UNL     1       6.480   3.745  22.069  0.00  0.00    -0.305 NA
ATOM      5  H   UNL     1       6.383   3.982  21.084  0.00  0.00    +0.123 HD
ATOM      6  C   UNL     1       5.560   2.725  22.539  0.00  0.00    +0.096 C 
ENDROOT
BRANCH   3   7
ATOM      7  C   UNL     1       7.668   5.685  23.028  0.00  0.00    +0.234 C 
ATOM      8  N   UNL     1       8.532   5.233  24.017  0.00  0.00    -0.284 N 
ATOM      9  H   UNL     1       8.227   4.452  24.585  0.00  0.00    +0.155 HD
ATOM     10  O   UNL     1       7.878   6.673  22.321  0.00  0.00    -0.274 OA
BRANCH   8  11
ATOM     11  C   UNL     1       9.822   5.738  24.309  0.00  0.00    +0.034 A 
ATOM     12  C   UNL     1      10.873   5.380  23.452  0.00  0.00    +0.038 A 
ATOM     13  C   UNL     1      12.175   5.862  23.679  0.00  0.00    +0.061 A 
ATOM     14  C   UNL     1      12.442   6.671  24.788  0.00  0.00    +0.015 A 
ATOM     15  C   UNL     1      11.404   7.030  25.637  0.00  0.00    +0.003 A 
ATOM     16  C   UNL     1      10.105   6.575  25.392  0.00  0.00    +0.023 A 
BRANCH  13  17
ATOM     17  C   UNL     1      13.251   5.451  22.742  0.00  0.00    +0.337 C 
ATOM     18  O   UNL     1      13.180   5.637  21.542  0.00  0.00    -0.245 OA
BRANCH  17  19
ATOM     19  O   UNL     1      14.324   4.900  23.349  0.00  0.00    -0.477 OA
ATOM     20  H   UNL     1      15.148   5.415  23.288  0.00  0.00    +0.295 HD
ENDBRANCH  17  19
ENDBRANCH  13  17
ENDBRANCH   8  11
ENDBRANCH   3   7
BRANCH   1  21
ATOM     21  S   UNL     1       7.066   2.120  24.864  0.00  0.00    -0.122 S 
BRANCH  21  28
ATOM     22  C   UNL     1       7.087  -1.400  22.919  0.00  0.00    +0.104 C 
ATOM     23  C   UNL     1       8.109  -2.545  23.209  0.00  0.00    +0.125 C 
ATOM     24  C   UNL     1       9.109  -1.679  22.439  0.00  0.00    +0.228 C 
ATOM     25  O   UNL     1      10.296  -1.679  22.197  0.00  0.00    -0.275 OA
ATOM     26  N   UNL     1       8.217  -0.655  22.295  0.00  0.00    -0.260 N 
ATOM     27  C   UNL     1       8.372   0.553  22.966  0.00  0.00    +0.131 C 
ATOM     28  C   UNL     1       7.433   0.726  23.917  0.00  0.00    +0.019 C 
ATOM     29  C   UNL     1       6.497  -0.465  23.975  0.00  0.00    +0.046 C 
ATOM     30  C   UNL     1       6.378  -1.168  25.320  0.00  0.00    +0.015 C 
BRANCH  23  31
ATOM     31  C   UNL     1       7.719  -3.897  22.647  0.00  0.00    +0.125 C 
ATOM     32  C   UNL     1       7.809  -4.985  23.706  0.00  0.00    +0.038 C 
BRANCH  31  33
ATOM     33  O   UNL     1       6.366  -3.782  22.205  0.00  0.00    -0.391 OA
ATOM     34  H   UNL     1       6.191  -2.850  21.982  0.00  0.00    +0.210 HD
ENDBRANCH  31  33
ENDBRANCH  23  31
BRANCH  27  35
ATOM     35  C   UNL     1       9.426   1.530  22.551  0.00  0.00    +0.352 C 
ATOM     36  O   UNL     1      10.458   1.731  23.172  0.00  0.00    -0.244 OA
BRANCH  35  37
ATOM     37  O   UNL     1       9.163   2.195  21.405  0.00  0.00    -0.476 OA
ATOM     38  H   UNL     1       9.537   3.101  21.327  0.00  0.00    +0.295 HD
ENDBRANCH  35  37
ENDBRANCH  27  35
ENDBRANCH  21  28
ENDBRANCH   1  21
TORSDOF 10
ENDMDL
MODEL 2
REMARK VINA RESULT:      -7.9      3.077      5.463
REMARK  Name = 
REMARK  12 active torsions:
REMARK  status: ('A' for Active; 'I' for Inactive)
REMARK    1  A    between atoms: C_3  and  C_5
REMARK    2  A    between atoms: C_6  and  S_7
REMARK    3  A    between atoms: S_7  and  C_8
REMARK    4  A    between atoms: C_12  and  C_15
REMARK    5  A    between atoms: N_17  and  C_18
REMARK    6  A    between atoms: C_22  and  C_24
REMARK    7  A    between atoms: C_24  and  O_25
REMARK    8  A    between atoms: C_27  and  C_37
REMARK    9  A    between atoms: C_31  and  C_33
REMARK   10  A    between atoms: C_33  and  C_35
REMARK   11  A    between atoms: C_33  and  O_36
REMARK   12  A    between atoms: C_37  and  O_38
REMARK                            x       y       z     vdW  Elec       q    Type
REMARK                         _______ _______ _______ _____ _____    ______ ____
ROOT
ATOM      1  C   UNL     1       8.372  -2.644  22.920  0.00  0.00    +0.067 C 
ATOM      2  C   UNL     1       8.811  -1.782  21.729  0.00  0.00    +0.044 C 
ATOM      3  C   UNL     1       9.946  -0.887  22.245  0.00  0.00    +0.142 C 
ATOM      4  N   UNL     1      10.153  -1.311  23.648  0.00  0.00    -0.305 NA
ATOM      5  H   UNL     1      11.125  -1.205  23.930  0.00  0.00    +0.123 HD
ATOM      6  C   UNL     1       9.628  -2.658  23.783  0.00  0.00    +0.096 C 
ENDROOT
BRANCH   3   7
ATOM      7  C   UNL     1       9.738   0.653  22.211  0.00  0.00    +0.234 C 
ATOM      8  N   UNL     1      10.216   1.345  23.317  0.00  0.00    -0.284 N 
ATOM      9  H   UNL     1      10.672   0.809  24.044  0.00  0.00    +0.155 HD
ATOM     10  O   UNL     1       9.095   1.169  21.295  0.00  0.00    -0.274 OA
BRANCH   8  11
ATOM     11  C   UNL     1      10.157   2.744  23.530  0.00  0.00    +0.034 A 
ATOM     12  C   UNL     1      11.337   3.482  23.359  0.00  0.00    +0.038 A 
ATOM     13  C   UNL     1      11.340   4.876  23.540  0.00  0.00    +0.061 A 
ATOM     14  C   UNL     1      10.173   5.537  23.936  0.00  0.00    +0.015 A 
ATOM     15  C   UNL     1       9.001   4.810  24.105  0.00  0.00    +0.003 A 
ATOM     16  C   UNL     1       8.994   3.428  23.893  0.00  0.00    +0.023 A 
BRANCH  13  17
ATOM     17  C   UNL     1      12.617   5.609  23.347  0.00  0.00    +0.337 C 
ATOM     18  O   UNL     1      13.231   5.588  22.297  0.00  0.00    -0.245 OA
BRANCH  17  19
ATOM     19  O   UNL     1      13.001   6.331  24.422  0.00  0.00    -0.477 OA
ATOM     20  H   UNL     1      13.728   5.947  24.943  0.00  0.00    +0.295 HD
ENDBRANCH  17  19
ENDBRANCH  13  17
ENDBRANCH   8  11
ENDBRANCH   3   7
BRANCH   1  21
ATOM     21  S   UNL     1       6.912  -1.849  23.694  0.00  0.00    -0.122 S 
BRANCH  21  28
ATOM     22  C   UNL     1       5.620  -4.171  26.713  0.00  0.00    +0.104 C 
ATOM     23  C   UNL     1       6.088  -5.645  26.935  0.00  0.00    +0.125 C 
ATOM     24  C   UNL     1       5.157  -5.984  25.768  0.00  0.00    +0.228 C 
ATOM     25  O   UNL     1       4.896  -6.946  25.080  0.00  0.00    -0.275 OA
ATOM     26  N   UNL     1       4.852  -4.674  25.539  0.00  0.00    -0.260 N 
ATOM     27  C   UNL     1       5.296  -4.005  24.404  0.00  0.00    +0.131 C 
ATOM     28  C   UNL     1       6.219  -3.068  24.697  0.00  0.00    +0.019 C 
ATOM     29  C   UNL     1       6.506  -3.041  26.186  0.00  0.00    +0.046 C 
ATOM     30  C   UNL     1       7.956  -3.247  26.600  0.00  0.00    +0.015 C 
BRANCH  23  31
ATOM     31  C   UNL     1       5.782  -6.204  28.309  0.00  0.00    +0.125 C 
ATOM     32  C   UNL     1       4.727  -5.375  29.024  0.00  0.00    +0.038 C 
BRANCH  31  33
ATOM     33  O   UNL     1       5.285  -7.529  28.111  0.00  0.00    -0.391 OA
ATOM     34  H   UNL     1       6.016  -8.089  27.794  0.00  0.00    +0.210 HD
ENDBRANCH  31  33
ENDBRANCH  23  31
BRANCH  27  35
ATOM     35  C   UNL     1       4.694  -4.288  23.064  0.00  0.00    +0.352 C 
ATOM     36  O   UNL     1       5.263  -4.096  22.001  0.00  0.00    -0.244 OA
BRANCH  35  37
ATOM     37  O   UNL     1       3.441  -4.794  23.100  0.00  0.00    -0.476 OA
ATOM     38  H   UNL     1       3.283  -5.529  23.735  0.00  0.00    +0.295 HD
ENDBRANCH  35  37
ENDBRANCH  27  35
ENDBRANCH  21  28
ENDBRANCH   1  21
TORSDOF 10
ENDMDL
MODEL 3
REMARK VINA RESULT:      -7.8      4.185      9.980
REMARK  Name = 
REMARK  12 active torsions:
REMARK  status: ('A' for Active; 'I' for Inactive)
REMARK    1  A    between atoms: C_3  and  C_5
REMARK    2  A    between atoms: C_6  and  S_7
REMARK    3  A    between atoms: S_7  and  C_8
REMARK    4  A    between atoms: C_12  and  C_15
REMARK    5  A    between atoms: N_17  and  C_18
REMARK    6  A    between atoms: C_22  and  C_24
REMARK    7  A    between atoms: C_24  and  O_25
REMARK    8  A    between atoms: C_27  and  C_37
REMARK    9  A    between atoms: C_31  and  C_33
REMARK   10  A    between atoms: C_33  and  C_35
REMARK   11  A    between atoms: C_33  and  O_36
REMARK   12  A    between atoms: C_37  and  O_38
REMARK                            x       y       z     vdW  Elec       q    Type
REMARK                         _______ _______ _______ _____ _____    ______ ____
ROOT
ATOM      1  C   UNL     1       7.197  -4.529  21.955  0.00  0.00    +0.067 C 
ATOM      2  C   UNL     1       6.676  -5.948  22.221  0.00  0.00    +0.044 C 
ATOM      3  C   UNL     1       5.185  -5.799  22.554  0.00  0.00    +0.142 C 
ATOM      4  N   UNL     1       4.906  -4.354  22.400  0.00  0.00    -0.305 NA
ATOM      5  H   UNL     1       3.951  -4.190  22.089  0.00  0.00    +0.123 HD
ATOM      6  C   UNL     1       5.929  -3.798  21.533  0.00  0.00    +0.096 C 
ENDROOT
BRANCH   3   7
ATOM      7  C   UNL     1       4.699  -6.258  23.958  0.00  0.00    +0.234 C 
ATOM      8  N   UNL     1       4.597  -5.254  24.912  0.00  0.00    -0.284 N 
ATOM      9  H   UNL     1       4.827  -4.311  24.627  0.00  0.00    +0.155 HD
ATOM     10  O   UNL     1       4.526  -7.457  24.189  0.00  0.00    -0.274 OA
BRANCH   8  11
ATOM     11  C   UNL     1       4.177  -5.405  26.257  0.00  0.00    +0.034 A 
ATOM     12  C   UNL     1       5.155  -5.696  27.218  0.00  0.00    +0.038 A 
ATOM     13  C   UNL     1       4.805  -5.841  28.572  0.00  0.00    +0.061 A 
ATOM     14  C   UNL     1       3.467  -5.739  28.967  0.00  0.00    +0.015 A 
ATOM     15  C   UNL     1       2.495  -5.449  28.019  0.00  0.00    +0.003 A 
ATOM     16  C   UNL     1       2.851  -5.273  26.678  0.00  0.00    +0.023 A 
BRANCH  13  17
ATOM     17  C   UNL     1       5.879  -6.150  29.549  0.00  0.00    +0.337 C 
ATOM     18  O   UNL     1       6.143  -5.418  30.484  0.00  0.00    -0.245 OA
BRANCH  17  19
ATOM     19  O   UNL     1       6.495  -7.331  29.329  0.00  0.00    -0.477 OA
ATOM     20  H   UNL     1       5.944  -8.018  28.914  0.00  0.00    +0.295 HD
ENDBRANCH  17  19
ENDBRANCH  13  17
ENDBRANCH   8  11
ENDBRANCH   3   7
BRANCH   1  21
ATOM     21  S   UNL     1       7.970  -3.907  23.498  0.00  0.00    -0.122 S 
BRANCH  21  28
ATOM     22  C   UNL     1       8.313  -0.028  22.490  0.00  0.00    +0.104 C 
ATOM     23  C   UNL     1       8.950   1.056  23.417  0.00  0.00    +0.125 C 
ATOM     24  C   UNL     1       7.637   0.980  24.200  0.00  0.00    +0.228 C 
ATOM     25  O   UNL     1       7.183   1.416  25.235  0.00  0.00    -0.275 OA
ATOM     26  N   UNL     1       7.155  -0.039  23.430  0.00  0.00    -0.260 N 
ATOM     27  C   UNL     1       7.006  -1.328  23.929  0.00  0.00    +0.131 C 
ATOM     28  C   UNL     1       7.885  -2.189  23.377  0.00  0.00    +0.019 C 
ATOM     29  C   UNL     1       8.785  -1.479  22.386  0.00  0.00    +0.046 C 
ATOM     30  C   UNL     1      10.283  -1.584  22.636  0.00  0.00    +0.015 C 
BRANCH  23  31
ATOM     31  C   UNL     1       9.319   2.348  22.718  0.00  0.00    +0.125 C 
ATOM     32  C   UNL     1      10.446   3.069  23.441  0.00  0.00    +0.038 C 
BRANCH  31  33
ATOM     33  O   UNL     1       9.754   1.993  21.404  0.00  0.00    -0.391 OA
ATOM     34  H   UNL     1      10.334   1.214  21.471  0.00  0.00    +0.210 HD
ENDBRANCH  31  33
ENDBRANCH  23  31
BRANCH  27  35
ATOM     35  C   UNL     1       5.908  -1.655  24.891  0.00  0.00    +0.352 C 
ATOM     36  O   UNL     1       4.880  -2.238  24.587  0.00  0.00    -0.244 OA
BRANCH  35  37
ATOM     37  O   UNL     1       6.133  -1.259  26.163  0.00  0.00    -0.476 OA
ATOM     38  H   UNL     1       5.435  -1.479  26.821  0.00  0.00    +0.295 HD
ENDBRANCH  35  37
ENDBRANCH  27  35
ENDBRANCH  21  28
ENDBRANCH   1  21
TORSDOF 10
ENDMDL
MODEL 4
REMARK VINA RESULT:      -7.7      3.445      5.424
REMARK  Name = 
REMARK  12 active torsions:
REMARK  status: ('A' for Active; 'I' for Inactive)
REMARK    1  A    between atoms: C_3  and  C_5
REMARK    2  A    between atoms: C_6  and  S_7
REMARK    3  A    between atoms: S_7  and  C_8
REMARK    4  A    between atoms: C_12  and  C_15
REMARK    5  A    between atoms: N_17  and  C_18
REMARK    6  A    between atoms: C_22  and  C_24
REMARK    7  A    between atoms: C_24  and  O_25
REMARK    8  A    between atoms: C_27  and  C_37
REMARK    9  A    between atoms: C_31  and  C_33
REMARK   10  A    between atoms: C_33  and  C_35
REMARK   11  A    between atoms: C_33  and  O_36
REMARK   12  A    between atoms: C_37  and  O_38
REMARK                            x       y       z     vdW  Elec       q    Type
REMARK                         _______ _______ _______ _____ _____    ______ ____
ROOT
ATOM      1  C   UNL     1       8.680  -2.577  23.260  0.00  0.00    +0.067 C 
ATOM      2  C   UNL     1       8.365  -1.640  22.086  0.00  0.00    +0.044 C 
ATOM      3  C   UNL     1       9.579  -0.712  21.943  0.00  0.00    +0.142 C 
ATOM      4  N   UNL     1      10.540  -1.188  22.962  0.00  0.00    -0.305 NA
ATOM      5  H   UNL     1      11.502  -1.044  22.663  0.00  0.00    +0.123 HD
ATOM      6  C   UNL     1      10.204  -2.565  23.276  0.00  0.00    +0.096 C 
ENDROOT
BRANCH   3   7
ATOM      7  C   UNL     1       9.360   0.816  22.133  0.00  0.00    +0.234 C 
ATOM      8  N   UNL     1      10.057   1.392  23.187  0.00  0.00    -0.284 N 
ATOM      9  H   UNL     1      10.659   0.791  23.736  0.00  0.00    +0.155 HD
ATOM     10  O   UNL     1       8.536   1.412  21.436  0.00  0.00    -0.274 OA
BRANCH   8  11
ATOM     11  C   UNL     1      10.037   2.756  23.569  0.00  0.00    +0.034 A 
ATOM     12  C   UNL     1      11.195   3.515  23.345  0.00  0.00    +0.038 A 
ATOM     13  C   UNL     1      11.232   4.878  23.688  0.00  0.00    +0.061 A 
ATOM     14  C   UNL     1      10.127   5.481  24.296  0.00  0.00    +0.015 A 
ATOM     15  C   UNL     1       8.977   4.734  24.518  0.00  0.00    +0.003 A 
ATOM     16  C   UNL     1       8.932   3.387  24.147  0.00  0.00    +0.023 A 
BRANCH  13  17
ATOM     17  C   UNL     1      12.483   5.635  23.430  0.00  0.00    +0.337 C 
ATOM     18  O   UNL     1      13.023   5.654  22.341  0.00  0.00    -0.245 OA
BRANCH  17  19
ATOM     19  O   UNL     1      12.931   6.330  24.498  0.00  0.00    -0.477 OA
ATOM     20  H   UNL     1      13.071   7.282  24.347  0.00  0.00    +0.295 HD
ENDBRANCH  17  19
ENDBRANCH  13  17
ENDBRANCH   8  11
ENDBRANCH   3   7
BRANCH   1  21
ATOM     21  S   UNL     1       7.886  -1.894  24.765  0.00  0.00    -0.122 S 
BRANCH  21  28
ATOM     22  C   UNL     1       5.237  -4.599  26.121  0.00  0.00    +0.104 C 
ATOM     23  C   UNL     1       5.025  -4.923  27.635  0.00  0.00    +0.125 C 
ATOM     24  C   UNL     1       6.340  -5.699  27.524  0.00  0.00    +0.228 C 
ATOM     25  O   UNL     1       7.112  -6.266  28.266  0.00  0.00    -0.275 OA
ATOM     26  N   UNL     1       6.543  -5.310  26.232  0.00  0.00    -0.260 N 
ATOM     27  C   UNL     1       7.556  -4.425  25.882  0.00  0.00    +0.131 C 
ATOM     28  C   UNL     1       7.071  -3.232  25.486  0.00  0.00    +0.019 C 
ATOM     29  C   UNL     1       5.557  -3.214  25.558  0.00  0.00    +0.046 C 
ATOM     30  C   UNL     1       4.933  -2.120  26.414  0.00  0.00    +0.015 C 
BRANCH  23  31
ATOM     31  C   UNL     1       3.748  -5.676  27.947  0.00  0.00    +0.125 C 
ATOM     32  C   UNL     1       2.749  -5.572  26.805  0.00  0.00    +0.038 C 
BRANCH  31  33
ATOM     33  O   UNL     1       4.114  -7.045  28.130  0.00  0.00    -0.391 OA
ATOM     34  H   UNL     1       4.494  -7.147  29.021  0.00  0.00    +0.210 HD
ENDBRANCH  31  33
ENDBRANCH  23  31
BRANCH  27  35
ATOM     35  C   UNL     1       8.987  -4.861  25.882  0.00  0.00    +0.352 C 
ATOM     36  O   UNL     1       9.556  -5.348  24.918  0.00  0.00    -0.244 OA
BRANCH  35  37
ATOM     37  O   UNL     1       9.638  -4.670  27.050  0.00  0.00    -0.476 OA
ATOM     38  H   UNL     1      10.227  -3.884  27.101  0.00  0.00    +0.295 HD
ENDBRANCH  35  37
ENDBRANCH  27  35
ENDBRANCH  21  28
ENDBRANCH   1  21
TORSDOF 10
ENDMDL
MODEL 5
REMARK VINA RESULT:      -7.6      3.025      5.472
REMARK  Name = 
REMARK  12 active torsions:
REMARK  status: ('A' for Active; 'I' for Inactive)
REMARK    1  A    between atoms: C_3  and  C_5
REMARK    2  A    between atoms: C_6  and  S_7
REMARK    3  A    between atoms: S_7  and  C_8
REMARK    4  A    between atoms: C_12  and  C_15
REMARK    5  A    between atoms: N_17  and  C_18
REMARK    6  A    between atoms: C_22  and  C_24
REMARK    7  A    between atoms: C_24  and  O_25
REMARK    8  A    between atoms: C_27  and  C_37
REMARK    9  A    between atoms: C_31  and  C_33
REMARK   10  A    between atoms: C_33  and  C_35
REMARK   11  A    between atoms: C_33  and  O_36
REMARK   12  A    between atoms: C_37  and  O_38
REMARK                            x       y       z     vdW  Elec       q    Type
REMARK                         _______ _______ _______ _____ _____    ______ ____
ROOT
ATOM      1  C   UNL     1       8.315  -2.584  22.619  0.00  0.00    +0.067 C 
ATOM      2  C   UNL     1       9.296  -1.492  22.172  0.00  0.00    +0.044 C 
ATOM      3  C   UNL     1      10.186  -1.195  23.387  0.00  0.00    +0.142 C 
ATOM      4  N   UNL     1       9.739  -2.150  24.426  0.00  0.00    -0.305 NA
ATOM      5  H   UNL     1      10.506  -2.422  25.037  0.00  0.00    +0.123 HD
ATOM      6  C   UNL     1       9.081  -3.256  23.753  0.00  0.00    +0.096 C 
ENDROOT
BRANCH   3   7
ATOM      7  C   UNL     1      10.160   0.241  23.981  0.00  0.00    +0.234 C 
ATOM      8  N   UNL     1      10.123   1.272  23.051  0.00  0.00    -0.284 N 
ATOM      9  H   UNL     1      10.101   1.019  22.071  0.00  0.00    +0.155 HD
ATOM     10  O   UNL     1      10.270   0.408  25.198  0.00  0.00    -0.274 OA
BRANCH   8  11
ATOM     11  C   UNL     1      10.090   2.661  23.327  0.00  0.00    +0.034 A 
ATOM     12  C   UNL     1      11.307   3.358  23.318  0.00  0.00    +0.038 A 
ATOM     13  C   UNL     1      11.339   4.741  23.570  0.00  0.00    +0.061 A 
ATOM     14  C   UNL     1      10.159   5.428  23.873  0.00  0.00    +0.015 A 
ATOM     15  C   UNL     1       8.952   4.742  23.881  0.00  0.00    +0.003 A 
ATOM     16  C   UNL     1       8.919   3.373  23.600  0.00  0.00    +0.023 A 
BRANCH  13  17
ATOM     17  C   UNL     1      12.653   5.431  23.549  0.00  0.00    +0.337 C 
ATOM     18  O   UNL     1      13.484   5.229  22.684  0.00  0.00    -0.245 OA
BRANCH  17  19
ATOM     19  O   UNL     1      12.816   6.328  24.545  0.00  0.00    -0.477 OA
ATOM     20  H   UNL     1      12.090   6.968  24.653  0.00  0.00    +0.295 HD
ENDBRANCH  17  19
ENDBRANCH  13  17
ENDBRANCH   8  11
ENDBRANCH   3   7
BRANCH   1  21
ATOM     21  S   UNL     1       6.748  -1.773  23.120  0.00  0.00    -0.122 S 
BRANCH  21  28
ATOM     22  C   UNL     1       4.043  -4.144  24.922  0.00  0.00    +0.104 C 
ATOM     23  C   UNL     1       4.417  -5.427  25.730  0.00  0.00    +0.125 C 
ATOM     24  C   UNL     1       4.638  -6.074  24.360  0.00  0.00    +0.228 C 
ATOM     25  O   UNL     1       5.074  -7.115  23.920  0.00  0.00    -0.275 OA
ATOM     26  N   UNL     1       4.406  -4.906  23.693  0.00  0.00    -0.260 N 
ATOM     27  C   UNL     1       5.421  -4.223  23.034  0.00  0.00    +0.131 C 
ATOM     28  C   UNL     1       5.728  -3.061  23.645  0.00  0.00    +0.019 C 
ATOM     29  C   UNL     1       4.875  -2.860  24.882  0.00  0.00    +0.046 C 
ATOM     30  C   UNL     1       5.621  -2.654  26.193  0.00  0.00    +0.015 C 
BRANCH  23  31
ATOM     31  C   UNL     1       3.313  -5.954  26.625  0.00  0.00    +0.125 C 
ATOM     32  C   UNL     1       1.991  -5.257  26.344  0.00  0.00    +0.038 C 
BRANCH  31  33
ATOM     33  O   UNL     1       3.181  -7.347  26.337  0.00  0.00    -0.391 OA
ATOM     34  H   UNL     1       2.816  -7.443  25.439  0.00  0.00    +0.210 HD
ENDBRANCH  31  33
ENDBRANCH  23  31
BRANCH  27  35
ATOM     35  C   UNL     1       5.986  -4.741  21.750  0.00  0.00    +0.352 C 
ATOM     36  O   UNL     1       5.715  -4.289  20.649  0.00  0.00    -0.244 OA
BRANCH  35  37
ATOM     37  O   UNL     1       6.850  -5.771  21.885  0.00  0.00    -0.476 OA
ATOM     38  H   UNL     1       7.485  -5.912  21.147  0.00  0.00    +0.295 HD
ENDBRANCH  35  37
ENDBRANCH  27  35
ENDBRANCH  21  28
ENDBRANCH   1  21
TORSDOF 10
ENDMDL
MODEL 6
REMARK VINA RESULT:      -7.5      3.074      5.146
REMARK  Name = 
REMARK  12 active torsions:
REMARK  status: ('A' for Active; 'I' for Inactive)
REMARK    1  A    between atoms: C_3  and  C_5
REMARK    2  A    between atoms: C_6  and  S_7
REMARK    3  A    between atoms: S_7  and  C_8
REMARK    4  A    between atoms: C_12  and  C_15
REMARK    5  A    between atoms: N_17  and  C_18
REMARK    6  A    between atoms: C_22  and  C_24
REMARK    7  A    between atoms: C_24  and  O_25
REMARK    8  A    between atoms: C_27  and  C_37
REMARK    9  A    between atoms: C_31  and  C_33
REMARK   10  A    between atoms: C_33  and  C_35
REMARK   11  A    between atoms: C_33  and  O_36
REMARK   12  A    between atoms: C_37  and  O_38
REMARK                            x       y       z     vdW  Elec       q    Type
REMARK                         _______ _______ _______ _____ _____    ______ ____
ROOT
ATOM      1  C   UNL     1       8.476  -1.364  22.693  0.00  0.00    +0.067 C 
ATOM      2  C   UNL     1       8.169   0.132  22.547  0.00  0.00    +0.044 C 
ATOM      3  C   UNL     1       9.510   0.816  22.250  0.00  0.00    +0.142 C 
ATOM      4  N   UNL     1      10.489  -0.290  22.169  0.00  0.00    -0.305 NA
ATOM      5  H   UNL     1      11.237  -0.078  21.513  0.00  0.00    +0.123 HD
ATOM      6  C   UNL     1       9.754  -1.508  21.875  0.00  0.00    +0.096 C 
ENDROOT
BRANCH   3   7
ATOM      7  C   UNL     1      10.032   1.876  23.261  0.00  0.00    +0.234 C 
ATOM      8  N   UNL     1      10.088   3.179  22.785  0.00  0.00    -0.284 N 
ATOM      9  H   UNL     1       9.775   3.346  21.837  0.00  0.00    +0.155 HD
ATOM     10  O   UNL     1      10.454   1.520  24.364  0.00  0.00    -0.274 OA
BRANCH   8  11
ATOM     11  C   UNL     1      10.519   4.324  23.501  0.00  0.00    +0.034 A 
ATOM     12  C   UNL     1       9.614   4.913  24.396  0.00  0.00    +0.038 A 
ATOM     13  C   UNL     1       9.987   6.041  25.147  0.00  0.00    +0.061 A 
ATOM     14  C   UNL     1      11.252   6.613  24.978  0.00  0.00    +0.015 A 
ATOM     15  C   UNL     1      12.152   6.031  24.094  0.00  0.00    +0.003 A 
ATOM     16  C   UNL     1      11.789   4.890  23.371  0.00  0.00    +0.023 A 
BRANCH  13  17
ATOM     17  C   UNL     1       8.992   6.627  26.080  0.00  0.00    +0.337 C 
ATOM     18  O   UNL     1       9.227   6.807  27.259  0.00  0.00    -0.245 OA
BRANCH  17  19
ATOM     19  O   UNL     1       7.830   6.981  25.489  0.00  0.00    -0.477 OA
ATOM     20  H   UNL     1       7.738   7.928  25.284  0.00  0.00    +0.295 HD
ENDBRANCH  17  19
ENDBRANCH  13  17
ENDBRANCH   8  11
ENDBRANCH   3   7
BRANCH   1  21
ATOM     21  S   UNL     1       8.657  -1.739  24.479  0.00  0.00    -0.122 S 
BRANCH  21  28
ATOM     22  C   UNL     1       5.735  -4.503  24.555  0.00  0.00    +0.104 C 
ATOM     23  C   UNL     1       4.973  -4.924  25.852  0.00  0.00    +0.125 C 
ATOM     24  C   UNL     1       6.245  -5.704  26.196  0.00  0.00    +0.228 C 
ATOM     25  O   UNL     1       6.688  -6.327  27.135  0.00  0.00    -0.275 OA
ATOM     26  N   UNL     1       6.914  -5.232  25.103  0.00  0.00    -0.260 N 
ATOM     27  C   UNL     1       7.970  -4.337  25.221  0.00  0.00    +0.131 C 
ATOM     28  C   UNL     1       7.651  -3.114  24.750  0.00  0.00    +0.019 C 
ATOM     29  C   UNL     1       6.222  -3.086  24.246  0.00  0.00    +0.046 C 
ATOM     30  C   UNL     1       5.304  -2.046  24.872  0.00  0.00    +0.015 C 
BRANCH  23  31
ATOM     31  C   UNL     1       3.685  -5.683  25.610  0.00  0.00    +0.125 C 
ATOM     32  C   UNL     1       3.213  -5.531  24.172  0.00  0.00    +0.038 C 
BRANCH  31  33
ATOM     33  O   UNL     1       3.965  -7.060  25.870  0.00  0.00    -0.391 OA
ATOM     34  H   UNL     1       3.978  -7.196  26.834  0.00  0.00    +0.210 HD
ENDBRANCH  31  33
ENDBRANCH  23  31
BRANCH  27  35
ATOM     35  C   UNL     1       9.302  -4.786  25.732  0.00  0.00    +0.352 C 
ATOM     36  O   UNL     1      10.252  -5.066  25.019  0.00  0.00    -0.244 OA
BRANCH  35  37
ATOM     37  O   UNL     1       9.397  -4.857  27.078  0.00  0.00    -0.476 OA
ATOM     38  H   UNL     1       9.831  -5.661  27.445  0.00  0.00    +0.295 HD
ENDBRANCH  35  37
ENDBRANCH  27  35
ENDBRANCH  21  28
ENDBRANCH   1  21
TORSDOF 10
ENDMDL
MODEL 7
REMARK VINA RESULT:      -7.4      3.326      5.214
REMARK  Name = 
REMARK  12 active torsions:
REMARK  status: ('A' for Active; 'I' for Inactive)
REMARK    1  A    between atoms: C_3  and  C_5
REMARK    2  A    between atoms: C_6  and  S_7
REMARK    3  A    between atoms: S_7  and  C_8
REMARK    4  A    between atoms: C_12  and  C_15
REMARK    5  A    between atoms: N_17  and  C_18
REMARK    6  A    between atoms: C_22  and  C_24
REMARK    7  A    between atoms: C_24  and  O_25
REMARK    8  A    between atoms: C_27  and  C_37
REMARK    9  A    between atoms: C_31  and  C_33
REMARK   10  A    between atoms: C_33  and  C_35
REMARK   11  A    between atoms: C_33  and  O_36
REMARK   12  A    between atoms: C_37  and  O_38
REMARK                            x       y       z     vdW  Elec       q    Type
REMARK                         _______ _______ _______ _____ _____    ______ ____
ROOT
ATOM      1  C   UNL     1       8.251  -2.430  22.554  0.00  0.00    +0.067 C 
ATOM      2  C   UNL     1       9.204  -1.337  22.052  0.00  0.00    +0.044 C 
ATOM      3  C   UNL     1      10.203  -1.086  23.189  0.00  0.00    +0.142 C 
ATOM      4  N   UNL     1       9.838  -2.066  24.236  0.00  0.00    -0.305 NA
ATOM      5  H   UNL     1      10.653  -2.365  24.768  0.00  0.00    +0.123 HD
ATOM      6  C   UNL     1       9.106  -3.143  23.595  0.00  0.00    +0.096 C 
ENDROOT
BRANCH   3   7
ATOM      7  C   UNL     1      10.251   0.332  23.824  0.00  0.00    +0.234 C 
ATOM      8  N   UNL     1      10.131   1.390  22.932  0.00  0.00    -0.284 N 
ATOM      9  H   UNL     1      10.007   1.166  21.952  0.00  0.00    +0.155 HD
ATOM     10  O   UNL     1      10.486   0.462  25.027  0.00  0.00    -0.274 OA
BRANCH   8  11
ATOM     11  C   UNL     1      10.139   2.770  23.250  0.00  0.00    +0.034 A 
ATOM     12  C   UNL     1      11.375   3.435  23.245  0.00  0.00    +0.038 A 
ATOM     13  C   UNL     1      11.448   4.808  23.537  0.00  0.00    +0.061 A 
ATOM     14  C   UNL     1      10.291   5.517  23.878  0.00  0.00    +0.015 A 
ATOM     15  C   UNL     1       9.066   4.864  23.882  0.00  0.00    +0.003 A 
ATOM     16  C   UNL     1       8.992   3.505  23.560  0.00  0.00    +0.023 A 
BRANCH  13  17
ATOM     17  C   UNL     1      12.780   5.462  23.519  0.00  0.00    +0.337 C 
ATOM     18  O   UNL     1      13.630   5.193  22.691  0.00  0.00    -0.245 OA
BRANCH  17  19
ATOM     19  O   UNL     1      12.939   6.407  24.471  0.00  0.00    -0.477 OA
ATOM     20  H   UNL     1      13.411   6.117  25.272  0.00  0.00    +0.295 HD
ENDBRANCH  17  19
ENDBRANCH  13  17
ENDBRANCH   8  11
ENDBRANCH   3   7
BRANCH   1  21
ATOM     21  S   UNL     1       6.747  -1.615  23.217  0.00  0.00    -0.122 S 
BRANCH  21  28
ATOM     22  C   UNL     1       5.521  -4.569  25.657  0.00  0.00    +0.104 C 
ATOM     23  C   UNL     1       4.192  -4.522  26.475  0.00  0.00    +0.125 C 
ATOM     24  C   UNL     1       4.938  -3.553  27.396  0.00  0.00    +0.228 C 
ATOM     25  O   UNL     1       4.683  -2.836  28.338  0.00  0.00    -0.275 OA
ATOM     26  N   UNL     1       6.046  -3.539  26.599  0.00  0.00    -0.260 N 
ATOM     27  C   UNL     1       6.409  -2.416  25.865  0.00  0.00    +0.131 C 
ATOM     28  C   UNL     1       6.251  -2.605  24.540  0.00  0.00    +0.019 C 
ATOM     29  C   UNL     1       5.707  -3.990  24.253  0.00  0.00    +0.046 C 
ATOM     30  C   UNL     1       4.409  -4.058  23.460  0.00  0.00    +0.015 C 
BRANCH  23  31
ATOM     31  C   UNL     1       3.740  -5.860  27.024  0.00  0.00    +0.125 C 
ATOM     32  C   UNL     1       4.914  -6.808  27.211  0.00  0.00    +0.038 C 
BRANCH  31  33
ATOM     33  O   UNL     1       3.138  -5.601  28.293  0.00  0.00    -0.391 OA
ATOM     34  H   UNL     1       3.465  -4.744  28.621  0.00  0.00    +0.210 HD
ENDBRANCH  31  33
ENDBRANCH  23  31
BRANCH  27  35
ATOM     35  C   UNL     1       6.989  -1.214  26.541  0.00  0.00    +0.352 C 
ATOM     36  O   UNL     1       6.325  -0.299  27.003  0.00  0.00    -0.244 OA
BRANCH  35  37
ATOM     37  O   UNL     1       8.337  -1.204  26.620  0.00  0.00    -0.476 OA
ATOM     38  H   UNL     1       8.753  -0.365  26.924  0.00  0.00    +0.295 HD
ENDBRANCH  35  37
ENDBRANCH  27  35
ENDBRANCH  21  28
ENDBRANCH   1  21
TORSDOF 10
ENDMDL
MODEL 8
REMARK VINA RESULT:      -7.2      4.081      6.543
REMARK  Name = 
REMARK  12 active torsions:
REMARK  status: ('A' for Active; 'I' for Inactive)
REMARK    1  A    between atoms: C_3  and  C_5
REMARK    2  A    between atoms: C_6  and  S_7
REMARK    3  A    between atoms: S_7  and  C_8
REMARK    4  A    between atoms: C_12  and  C_15
REMARK    5  A    between atoms: N_17  and  C_18
REMARK    6  A    between atoms: C_22  and  C_24
REMARK    7  A    between atoms: C_24  and  O_25
REMARK    8  A    between atoms: C_27  and  C_37
REMARK    9  A    between atoms: C_31  and  C_33
REMARK   10  A    between atoms: C_33  and  C_35
REMARK   11  A    between atoms: C_33  and  O_36
REMARK   12  A    between atoms: C_37  and  O_38
REMARK                            x       y       z     vdW  Elec       q    Type
REMARK                         _______ _______ _______ _____ _____    ______ ____
ROOT
ATOM      1  C   UNL     1       8.092  -3.733  23.967  0.00  0.00    +0.067 C 
ATOM      2  C   UNL     1       8.016  -2.773  22.772  0.00  0.00    +0.044 C 
ATOM      3  C   UNL     1       9.073  -1.690  23.027  0.00  0.00    +0.142 C 
ATOM      4  N   UNL     1       9.740  -2.101  24.282  0.00  0.00    -0.305 NA
ATOM      5  H   UNL     1      10.717  -1.817  24.296  0.00  0.00    +0.123 HD
ATOM      6  C   UNL     1       9.523  -3.527  24.450  0.00  0.00    +0.096 C 
ENDROOT
BRANCH   3   7
ATOM      7  C   UNL     1       8.594  -0.218  23.171  0.00  0.00    +0.234 C 
ATOM      8  N   UNL     1       9.178   0.502  24.206  0.00  0.00    -0.284 N 
ATOM      9  H   UNL     1       9.872   0.030  24.772  0.00  0.00    +0.155 HD
ATOM     10  O   UNL     1       7.681   0.206  22.459  0.00  0.00    -0.274 OA
BRANCH   8  11
ATOM     11  C   UNL     1       8.921   1.852  24.547  0.00  0.00    +0.034 A 
ATOM     12  C   UNL     1       9.703   2.841  23.932  0.00  0.00    +0.038 A 
ATOM     13  C   UNL     1       9.487   4.201  24.217  0.00  0.00    +0.061 A 
ATOM     14  C   UNL     1       8.516   4.579  25.150  0.00  0.00    +0.015 A 
ATOM     15  C   UNL     1       7.739   3.603  25.759  0.00  0.00    +0.003 A 
ATOM     16  C   UNL     1       7.934   2.253  25.451  0.00  0.00    +0.023 A 
BRANCH  13  17
ATOM     17  C   UNL     1      10.343   5.207  23.539  0.00  0.00    +0.337 C 
ATOM     18  O   UNL     1      10.034   6.381  23.459  0.00  0.00    -0.245 OA
BRANCH  17  19
ATOM     19  O   UNL     1      11.506   4.708  23.069  0.00  0.00    -0.477 OA
ATOM     20  H   UNL     1      12.254   4.734  23.692  0.00  0.00    +0.295 HD
ENDBRANCH  17  19
ENDBRANCH  13  17
ENDBRANCH   8  11
ENDBRANCH   3   7
BRANCH   1  21
ATOM     21  S   UNL     1       6.794  -3.253  25.169  0.00  0.00    -0.122 S 
BRANCH  21  28
ATOM     22  C   UNL     1       4.437  -6.486  24.758  0.00  0.00    +0.104 C 
ATOM     23  C   UNL     1       3.044  -6.638  25.450  0.00  0.00    +0.125 C 
ATOM     24  C   UNL     1       3.846  -6.910  26.725  0.00  0.00    +0.228 C 
ATOM     25  O   UNL     1       3.628  -7.055  27.908  0.00  0.00    -0.275 OA
ATOM     26  N   UNL     1       5.040  -6.669  26.109  0.00  0.00    -0.260 N 
ATOM     27  C   UNL     1       5.804  -5.546  26.406  0.00  0.00    +0.131 C 
ATOM     28  C   UNL     1       5.835  -4.671  25.381  0.00  0.00    +0.019 C 
ATOM     29  C   UNL     1       5.007  -5.175  24.215  0.00  0.00    +0.046 C 
ATOM     30  C   UNL     1       3.894  -4.257  23.728  0.00  0.00    +0.015 C 
BRANCH  23  31
ATOM     31  C   UNL     1       2.171  -7.737  24.878  0.00  0.00    +0.125 C 
ATOM     32  C   UNL     1       1.956  -7.553  23.384  0.00  0.00    +0.038 C 
BRANCH  31  33
ATOM     33  O   UNL     1       2.860  -8.967  25.107  0.00  0.00    -0.391 OA
ATOM     34  H   UNL     1       3.609  -8.796  25.705  0.00  0.00    +0.210 HD
ENDBRANCH  31  33
ENDBRANCH  23  31
BRANCH  27  35
ATOM     35  C   UNL     1       6.551  -5.447  27.698  0.00  0.00    +0.352 C 
ATOM     36  O   UNL     1       6.095  -4.958  28.719  0.00  0.00    -0.244 OA
BRANCH  35  37
ATOM     37  O   UNL     1       7.803  -5.955  27.669  0.00  0.00    -0.476 OA
ATOM     38  H   UNL     1       7.931  -6.830  28.101  0.00  0.00    +0.295 HD
ENDBRANCH  35  37
ENDBRANCH  27  35
ENDBRANCH  21  28
ENDBRANCH   1  21
TORSDOF 10
ENDMDL
MODEL 9
REMARK VINA RESULT:      -7.2      4.268     10.865
REMARK  Name = 
REMARK  12 active torsions:
REMARK  status: ('A' for Active; 'I' for Inactive)
REMARK    1  A    between atoms: C_3  and  C_5
REMARK    2  A    between atoms: C_6  and  S_7
REMARK    3  A    between atoms: S_7  and  C_8
REMARK    4  A    between atoms: C_12  and  C_15
REMARK    5  A    between atoms: N_17  and  C_18
REMARK    6  A    between atoms: C_22  and  C_24
REMARK    7  A    between atoms: C_24  and  O_25
REMARK    8  A    between atoms: C_27  and  C_37
REMARK    9  A    between atoms: C_31  and  C_33
REMARK   10  A    between atoms: C_33  and  C_35
REMARK   11  A    between atoms: C_33  and  O_36
REMARK   12  A    between atoms: C_37  and  O_38
REMARK                            x       y       z     vdW  Elec       q    Type
REMARK                         _______ _______ _______ _____ _____    ______ ____
ROOT
ATOM      1  C   UNL     1       8.326  -3.343  25.561  0.00  0.00    +0.067 C 
ATOM      2  C   UNL     1       7.409  -3.843  26.685  0.00  0.00    +0.044 C 
ATOM      3  C   UNL     1       7.094  -5.309  26.357  0.00  0.00    +0.142 C 
ATOM      4  N   UNL     1       7.877  -5.600  25.136  0.00  0.00    -0.305 NA
ATOM      5  H   UNL     1       8.173  -6.573  25.105  0.00  0.00    +0.123 HD
ATOM      6  C   UNL     1       8.962  -4.637  25.068  0.00  0.00    +0.096 C 
ENDROOT
BRANCH   3   7
ATOM      7  C   UNL     1       5.611  -5.702  26.108  0.00  0.00    +0.234 C 
ATOM      8  N   UNL     1       5.324  -6.175  24.834  0.00  0.00    -0.284 N 
ATOM      9  H   UNL     1       6.090  -6.244  24.176  0.00  0.00    +0.155 HD
ATOM     10  O   UNL     1       4.763  -5.494  26.979  0.00  0.00    -0.274 OA
BRANCH   8  11
ATOM     11  C   UNL     1       4.061  -6.601  24.354  0.00  0.00    +0.034 A 
ATOM     12  C   UNL     1       3.422  -7.647  25.036  0.00  0.00    +0.038 A 
ATOM     13  C   UNL     1       2.159  -8.104  24.619  0.00  0.00    +0.061 A 
ATOM     14  C   UNL     1       1.547  -7.548  23.491  0.00  0.00    +0.015 A 
ATOM     15  C   UNL     1       2.176  -6.512  22.815  0.00  0.00    +0.003 A 
ATOM     16  C   UNL     1       3.416  -6.037  23.251  0.00  0.00    +0.023 A 
BRANCH  13  17
ATOM     17  C   UNL     1       1.527  -9.215  25.375  0.00  0.00    +0.337 C 
ATOM     18  O   UNL     1       0.443  -9.104  25.915  0.00  0.00    -0.245 OA
BRANCH  17  19
ATOM     19  O   UNL     1       2.242 -10.360  25.366  0.00  0.00    -0.477 OA
ATOM     20  H   UNL     1       2.272 -10.825  24.511  0.00  0.00    +0.295 HD
ENDBRANCH  17  19
ENDBRANCH  13  17
ENDBRANCH   8  11
ENDBRANCH   3   7
BRANCH   1  21
ATOM     21  S   UNL     1       7.290  -2.471  24.324  0.00  0.00    -0.122 S 
BRANCH  21  28
ATOM     22  C   UNL     1       8.570   1.340  24.464  0.00  0.00    +0.104 C 
ATOM     23  C   UNL     1       8.403   2.354  23.288  0.00  0.00    +0.125 C 
ATOM     24  C   UNL     1       9.555   1.589  22.630  0.00  0.00    +0.228 C 
ATOM     25  O   UNL     1      10.121   1.568  21.559  0.00  0.00    -0.275 OA
ATOM     26  N   UNL     1       9.601   0.660  23.629  0.00  0.00    -0.260 N 
ATOM     27  C   UNL     1       9.204  -0.657  23.425  0.00  0.00    +0.131 C 
ATOM     28  C   UNL     1       8.066  -0.950  24.084  0.00  0.00    +0.019 C 
ATOM     29  C   UNL     1       7.553   0.260  24.840  0.00  0.00    +0.046 C 
ATOM     30  C   UNL     1       6.135   0.710  24.517  0.00  0.00    +0.015 C 
BRANCH  23  31
ATOM     31  C   UNL     1       8.606   3.805  23.672  0.00  0.00    +0.125 C 
ATOM     32  C   UNL     1       8.426   4.014  25.168  0.00  0.00    +0.038 C 
BRANCH  31  33
ATOM     33  O   UNL     1       9.946   4.142  23.308  0.00  0.00    -0.391 OA
ATOM     34  H   UNL     1       9.987   4.246  22.341  0.00  0.00    +0.210 HD
ENDBRANCH  31  33
ENDBRANCH  23  31
BRANCH  27  35
ATOM     35  C   UNL     1      10.053  -1.598  22.630  0.00  0.00    +0.352 C 
ATOM     36  O   UNL     1      10.783  -2.444  23.121  0.00  0.00    -0.244 OA
BRANCH  35  37
ATOM     37  O   UNL     1       9.954  -1.457  21.290  0.00  0.00    -0.476 OA
ATOM     38  H   UNL     1       9.274  -2.008  20.840  0.00  0.00    +0.295 HD
ENDBRANCH  35  37
ENDBRANCH  27  35
ENDBRANCH  21  28
ENDBRANCH   1  21
TORSDOF 10
ENDMDL
