MODEL 1
REMARK VINA RESULT:      -6.3      0.000      0.000
REMARK  Name = 
REMARK  5 active torsions:
REMARK  status: ('A' for Active; 'I' for Inactive)
REMARK    1  A    between atoms: C4*_2  and  C5*_3
REMARK    2  A    between atoms: C5*_3  and  O5*_4
REMARK    3  A    between atoms: C1*_6  and  N_8
REMARK    4  A    between atoms: C2*_19  and  O2*_21
REMARK    5  A    between atoms: C3*_22  and  O3*_24
REMARK                            x       y       z     vdW  Elec       q    Type
REMARK                         _______ _______ _______ _____ _____    ______ ____
ROOT
ATOM      1  C4* UNL     1       5.200  -5.240  23.947  0.00  0.00    +0.177 C 
ATOM      2  C3* UNL     1       5.742  -5.659  22.583  0.00  0.00    +0.178 C 
ATOM      3  C2* UNL     1       6.478  -4.418  22.077  0.00  0.00    +0.195 C 
ATOM      4  C1* UNL     1       6.510  -3.484  23.298  0.00  0.00    +0.252 C 
ATOM      5  O4* UNL     1       6.130  -4.258  24.448  0.00  0.00    -0.346 OA
ENDROOT
BRANCH   4   6
ATOM      6  N   UNL     1       7.803  -2.848  23.494  0.00  0.00    -0.301 N 
ATOM      7  C   UNL     1       8.185  -1.549  23.254  0.00  0.00    +0.072 A 
ATOM      8  C   UNL     1       9.498  -1.488  23.721  0.00  0.00    +0.091 A 
ATOM      9  C   UNL     1      10.212  -0.284  23.644  0.00  0.00    +0.051 A 
ATOM     10  C   UNL     1       9.587   0.838  23.086  0.00  0.00    +0.061 A 
ATOM     11  C   UNL     1       8.272   0.760  22.608  0.00  0.00    +0.061 A 
ATOM     12 CL   UNL     1       7.468   2.115  21.895  0.00  0.00    -0.082 Cl
ATOM     13 CL   UNL     1      10.504   2.304  23.017  0.00  0.00    -0.082 Cl
ATOM     14  N   UNL     1       9.898  -2.698  24.222  0.00  0.00    -0.236 NA
ATOM     15  C   UNL     1       7.545  -0.437  22.695  0.00  0.00    +0.049 A 
ATOM     16  C   UNL     1       8.872  -3.497  24.057  0.00  0.00    +0.202 A 
ENDBRANCH   4   6
BRANCH   2  17
ATOM     17  O3* UNL     1       4.691  -6.057  21.705  0.00  0.00    -0.386 OA
ATOM     18  H3* UNL     1       5.130  -6.428  20.911  0.00  0.00    +0.210 HD
ENDBRANCH   2  17
BRANCH   3  19
ATOM     19  O2* UNL     1       5.754  -3.831  20.982  0.00  0.00    -0.385 OA
ATOM     20  H2* UNL     1       5.940  -4.369  20.189  0.00  0.00    +0.210 HD
ENDBRANCH   3  19
BRANCH   1  21
ATOM     21  C5* UNL     1       5.058  -6.398  24.931  0.00  0.00    +0.190 C 
BRANCH  21  22
ATOM     22  O5* UNL     1       4.472  -7.537  24.303  0.00  0.00    -0.392 OA
ATOM     23  H5* UNL     1       3.606  -7.669  24.728  0.00  0.00    +0.210 HD
ENDBRANCH  21  22
ENDBRANCH   1  21
TORSDOF 5
ENDMDL
MODEL 2
REMARK VINA RESULT:      -6.2      1.482      2.096
REMARK  Name = 
REMARK  5 active torsions:
REMARK  status: ('A' for Active; 'I' for Inactive)
REMARK    1  A    between atoms: C4*_2  and  C5*_3
REMARK    2  A    between atoms: C5*_3  and  O5*_4
REMARK    3  A    between atoms: C1*_6  and  N_8
REMARK    4  A    between atoms: C2*_19  and  O2*_21
REMARK    5  A    between atoms: C3*_22  and  O3*_24
REMARK                            x       y       z     vdW  Elec       q    Type
REMARK                         _______ _______ _______ _____ _____    ______ ____
ROOT
ATOM      1  C4* UNL     1       4.215  -5.985  25.486  0.00  0.00    +0.177 C 
ATOM      2  C3* UNL     1       4.617  -6.979  24.400  0.00  0.00    +0.178 C 
ATOM      3  C2* UNL     1       5.487  -6.158  23.447  0.00  0.00    +0.195 C 
ATOM      4  C1* UNL     1       5.714  -4.837  24.198  0.00  0.00    +0.252 C 
ATOM      5  O4* UNL     1       5.297  -5.034  25.560  0.00  0.00    -0.346 OA
ENDROOT
BRANCH   4   6
ATOM      6  N   UNL     1       7.090  -4.373  24.131  0.00  0.00    -0.301 N 
ATOM      7  C   UNL     1       7.579  -3.125  23.826  0.00  0.00    +0.072 A 
ATOM      8  C   UNL     1       8.956  -3.242  24.017  0.00  0.00    +0.091 A 
ATOM      9  C   UNL     1       9.788  -2.134  23.803  0.00  0.00    +0.051 A 
ATOM     10  C   UNL     1       9.212  -0.926  23.389  0.00  0.00    +0.061 A 
ATOM     11  C   UNL     1       7.830  -0.826  23.189  0.00  0.00    +0.061 A 
ATOM     12 CL   UNL     1       7.079   0.640  22.661  0.00  0.00    -0.082 Cl
ATOM     13 CL   UNL     1      10.277   0.416  23.144  0.00  0.00    -0.082 Cl
ATOM     14  N   UNL     1       9.291  -4.508  24.419  0.00  0.00    -0.236 NA
ATOM     15  C   UNL     1       6.988  -1.924  23.415  0.00  0.00    +0.049 A 
ATOM     16  C   UNL     1       8.158  -5.168  24.462  0.00  0.00    +0.202 A 
ENDBRANCH   4   6
BRANCH   2  17
ATOM     17  O3* UNL     1       3.475  -7.530  23.748  0.00  0.00    -0.386 OA
ATOM     18  H3* UNL     1       2.699  -7.241  24.275  0.00  0.00    +0.210 HD
ENDBRANCH   2  17
BRANCH   3  19
ATOM     19  O2* UNL     1       4.791  -5.948  22.207  0.00  0.00    -0.385 OA
ATOM     20  H2* UNL     1       5.460  -5.931  21.497  0.00  0.00    +0.210 HD
ENDBRANCH   3  19
BRANCH   1  21
ATOM     21  C5* UNL     1       3.970  -6.630  26.847  0.00  0.00    +0.190 C 
BRANCH  21  22
ATOM     22  O5* UNL     1       5.150  -7.267  27.333  0.00  0.00    -0.392 OA
ATOM     23  H5* UNL     1       5.306  -6.909  28.225  0.00  0.00    +0.210 HD
ENDBRANCH  21  22
ENDBRANCH   1  21
TORSDOF 5
ENDMDL
MODEL 3
REMARK VINA RESULT:      -6.1      2.285      3.050
REMARK  Name = 
REMARK  5 active torsions:
REMARK  status: ('A' for Active; 'I' for Inactive)
REMARK    1  A    between atoms: C4*_2  and  C5*_3
REMARK    2  A    between atoms: C5*_3  and  O5*_4
REMARK    3  A    between atoms: C1*_6  and  N_8
REMARK    4  A    between atoms: C2*_19  and  O2*_21
REMARK    5  A    between atoms: C3*_22  and  O3*_24
REMARK                            x       y       z     vdW  Elec       q    Type
REMARK                         _______ _______ _______ _____ _____    ______ ____
ROOT
ATOM      1  C4* UNL     1       8.211  -4.027  24.917  0.00  0.00    +0.177 C 
ATOM      2  C3* UNL     1       7.950  -4.546  23.506  0.00  0.00    +0.178 C 
ATOM      3  C2* UNL     1       7.550  -3.297  22.718  0.00  0.00    +0.195 C 
ATOM      4  C1* UNL     1       7.859  -2.139  23.680  0.00  0.00    +0.252 C 
ATOM      5  O4* UNL     1       8.658  -2.665  24.753  0.00  0.00    -0.346 OA
ENDROOT
BRANCH   4   6
ATOM      6  N   UNL     1       8.524  -1.021  23.029  0.00  0.00    -0.301 N 
ATOM      7  C   UNL     1       8.642   0.286  23.438  0.00  0.00    +0.072 A 
ATOM      8  C   UNL     1       9.463   0.872  22.475  0.00  0.00    +0.091 A 
ATOM      9  C   UNL     1       9.811   2.226  22.584  0.00  0.00    +0.051 A 
ATOM     10  C   UNL     1       9.313   2.968  23.663  0.00  0.00    +0.061 A 
ATOM     11  C   UNL     1       8.479   2.370  24.616  0.00  0.00    +0.061 A 
ATOM     12 CL   UNL     1       7.827   3.252  25.953  0.00  0.00    -0.082 Cl
ATOM     13 CL   UNL     1       9.773   4.634  23.759  0.00  0.00    -0.082 Cl
ATOM     14  N   UNL     1       9.827  -0.038  21.519  0.00  0.00    -0.236 NA
ATOM     15  C   UNL     1       8.138   1.012  24.524  0.00  0.00    +0.049 A 
ATOM     16  C   UNL     1       9.237  -1.157  21.865  0.00  0.00    +0.202 A 
ENDBRANCH   4   6
BRANCH   2  17
ATOM     17  O3* UNL     1       6.927  -5.539  23.497  0.00  0.00    -0.386 OA
ATOM     18  H3* UNL     1       7.186  -6.186  22.806  0.00  0.00    +0.210 HD
ENDBRANCH   2  17
BRANCH   3  19
ATOM     19  O2* UNL     1       6.151  -3.353  22.391  0.00  0.00    -0.385 OA
ATOM     20  H2* UNL     1       5.691  -3.764  23.147  0.00  0.00    +0.210 HD
ENDBRANCH   3  19
BRANCH   1  21
ATOM     21  C5* UNL     1       9.245  -4.844  25.688  0.00  0.00    +0.190 C 
BRANCH  21  22
ATOM     22  O5* UNL     1       9.813  -5.862  24.865  0.00  0.00    -0.392 OA
ATOM     23  H5* UNL     1       9.115  -6.529  24.735  0.00  0.00    +0.210 HD
ENDBRANCH  21  22
ENDBRANCH   1  21
TORSDOF 5
ENDMDL
MODEL 4
REMARK VINA RESULT:      -6.1      1.758      2.365
REMARK  Name = 
REMARK  5 active torsions:
REMARK  status: ('A' for Active; 'I' for Inactive)
REMARK    1  A    between atoms: C4*_2  and  C5*_3
REMARK    2  A    between atoms: C5*_3  and  O5*_4
REMARK    3  A    between atoms: C1*_6  and  N_8
REMARK    4  A    between atoms: C2*_19  and  O2*_21
REMARK    5  A    between atoms: C3*_22  and  O3*_24
REMARK                            x       y       z     vdW  Elec       q    Type
REMARK                         _______ _______ _______ _____ _____    ______ ____
ROOT
ATOM      1  C4* UNL     1       6.493  -5.111  22.884  0.00  0.00    +0.177 C 
ATOM      2  C3* UNL     1       5.436  -4.022  22.722  0.00  0.00    +0.178 C 
ATOM      3  C2* UNL     1       5.566  -3.184  23.995  0.00  0.00    +0.195 C 
ATOM      4  C1* UNL     1       6.850  -3.712  24.656  0.00  0.00    +0.252 C 
ATOM      5  O4* UNL     1       7.537  -4.521  23.687  0.00  0.00    -0.346 OA
ENDROOT
BRANCH   4   6
ATOM      6  N   UNL     1       7.707  -2.652  25.160  0.00  0.00    -0.301 N 
ATOM      7  C   UNL     1       8.313  -1.620  24.483  0.00  0.00    +0.072 A 
ATOM      8  C   UNL     1       8.922  -0.865  25.486  0.00  0.00    +0.091 A 
ATOM      9  C   UNL     1       9.636   0.294  25.152  0.00  0.00    +0.051 A 
ATOM     10  C   UNL     1       9.731   0.665  23.804  0.00  0.00    +0.061 A 
ATOM     11  C   UNL     1       9.126  -0.109  22.806  0.00  0.00    +0.061 A 
ATOM     12 CL   UNL     1       9.233   0.301  21.130  0.00  0.00    -0.082 Cl
ATOM     13 CL   UNL     1      10.617   2.107  23.440  0.00  0.00    -0.082 Cl
ATOM     14  N   UNL     1       8.697  -1.414  26.720  0.00  0.00    -0.236 NA
ATOM     15  C   UNL     1       8.397  -1.262  23.132  0.00  0.00    +0.049 A 
ATOM     16  C   UNL     1       7.984  -2.492  26.494  0.00  0.00    +0.202 A 
ENDBRANCH   4   6
BRANCH   2  17
ATOM     17  O3* UNL     1       4.132  -4.579  22.575  0.00  0.00    -0.386 OA
ATOM     18  H3* UNL     1       4.255  -5.552  22.557  0.00  0.00    +0.210 HD
ENDBRANCH   2  17
BRANCH   3  19
ATOM     19  O2* UNL     1       4.417  -3.387  24.835  0.00  0.00    -0.385 OA
ATOM     20  H2* UNL     1       3.846  -4.044  24.393  0.00  0.00    +0.210 HD
ENDBRANCH   3  19
BRANCH   1  21
ATOM     21  C5* UNL     1       7.054  -5.621  21.560  0.00  0.00    +0.190 C 
BRANCH  21  22
ATOM     22  O5* UNL     1       6.057  -5.606  20.539  0.00  0.00    -0.392 OA
ATOM     23  H5* UNL     1       5.423  -4.910  20.787  0.00  0.00    +0.210 HD
ENDBRANCH  21  22
ENDBRANCH   1  21
TORSDOF 5
ENDMDL
MODEL 5
REMARK VINA RESULT:      -6.1      2.092      2.648
REMARK  Name = 
REMARK  5 active torsions:
REMARK  status: ('A' for Active; 'I' for Inactive)
REMARK    1  A    between atoms: C4*_2  and  C5*_3
REMARK    2  A    between atoms: C5*_3  and  O5*_4
REMARK    3  A    between atoms: C1*_6  and  N_8
REMARK    4  A    between atoms: C2*_19  and  O2*_21
REMARK    5  A    between atoms: C3*_22  and  O3*_24
REMARK                            x       y       z     vdW  Elec       q    Type
REMARK                         _______ _______ _______ _____ _____    ______ ____
ROOT
ATOM      1  C4* UNL     1       6.846  -4.544  22.736  0.00  0.00    +0.177 C 
ATOM      2  C3* UNL     1       5.654  -3.689  22.318  0.00  0.00    +0.178 C 
ATOM      3  C2* UNL     1       6.020  -2.282  22.793  0.00  0.00    +0.195 C 
ATOM      4  C1* UNL     1       7.492  -2.405  23.216  0.00  0.00    +0.252 C 
ATOM      5  O4* UNL     1       7.985  -3.659  22.714  0.00  0.00    -0.346 OA
ENDROOT
BRANCH   4   6
ATOM      6  N   UNL     1       8.311  -1.295  22.755  0.00  0.00    -0.301 N 
ATOM      7  C   UNL     1       8.448  -0.032  23.280  0.00  0.00    +0.072 A 
ATOM      8  C   UNL     1       9.434   0.560  22.491  0.00  0.00    +0.091 A 
ATOM      9  C   UNL     1       9.844   1.875  22.755  0.00  0.00    +0.051 A 
ATOM     10  C   UNL     1       9.240   2.573  23.809  0.00  0.00    +0.061 A 
ATOM     11  C   UNL     1       8.242   1.971  24.585  0.00  0.00    +0.061 A 
ATOM     12 CL   UNL     1       7.458   2.802  25.883  0.00  0.00    -0.082 Cl
ATOM     13 CL   UNL     1       9.782   4.191  24.101  0.00  0.00    -0.082 Cl
ATOM     14  N   UNL     1       9.877  -0.304  21.526  0.00  0.00    -0.236 NA
ATOM     15  C   UNL     1       7.836   0.651  24.338  0.00  0.00    +0.049 A 
ATOM     16  C   UNL     1       9.176  -1.400  21.696  0.00  0.00    +0.202 A 
ENDBRANCH   4   6
BRANCH   2  17
ATOM     17  O3* UNL     1       4.444  -4.158  22.906  0.00  0.00    -0.386 OA
ATOM     18  H3* UNL     1       3.723  -3.869  22.307  0.00  0.00    +0.210 HD
ENDBRANCH   2  17
BRANCH   3  19
ATOM     19  O2* UNL     1       5.182  -1.906  23.900  0.00  0.00    -0.385 OA
ATOM     20  H2* UNL     1       5.424  -0.994  24.152  0.00  0.00    +0.210 HD
ENDBRANCH   3  19
BRANCH   1  21
ATOM     21  C5* UNL     1       7.083  -5.750  21.831  0.00  0.00    +0.190 C 
BRANCH  21  22
ATOM     22  O5* UNL     1       5.855  -6.400  21.509  0.00  0.00    -0.392 OA
ATOM     23  H5* UNL     1       5.147  -5.761  21.707  0.00  0.00    +0.210 HD
ENDBRANCH  21  22
ENDBRANCH   1  21
TORSDOF 5
ENDMDL
MODEL 6
REMARK VINA RESULT:      -6.1      4.159      6.761
REMARK  Name = 
REMARK  5 active torsions:
REMARK  status: ('A' for Active; 'I' for Inactive)
REMARK    1  A    between atoms: C4*_2  and  C5*_3
REMARK    2  A    between atoms: C5*_3  and  O5*_4
REMARK    3  A    between atoms: C1*_6  and  N_8
REMARK    4  A    between atoms: C2*_19  and  O2*_21
REMARK    5  A    between atoms: C3*_22  and  O3*_24
REMARK                            x       y       z     vdW  Elec       q    Type
REMARK                         _______ _______ _______ _____ _____    ______ ____
ROOT
ATOM      1  C4* UNL     1       8.825   0.789  22.974  0.00  0.00    +0.177 C 
ATOM      2  C3* UNL     1      10.106   0.574  23.776  0.00  0.00    +0.178 C 
ATOM      3  C2* UNL     1       9.730  -0.501  24.796  0.00  0.00    +0.195 C 
ATOM      4  C1* UNL     1       8.349  -0.988  24.329  0.00  0.00    +0.252 C 
ATOM      5  O4* UNL     1       8.133  -0.476  23.003  0.00  0.00    -0.346 OA
ENDROOT
BRANCH   4   6
ATOM      6  N   UNL     1       8.215  -2.435  24.363  0.00  0.00    -0.301 N 
ATOM      7  C   UNL     1       7.080  -3.207  24.455  0.00  0.00    +0.072 A 
ATOM      8  C   UNL     1       7.548  -4.516  24.341  0.00  0.00    +0.091 A 
ATOM      9  C   UNL     1       6.644  -5.587  24.382  0.00  0.00    +0.051 A 
ATOM     10  C   UNL     1       5.280  -5.315  24.548  0.00  0.00    +0.061 A 
ATOM     11  C   UNL     1       4.826  -3.997  24.675  0.00  0.00    +0.061 A 
ATOM     12 CL   UNL     1       3.154  -3.617  24.900  0.00  0.00    -0.082 Cl
ATOM     13 CL   UNL     1       4.202  -6.668  24.586  0.00  0.00    -0.082 Cl
ATOM     14  N   UNL     1       8.909  -4.541  24.187  0.00  0.00    -0.236 NA
ATOM     15  C   UNL     1       5.720  -2.918  24.620  0.00  0.00    +0.049 A 
ATOM     16  C   UNL     1       9.283  -3.284  24.222  0.00  0.00    +0.202 A 
ENDBRANCH   4   6
BRANCH   2  17
ATOM     17  O3* UNL     1      10.538   1.781  24.400  0.00  0.00    -0.386 OA
ATOM     18  H3* UNL     1       9.727   2.311  24.553  0.00  0.00    +0.210 HD
ENDBRANCH   2  17
BRANCH   3  19
ATOM     19  O2* UNL     1       9.671   0.072  26.113  0.00  0.00    -0.385 OA
ATOM     20  H2* UNL     1       9.939   1.008  26.036  0.00  0.00    +0.210 HD
ENDBRANCH   3  19
BRANCH   1  21
ATOM     21  C5* UNL     1       9.071   1.235  21.535  0.00  0.00    +0.190 C 
BRANCH  21  22
ATOM     22  O5* UNL     1      10.124   2.196  21.468  0.00  0.00    -0.392 OA
ATOM     23  H5* UNL     1      10.687   1.931  20.719  0.00  0.00    +0.210 HD
ENDBRANCH  21  22
ENDBRANCH   1  21
TORSDOF 5
ENDMDL
MODEL 7
REMARK VINA RESULT:      -6.1      4.349      6.936
REMARK  Name = 
REMARK  5 active torsions:
REMARK  status: ('A' for Active; 'I' for Inactive)
REMARK    1  A    between atoms: C4*_2  and  C5*_3
REMARK    2  A    between atoms: C5*_3  and  O5*_4
REMARK    3  A    between atoms: C1*_6  and  N_8
REMARK    4  A    between atoms: C2*_19  and  O2*_21
REMARK    5  A    between atoms: C3*_22  and  O3*_24
REMARK                            x       y       z     vdW  Elec       q    Type
REMARK                         _______ _______ _______ _____ _____    ______ ____
ROOT
ATOM      1  C4* UNL     1       9.433   1.955  23.729  0.00  0.00    +0.177 C 
ATOM      2  C3* UNL     1       8.996   1.839  22.272  0.00  0.00    +0.178 C 
ATOM      3  C2* UNL     1       8.445   0.417  22.160  0.00  0.00    +0.195 C 
ATOM      4  C1* UNL     1       8.381  -0.071  23.616  0.00  0.00    +0.252 C 
ATOM      5  O4* UNL     1       8.559   1.074  24.467  0.00  0.00    -0.346 OA
ENDROOT
BRANCH   4   6
ATOM      6  N   UNL     1       7.146  -0.771  23.928  0.00  0.00    -0.301 N 
ATOM      7  C   UNL     1       6.738  -2.033  23.563  0.00  0.00    +0.072 A 
ATOM      8  C   UNL     1       5.525  -2.205  24.228  0.00  0.00    +0.091 A 
ATOM      9  C   UNL     1       4.818  -3.408  24.091  0.00  0.00    +0.051 A 
ATOM     10  C   UNL     1       5.347  -4.415  23.273  0.00  0.00    +0.061 A 
ATOM     11  C   UNL     1       6.560  -4.223  22.600  0.00  0.00    +0.061 A 
ATOM     12 CL   UNL     1       7.241  -5.431  21.566  0.00  0.00    -0.082 Cl
ATOM     13 CL   UNL     1       4.443  -5.884  23.139  0.00  0.00    -0.082 Cl
ATOM     14  N   UNL     1       5.206  -1.096  24.966  0.00  0.00    -0.236 NA
ATOM     15  C   UNL     1       7.283  -3.029  22.743  0.00  0.00    +0.049 A 
ATOM     16  C   UNL     1       6.183  -0.248  24.753  0.00  0.00    +0.202 A 
ENDBRANCH   4   6
BRANCH   2  17
ATOM     17  O3* UNL     1      10.086   2.066  21.382  0.00  0.00    -0.386 OA
ATOM     18  H3* UNL     1      10.529   2.881  21.700  0.00  0.00    +0.210 HD
ENDBRANCH   2  17
BRANCH   3  19
ATOM     19  O2* UNL     1       9.333  -0.392  21.370  0.00  0.00    -0.385 OA
ATOM     20  H2* UNL     1       8.858  -1.215  21.148  0.00  0.00    +0.210 HD
ENDBRANCH   3  19
BRANCH   1  21
ATOM     21  C5* UNL     1       9.355   3.376  24.281  0.00  0.00    +0.190 C 
BRANCH  21  22
ATOM     22  O5* UNL     1       9.432   4.340  23.231  0.00  0.00    -0.392 OA
ATOM     23  H5* UNL     1       8.552   4.752  23.175  0.00  0.00    +0.210 HD
ENDBRANCH  21  22
ENDBRANCH   1  21
TORSDOF 5
ENDMDL
MODEL 8
REMARK VINA RESULT:      -6.0      4.260      6.886
REMARK  Name = 
REMARK  5 active torsions:
REMARK  status: ('A' for Active; 'I' for Inactive)
REMARK    1  A    between atoms: C4*_2  and  C5*_3
REMARK    2  A    between atoms: C5*_3  and  O5*_4
REMARK    3  A    between atoms: C1*_6  and  N_8
REMARK    4  A    between atoms: C2*_19  and  O2*_21
REMARK    5  A    between atoms: C3*_22  and  O3*_24
REMARK                            x       y       z     vdW  Elec       q    Type
REMARK                         _______ _______ _______ _____ _____    ______ ____
ROOT
ATOM      1  C4* UNL     1       8.160   0.380  22.816  0.00  0.00    +0.177 C 
ATOM      2  C3* UNL     1       9.317  -0.505  22.364  0.00  0.00    +0.178 C 
ATOM      3  C2* UNL     1       8.979  -1.882  22.937  0.00  0.00    +0.195 C 
ATOM      4  C1* UNL     1       7.538  -1.725  23.451  0.00  0.00    +0.252 C 
ATOM      5  O4* UNL     1       7.018  -0.495  22.918  0.00  0.00    -0.346 OA
ENDROOT
BRANCH   4   6
ATOM      6  N   UNL     1       6.685  -2.851  23.107  0.00  0.00    -0.301 N 
ATOM      7  C   UNL     1       6.227  -3.876  23.900  0.00  0.00    +0.072 A 
ATOM      8  C   UNL     1       5.375  -4.599  23.065  0.00  0.00    +0.091 A 
ATOM      9  C   UNL     1       4.709  -5.730  23.557  0.00  0.00    +0.051 A 
ATOM     10  C   UNL     1       4.924  -6.118  24.886  0.00  0.00    +0.061 A 
ATOM     11  C   UNL     1       5.793  -5.391  25.709  0.00  0.00    +0.061 A 
ATOM     12 CL   UNL     1       6.103  -5.844  27.349  0.00  0.00    -0.082 Cl
ATOM     13 CL   UNL     1       4.076  -7.517  25.450  0.00  0.00    -0.082 Cl
ATOM     14  N   UNL     1       5.318  -4.038  21.817  0.00  0.00    -0.236 NA
ATOM     15  C   UNL     1       6.452  -4.249  25.231  0.00  0.00    +0.049 A 
ATOM     16  C   UNL     1       6.125  -3.006  21.865  0.00  0.00    +0.202 A 
ENDBRANCH   4   6
BRANCH   2  17
ATOM     17  O3* UNL     1      10.567  -0.015  22.843  0.00  0.00    -0.386 OA
ATOM     18  H3* UNL     1      10.372   0.436  23.692  0.00  0.00    +0.210 HD
ENDBRANCH   2  17
BRANCH   3  19
ATOM     19  O2* UNL     1       9.887  -2.206  24.003  0.00  0.00    -0.385 OA
ATOM     20  H2* UNL     1       9.350  -2.418  24.790  0.00  0.00    +0.210 HD
ENDBRANCH   3  19
BRANCH   1  21
ATOM     21  C5* UNL     1       7.867   1.538  21.866  0.00  0.00    +0.190 C 
BRANCH  21  22
ATOM     22  O5* UNL     1       9.069   2.207  21.485  0.00  0.00    -0.392 OA
ATOM     23  H5* UNL     1       8.864   3.159  21.491  0.00  0.00    +0.210 HD
ENDBRANCH  21  22
ENDBRANCH   1  21
TORSDOF 5
ENDMDL
MODEL 9
REMARK VINA RESULT:      -5.9      2.679      3.538
REMARK  Name = 
REMARK  5 active torsions:
REMARK  status: ('A' for Active; 'I' for Inactive)
REMARK    1  A    between atoms: C4*_2  and  C5*_3
REMARK    2  A    between atoms: C5*_3  and  O5*_4
REMARK    3  A    between atoms: C1*_6  and  N_8
REMARK    4  A    between atoms: C2*_19  and  O2*_21
REMARK    5  A    between atoms: C3*_22  and  O3*_24
REMARK                            x       y       z     vdW  Elec       q    Type
REMARK                         _______ _______ _______ _____ _____    ______ ____
ROOT
ATOM      1  C4* UNL     1       7.075  -5.266  25.332  0.00  0.00    +0.177 C 
ATOM      2  C3* UNL     1       7.674  -4.872  26.679  0.00  0.00    +0.178 C 
ATOM      3  C2* UNL     1       8.949  -4.112  26.311  0.00  0.00    +0.195 C 
ATOM      4  C1* UNL     1       8.839  -3.918  24.790  0.00  0.00    +0.252 C 
ATOM      5  O4* UNL     1       7.491  -4.240  24.407  0.00  0.00    -0.346 OA
ENDROOT
BRANCH   4   6
ATOM      6  N   UNL     1       9.203  -2.578  24.360  0.00  0.00    -0.301 N 
ATOM      7  C   UNL     1       8.734  -1.361  24.796  0.00  0.00    +0.072 A 
ATOM      8  C   UNL     1       9.510  -0.430  24.105  0.00  0.00    +0.091 A 
ATOM      9  C   UNL     1       9.308   0.942  24.317  0.00  0.00    +0.051 A 
ATOM     10  C   UNL     1       8.316   1.348  25.218  0.00  0.00    +0.061 A 
ATOM     11  C   UNL     1       7.536   0.402  25.895  0.00  0.00    +0.061 A 
ATOM     12 CL   UNL     1       6.288   0.860  27.003  0.00  0.00    -0.082 Cl
ATOM     13 CL   UNL     1       8.107   3.050  25.452  0.00  0.00    -0.082 Cl
ATOM     14  N   UNL     1      10.411  -1.053  23.283  0.00  0.00    -0.236 NA
ATOM     15  C   UNL     1       7.740  -0.972  25.702  0.00  0.00    +0.049 A 
ATOM     16  C   UNL     1      10.193  -2.336  23.442  0.00  0.00    +0.202 A 
ENDBRANCH   4   6
BRANCH   2  17
ATOM     17  O3* UNL     1       7.943  -6.017  27.484  0.00  0.00    -0.386 OA
ATOM     18  H3* UNL     1       7.543  -6.779  27.012  0.00  0.00    +0.210 HD
ENDBRANCH   2  17
BRANCH   3  19
ATOM     19  O2* UNL     1      10.103  -4.893  26.662  0.00  0.00    -0.385 OA
ATOM     20  H2* UNL     1      10.891  -4.349  26.474  0.00  0.00    +0.210 HD
ENDBRANCH   3  19
BRANCH   1  21
ATOM     21  C5* UNL     1       5.554  -5.390  25.351  0.00  0.00    +0.190 C 
BRANCH  21  22
ATOM     22  O5* UNL     1       5.116  -6.183  26.453  0.00  0.00    -0.392 OA
ATOM     23  H5* UNL     1       4.274  -6.589  26.179  0.00  0.00    +0.210 HD
ENDBRANCH  21  22
ENDBRANCH   1  21
TORSDOF 5
ENDMDL
