MODEL 1
REMARK VINA RESULT:      -4.1      0.000      0.000
REMARK  Name = 
REMARK  7 active torsions:
REMARK  status: ('A' for Active; 'I' for Inactive)
REMARK    1  A    between atoms: C_1  and  N_2
REMARK    2  A    between atoms: N_2  and  C_3
REMARK    3  A    between atoms: N_2  and  C_7
REMARK    4  A    between atoms: C_3  and  C_4
REMARK    5  A    between atoms: C_4  and  O_5
REMARK    6  A    between atoms: C_7  and  N_8
REMARK    7  A    between atoms: C_7  and  N_9
REMARK                            x       y       z     vdW  Elec       q    Type
REMARK                         _______ _______ _______ _____ _____    ______ ____
ROOT
ATOM      1  C   UNL     1      10.823   1.116  24.278  0.00  0.00    +0.108 C 
ATOM      2  N   UNL     1       9.862   0.699  23.243  0.00  0.00    -0.268 NA
ENDROOT
BRANCH   2   3
ATOM      3  C   UNL     1       9.381   1.631  22.256  0.00  0.00    +0.191 C 
BRANCH   3   4
ATOM      4  N   UNL     1       8.891   1.013  21.070  0.00  0.00    -0.303 NA
ATOM      5  H   UNL     1       7.996   0.530  21.081  0.00  0.00    +0.121 HD
ATOM      6  H   UNL     1       9.495   0.708  20.314  0.00  0.00    +0.121 HD
ENDBRANCH   3   4
BRANCH   3   7
ATOM      7  N   UNL     1      10.444   2.500  21.885  0.00  0.00    -0.303 NA
ATOM      8  H   UNL     1      10.940   2.402  21.006  0.00  0.00    +0.121 HD
ATOM      9  H   UNL     1      10.879   3.122  22.559  0.00  0.00    +0.121 HD
ENDBRANCH   3   7
ENDBRANCH   2   3
BRANCH   2  10
ATOM     10  C   UNL     1       9.169  -0.605  23.388  0.00  0.00    +0.207 C 
BRANCH  10  11
ATOM     11  C   UNL     1       9.960  -1.797  22.919  0.00  0.00    +0.319 C 
ATOM     12  O   UNL     1      10.220  -2.760  23.628  0.00  0.00    -0.250 OA
BRANCH  11  13
ATOM     13  O   UNL     1      10.380  -1.706  21.638  0.00  0.00    -0.480 OA
ATOM     14  H   UNL     1       9.798  -1.252  20.997  0.00  0.00    +0.295 HD
ENDBRANCH  11  13
ENDBRANCH  10  11
ENDBRANCH   2  10
TORSDOF 6
ENDMDL
MODEL 2
REMARK VINA RESULT:      -3.7      1.370      1.822
REMARK  Name = 
REMARK  7 active torsions:
REMARK  status: ('A' for Active; 'I' for Inactive)
REMARK    1  A    between atoms: C_1  and  N_2
REMARK    2  A    between atoms: N_2  and  C_3
REMARK    3  A    between atoms: N_2  and  C_7
REMARK    4  A    between atoms: C_3  and  C_4
REMARK    5  A    between atoms: C_4  and  O_5
REMARK    6  A    between atoms: C_7  and  N_8
REMARK    7  A    between atoms: C_7  and  N_9
REMARK                            x       y       z     vdW  Elec       q    Type
REMARK                         _______ _______ _______ _____ _____    ______ ____
ROOT
ATOM      1  C   UNL     1      10.718   0.551  24.048  0.00  0.00    +0.108 C 
ATOM      2  N   UNL     1      10.293  -0.025  22.761  0.00  0.00    -0.268 NA
ENDROOT
BRANCH   2   3
ATOM      3  C   UNL     1       9.570   0.763  21.796  0.00  0.00    +0.191 C 
BRANCH   3   4
ATOM      4  N   UNL     1      10.042   2.101  21.675  0.00  0.00    -0.303 NA
ATOM      5  H   UNL     1       9.935   2.600  20.795  0.00  0.00    +0.121 HD
ATOM      6  H   UNL     1      10.777   2.485  22.260  0.00  0.00    +0.121 HD
ENDBRANCH   3   4
BRANCH   3   7
ATOM      7  N   UNL     1       8.201   0.818  22.176  0.00  0.00    -0.303 NA
ATOM      8  H   UNL     1       7.846   1.522  22.815  0.00  0.00    +0.121 HD
ATOM      9  H   UNL     1       7.568   0.047  21.987  0.00  0.00    +0.121 HD
ENDBRANCH   3   7
ENDBRANCH   2   3
BRANCH   2  10
ATOM     10  C   UNL     1      10.358  -1.495  22.574  0.00  0.00    +0.207 C 
BRANCH  10  11
ATOM     11  C   UNL     1       9.458  -2.288  23.486  0.00  0.00    +0.319 C 
ATOM     12  O   UNL     1       8.282  -2.014  23.683  0.00  0.00    -0.250 OA
BRANCH  11  13
ATOM     13  O   UNL     1      10.072  -3.329  24.090  0.00  0.00    -0.480 OA
ATOM     14  H   UNL     1      10.906  -3.154  24.568  0.00  0.00    +0.295 HD
ENDBRANCH  11  13
ENDBRANCH  10  11
ENDBRANCH   2  10
TORSDOF 6
ENDMDL
MODEL 3
REMARK VINA RESULT:      -3.7      5.010      6.328
REMARK  Name = 
REMARK  7 active torsions:
REMARK  status: ('A' for Active; 'I' for Inactive)
REMARK    1  A    between atoms: C_1  and  N_2
REMARK    2  A    between atoms: N_2  and  C_3
REMARK    3  A    between atoms: N_2  and  C_7
REMARK    4  A    between atoms: C_3  and  C_4
REMARK    5  A    between atoms: C_4  and  O_5
REMARK    6  A    between atoms: C_7  and  N_8
REMARK    7  A    between atoms: C_7  and  N_9
REMARK                            x       y       z     vdW  Elec       q    Type
REMARK                         _______ _______ _______ _____ _____    ______ ____
ROOT
ATOM      1  C   UNL     1       6.310  -5.233  25.309  0.00  0.00    +0.108 C 
ATOM      2  N   UNL     1       7.731  -4.924  25.076  0.00  0.00    -0.268 NA
ENDROOT
BRANCH   2   3
ATOM      3  C   UNL     1       8.698  -5.021  26.138  0.00  0.00    +0.191 C 
BRANCH   3   4
ATOM      4  N   UNL     1       9.908  -5.668  25.760  0.00  0.00    -0.303 NA
ATOM      5  H   UNL     1      10.496  -5.264  25.034  0.00  0.00    +0.121 HD
ATOM      6  H   UNL     1      10.070  -6.661  25.891  0.00  0.00    +0.121 HD
ENDBRANCH   3   4
BRANCH   3   7
ATOM      7  N   UNL     1       8.130  -5.757  27.214  0.00  0.00    -0.303 NA
ATOM      8  H   UNL     1       8.608  -6.543  27.643  0.00  0.00    +0.121 HD
ATOM      9  H   UNL     1       7.151  -5.658  27.465  0.00  0.00    +0.121 HD
ENDBRANCH   3   7
ENDBRANCH   2   3
BRANCH   2  10
ATOM     10  C   UNL     1       8.120  -4.237  23.819  0.00  0.00    +0.207 C 
BRANCH  10  11
ATOM     11  C   UNL     1       8.860  -2.940  24.011  0.00  0.00    +0.319 C 
ATOM     12  O   UNL     1       8.311  -1.880  24.278  0.00  0.00    -0.250 OA
BRANCH  11  13
ATOM     13  O   UNL     1      10.197  -3.042  23.845  0.00  0.00    -0.480 OA
ATOM     14  H   UNL     1      10.561  -2.883  22.951  0.00  0.00    +0.295 HD
ENDBRANCH  11  13
ENDBRANCH  10  11
ENDBRANCH   2  10
TORSDOF 6
ENDMDL
MODEL 4
REMARK VINA RESULT:      -3.6      2.781      3.527
REMARK  Name = 
REMARK  7 active torsions:
REMARK  status: ('A' for Active; 'I' for Inactive)
REMARK    1  A    between atoms: C_1  and  N_2
REMARK    2  A    between atoms: N_2  and  C_3
REMARK    3  A    between atoms: N_2  and  C_7
REMARK    4  A    between atoms: C_3  and  C_4
REMARK    5  A    between atoms: C_4  and  O_5
REMARK    6  A    between atoms: C_7  and  N_8
REMARK    7  A    between atoms: C_7  and  N_9
REMARK                            x       y       z     vdW  Elec       q    Type
REMARK                         _______ _______ _______ _____ _____    ______ ____
ROOT
ATOM      1  C   UNL     1       9.160  -0.655  25.094  0.00  0.00    +0.108 C 
ATOM      2  N   UNL     1       9.406  -0.500  23.651  0.00  0.00    -0.268 NA
ENDROOT
BRANCH   2   3
ATOM      3  C   UNL     1      10.271  -1.408  22.942  0.00  0.00    +0.191 C 
BRANCH   3   4
ATOM      4  N   UNL     1       9.953  -1.548  21.561  0.00  0.00    -0.303 NA
ATOM      5  H   UNL     1       9.043  -1.250  21.216  0.00  0.00    +0.121 HD
ATOM      6  H   UNL     1      10.401  -2.227  20.955  0.00  0.00    +0.121 HD
ENDBRANCH   3   4
BRANCH   3   7
ATOM      7  N   UNL     1      10.182  -2.694  23.541  0.00  0.00    -0.303 NA
ATOM      8  H   UNL     1       9.353  -3.002  24.039  0.00  0.00    +0.121 HD
ATOM      9  H   UNL     1      11.003  -3.277  23.668  0.00  0.00    +0.121 HD
ENDBRANCH   3   7
ENDBRANCH   2   3
BRANCH   2  10
ATOM     10  C   UNL     1       8.992   0.758  22.982  0.00  0.00    +0.207 C 
BRANCH  10  11
ATOM     11  C   UNL     1      10.083   1.786  22.838  0.00  0.00    +0.319 C 
ATOM     12  O   UNL     1      10.758   2.192  23.774  0.00  0.00    -0.250 OA
BRANCH  11  13
ATOM     13  O   UNL     1      10.245   2.241  21.576  0.00  0.00    -0.480 OA
ATOM     14  H   UNL     1       9.445   2.354  21.025  0.00  0.00    +0.295 HD
ENDBRANCH  11  13
ENDBRANCH  10  11
ENDBRANCH   2  10
TORSDOF 6
ENDMDL
MODEL 5
REMARK VINA RESULT:      -3.5      4.913      6.013
REMARK  Name = 
REMARK  7 active torsions:
REMARK  status: ('A' for Active; 'I' for Inactive)
REMARK    1  A    between atoms: C_1  and  N_2
REMARK    2  A    between atoms: N_2  and  C_3
REMARK    3  A    between atoms: N_2  and  C_7
REMARK    4  A    between atoms: C_3  and  C_4
REMARK    5  A    between atoms: C_4  and  O_5
REMARK    6  A    between atoms: C_7  and  N_8
REMARK    7  A    between atoms: C_7  and  N_9
REMARK                            x       y       z     vdW  Elec       q    Type
REMARK                         _______ _______ _______ _____ _____    ______ ____
ROOT
ATOM      1  C   UNL     1       7.430  -2.986  26.396  0.00  0.00    +0.108 C 
ATOM      2  N   UNL     1       8.425  -3.763  25.637  0.00  0.00    -0.268 NA
ENDROOT
BRANCH   2   3
ATOM      3  C   UNL     1       9.232  -4.767  26.280  0.00  0.00    +0.191 C 
BRANCH   3   4
ATOM      4  N   UNL     1       9.961  -5.588  25.374  0.00  0.00    -0.303 NA
ATOM      5  H   UNL     1      10.294  -6.503  25.670  0.00  0.00    +0.121 HD
ATOM      6  H   UNL     1      10.480  -5.217  24.584  0.00  0.00    +0.121 HD
ENDBRANCH   3   4
BRANCH   3   7
ATOM      7  N   UNL     1       8.389  -5.614  27.051  0.00  0.00    -0.303 NA
ATOM      8  H   UNL     1       7.539  -5.276  27.489  0.00  0.00    +0.121 HD
ATOM      9  H   UNL     1       8.698  -6.531  27.358  0.00  0.00    +0.121 HD
ENDBRANCH   3   7
ENDBRANCH   2   3
BRANCH   2  10
ATOM     10  C   UNL     1       8.798  -3.315  24.273  0.00  0.00    +0.207 C 
BRANCH  10  11
ATOM     11  C   UNL     1       7.872  -3.779  23.180  0.00  0.00    +0.319 C 
ATOM     12  O   UNL     1       7.293  -3.020  22.415  0.00  0.00    -0.250 OA
BRANCH  11  13
ATOM     13  O   UNL     1       7.718  -5.120  23.125  0.00  0.00    -0.480 OA
ATOM     14  H   UNL     1       7.331  -5.504  22.313  0.00  0.00    +0.295 HD
ENDBRANCH  11  13
ENDBRANCH  10  11
ENDBRANCH   2  10
TORSDOF 6
ENDMDL
MODEL 6
REMARK VINA RESULT:      -3.5      2.057      2.837
REMARK  Name = 
REMARK  7 active torsions:
REMARK  status: ('A' for Active; 'I' for Inactive)
REMARK    1  A    between atoms: C_1  and  N_2
REMARK    2  A    between atoms: N_2  and  C_3
REMARK    3  A    between atoms: N_2  and  C_7
REMARK    4  A    between atoms: C_3  and  C_4
REMARK    5  A    between atoms: C_4  and  O_5
REMARK    6  A    between atoms: C_7  and  N_8
REMARK    7  A    between atoms: C_7  and  N_9
REMARK                            x       y       z     vdW  Elec       q    Type
REMARK                         _______ _______ _______ _____ _____    ______ ____
ROOT
ATOM      1  C   UNL     1       7.468   0.372  23.075  0.00  0.00    +0.108 C 
ATOM      2  N   UNL     1       8.917   0.413  22.814  0.00  0.00    -0.268 NA
ENDROOT
BRANCH   2   3
ATOM      3  C   UNL     1       9.442   1.041  21.630  0.00  0.00    +0.191 C 
BRANCH   3   4
ATOM      4  N   UNL     1      10.268   2.170  21.894  0.00  0.00    -0.303 NA
ATOM      5  H   UNL     1       9.924   2.928  22.478  0.00  0.00    +0.121 HD
ATOM      6  H   UNL     1      11.026   2.456  21.283  0.00  0.00    +0.121 HD
ENDBRANCH   3   4
BRANCH   3   7
ATOM      7  N   UNL     1       8.358   1.477  20.819  0.00  0.00    -0.303 NA
ATOM      8  H   UNL     1       8.196   1.105  19.889  0.00  0.00    +0.121 HD
ATOM      9  H   UNL     1       7.825   2.310  21.050  0.00  0.00    +0.121 HD
ENDBRANCH   3   7
ENDBRANCH   2   3
BRANCH   2  10
ATOM     10  C   UNL     1       9.818  -0.443  23.625  0.00  0.00    +0.207 C 
BRANCH  10  11
ATOM     11  C   UNL     1      10.507   0.265  24.762  0.00  0.00    +0.319 C 
ATOM     12  O   UNL     1      11.539   0.909  24.633  0.00  0.00    -0.250 OA
BRANCH  11  13
ATOM     13  O   UNL     1       9.892   0.112  25.956  0.00  0.00    -0.480 OA
ATOM     14  H   UNL     1      10.152   0.711  26.684  0.00  0.00    +0.295 HD
ENDBRANCH  11  13
ENDBRANCH  10  11
ENDBRANCH   2  10
TORSDOF 6
ENDMDL
MODEL 7
REMARK VINA RESULT:      -3.4      5.977      7.172
REMARK  Name = 
REMARK  7 active torsions:
REMARK  status: ('A' for Active; 'I' for Inactive)
REMARK    1  A    between atoms: C_1  and  N_2
REMARK    2  A    between atoms: N_2  and  C_3
REMARK    3  A    between atoms: N_2  and  C_7
REMARK    4  A    between atoms: C_3  and  C_4
REMARK    5  A    between atoms: C_4  and  O_5
REMARK    6  A    between atoms: C_7  and  N_8
REMARK    7  A    between atoms: C_7  and  N_9
REMARK                            x       y       z     vdW  Elec       q    Type
REMARK                         _______ _______ _______ _____ _____    ______ ____
ROOT
ATOM      1  C   UNL     1       7.330  -5.849  22.322  0.00  0.00    +0.108 C 
ATOM      2  N   UNL     1       6.899  -5.410  23.659  0.00  0.00    -0.268 NA
ENDROOT
BRANCH   2   3
ATOM      3  C   UNL     1       5.559  -5.656  24.126  0.00  0.00    +0.191 C 
BRANCH   3   4
ATOM      4  N   UNL     1       5.494  -6.163  25.455  0.00  0.00    -0.303 NA
ATOM      5  H   UNL     1       5.222  -5.550  26.220  0.00  0.00    +0.121 HD
ATOM      6  H   UNL     1       6.022  -6.972  25.765  0.00  0.00    +0.121 HD
ENDBRANCH   3   4
BRANCH   3   7
ATOM      7  N   UNL     1       4.937  -6.605  23.269  0.00  0.00    -0.303 NA
ATOM      8  H   UNL     1       3.946  -6.813  23.321  0.00  0.00    +0.121 HD
ATOM      9  H   UNL     1       5.485  -7.253  22.711  0.00  0.00    +0.121 HD
ENDBRANCH   3   7
ENDBRANCH   2   3
BRANCH   2  10
ATOM     10  C   UNL     1       7.754  -4.464  24.416  0.00  0.00    +0.207 C 
BRANCH  10  11
ATOM     11  C   UNL     1       8.884  -5.105  25.179  0.00  0.00    +0.319 C 
ATOM     12  O   UNL     1      10.062  -4.983  24.872  0.00  0.00    -0.250 OA
BRANCH  11  13
ATOM     13  O   UNL     1       8.482  -5.849  26.232  0.00  0.00    -0.480 OA
ATOM     14  H   UNL     1       9.041  -6.606  26.498  0.00  0.00    +0.295 HD
ENDBRANCH  11  13
ENDBRANCH  10  11
ENDBRANCH   2  10
TORSDOF 6
ENDMDL
MODEL 8
REMARK VINA RESULT:      -3.3      2.730      3.665
REMARK  Name = 
REMARK  7 active torsions:
REMARK  status: ('A' for Active; 'I' for Inactive)
REMARK    1  A    between atoms: C_1  and  N_2
REMARK    2  A    between atoms: N_2  and  C_3
REMARK    3  A    between atoms: N_2  and  C_7
REMARK    4  A    between atoms: C_3  and  C_4
REMARK    5  A    between atoms: C_4  and  O_5
REMARK    6  A    between atoms: C_7  and  N_8
REMARK    7  A    between atoms: C_7  and  N_9
REMARK                            x       y       z     vdW  Elec       q    Type
REMARK                         _______ _______ _______ _____ _____    ______ ____
ROOT
ATOM      1  C   UNL     1       7.386  -1.043  24.094  0.00  0.00    +0.108 C 
ATOM      2  N   UNL     1       8.577  -0.851  23.250  0.00  0.00    -0.268 NA
ENDROOT
BRANCH   2   3
ATOM      3  C   UNL     1       9.290  -1.975  22.703  0.00  0.00    +0.191 C 
BRANCH   3   4
ATOM      4  N   UNL     1      10.123  -2.644  23.644  0.00  0.00    -0.303 NA
ATOM      5  H   UNL     1      10.816  -3.316  23.323  0.00  0.00    +0.121 HD
ATOM      6  H   UNL     1       9.864  -2.779  24.616  0.00  0.00    +0.121 HD
ENDBRANCH   3   4
BRANCH   3   7
ATOM      7  N   UNL     1      10.116  -1.525  21.636  0.00  0.00    -0.303 NA
ATOM      8  H   UNL     1      11.123  -1.446  21.729  0.00  0.00    +0.121 HD
ATOM      9  H   UNL     1       9.722  -1.079  20.814  0.00  0.00    +0.121 HD
ENDBRANCH   3   7
ENDBRANCH   2   3
BRANCH   2  10
ATOM     10  C   UNL     1       9.212   0.489  23.197  0.00  0.00    +0.207 C 
BRANCH  10  11
ATOM     11  C   UNL     1       9.879   0.924  24.475  0.00  0.00    +0.319 C 
ATOM     12  O   UNL     1      10.801   0.313  24.999  0.00  0.00    -0.250 OA
BRANCH  11  13
ATOM     13  O   UNL     1       9.357   2.048  25.012  0.00  0.00    -0.480 OA
ATOM     14  H   UNL     1       9.238   2.822  24.426  0.00  0.00    +0.295 HD
ENDBRANCH  11  13
ENDBRANCH  10  11
ENDBRANCH   2  10
TORSDOF 6
ENDMDL
MODEL 9
REMARK VINA RESULT:      -3.3      2.705      3.063
REMARK  Name = 
REMARK  7 active torsions:
REMARK  status: ('A' for Active; 'I' for Inactive)
REMARK    1  A    between atoms: C_1  and  N_2
REMARK    2  A    between atoms: N_2  and  C_3
REMARK    3  A    between atoms: N_2  and  C_7
REMARK    4  A    between atoms: C_3  and  C_4
REMARK    5  A    between atoms: C_4  and  O_5
REMARK    6  A    between atoms: C_7  and  N_8
REMARK    7  A    between atoms: C_7  and  N_9
REMARK                            x       y       z     vdW  Elec       q    Type
REMARK                         _______ _______ _______ _____ _____    ______ ____
ROOT
ATOM      1  C   UNL     1      10.137  -0.368  24.355  0.00  0.00    +0.108 C 
ATOM      2  N   UNL     1       9.416   0.482  23.392  0.00  0.00    -0.268 NA
ENDROOT
BRANCH   2   3
ATOM      3  C   UNL     1       9.930   0.704  22.066  0.00  0.00    +0.191 C 
BRANCH   3   4
ATOM      4  N   UNL     1       9.553   1.955  21.502  0.00  0.00    -0.303 NA
ATOM      5  H   UNL     1       8.598   2.291  21.603  0.00  0.00    +0.121 HD
ATOM      6  H   UNL     1      10.041   2.381  20.721  0.00  0.00    +0.121 HD
ENDBRANCH   3   4
BRANCH   3   7
ATOM      7  N   UNL     1       9.449  -0.322  21.206  0.00  0.00    -0.303 NA
ATOM      8  H   UNL     1       9.656  -1.302  21.366  0.00  0.00    +0.121 HD
ATOM      9  H   UNL     1       9.053  -0.108  20.296  0.00  0.00    +0.121 HD
ENDBRANCH   3   7
ENDBRANCH   2   3
BRANCH   2  10
ATOM     10  C   UNL     1       8.308   1.340  23.879  0.00  0.00    +0.207 C 
BRANCH  10  11
ATOM     11  C   UNL     1       6.927   0.809  23.598  0.00  0.00    +0.319 C 
ATOM     12  O   UNL     1       6.206   0.312  24.452  0.00  0.00    -0.250 OA
BRANCH  11  13
ATOM     13  O   UNL     1       6.553   0.912  22.304  0.00  0.00    -0.480 OA
ATOM     14  H   UNL     1       5.631   0.679  22.074  0.00  0.00    +0.295 HD
ENDBRANCH  11  13
ENDBRANCH  10  11
ENDBRANCH   2  10
TORSDOF 6
ENDMDL
