MODEL 1
REMARK VINA RESULT:      -5.0      0.000      0.000
REMARK  Name = 
REMARK  33 active torsions:
REMARK  status: ('A' for Active; 'I' for Inactive)
REMARK    1  A    between atoms: O_1  and  C_2
REMARK    2  A    between atoms: C_2  and  C_4
REMARK    3  A    between atoms: C_4  and  C_5
REMARK    4  A    between atoms: C_5  and  C_6
REMARK    5  A    between atoms: C_13  and  C_14
REMARK    6  A    between atoms: C_19  and  C_21
REMARK    7  A    between atoms: C_21  and  C_22
REMARK    8  A    between atoms: C_22  and  O_23
REMARK    9  A    between atoms: C_25  and  C_26
REMARK   10  A    between atoms: C_25  and  C_27
REMARK   11  A    between atoms: C_27  and  C_28
REMARK   12  A    between atoms: C_28  and  C_29
REMARK   13  A    between atoms: C_29  and  O_30
REMARK   14  A    between atoms: C_32  and  C_33
REMARK   15  A    between atoms: C_36  and  C_37
REMARK   16  A    between atoms: C_40  and  C_41
REMARK   17  A    between atoms: C_40  and  C_42
REMARK   18  A    between atoms: C_42  and  C_43
REMARK   19  A    between atoms: C_43  and  O_44
REMARK   20  A    between atoms: C_46  and  C_48
REMARK   21  A    between atoms: C_48  and  C_49
REMARK   22  A    between atoms: C_49  and  C_50
REMARK   23  A    between atoms: C_50  and  O_51
REMARK   24  A    between atoms: C_53  and  C_54
REMARK   25  A    between atoms: C_53  and  C_55
REMARK   26  A    between atoms: C_55  and  C_56
REMARK   27  A    between atoms: C_56  and  O_57
REMARK   28  A    between atoms: C_59  and  C_61
REMARK   29  A    between atoms: C_61  and  C_62
REMARK   30  A    between atoms: C_62  and  C_63
REMARK   31  A    between atoms: C_63  and  O_64
REMARK   32  A    between atoms: C_66  and  C_67
REMARK   33  A    between atoms: C_66  and  C_68
REMARK                            x       y       z     vdW  Elec       q    Type
REMARK                         _______ _______ _______ _____ _____    ______ ____
ROOT
ATOM      1  C   UNL     1       6.721  -3.047  25.417  0.00  0.00    +0.051 C 
ATOM      2  C   UNL     1       8.282  -2.876  25.245  0.00  0.00    +0.029 C 
ATOM      3  C   UNL     1       8.483  -3.978  24.132  0.00  0.00    +0.019 C 
ATOM      4  C   UNL     1       8.154  -1.046  25.700  0.00  0.00    +0.053 C 
ATOM      5  N   UNL     1       7.347  -1.102  26.748  0.00  0.00    -0.255 NA
ATOM      6  C   UNL     1       8.614   0.594  24.851  0.00  0.00    -0.012 C 
ATOM      7  C   UNL     1       9.351  -0.193  23.716  0.00  0.00    +0.047 C 
ATOM      8  C   UNL     1       8.743   2.224  24.694  0.00  0.00    +0.013 C 
ATOM      9  C   UNL     1       8.783   4.125  25.201  0.00  0.00    +0.042 C 
ATOM     10  C   UNL     1       7.427   4.975  24.368  0.00  0.00    +0.009 C 
ATOM     11  C   UNL     1       6.840   5.414  25.847  0.00  0.00    +0.014 C 
ATOM     12  C   UNL     1       7.455   3.927  23.200  0.00  0.00    +0.058 C 
ATOM     13  C   UNL     1       8.617   4.355  22.207  0.00  0.00    +0.034 C 
ATOM     14  C   UNL     1       5.954   3.696  22.708  0.00  0.00    +0.133 C 
ATOM     15  C   UNL     1       4.838   3.974  23.767  0.00  0.00    +0.038 C 
ATOM     16  C   UNL     1       4.859   2.724  24.698  0.00  0.00    +0.016 C 
ATOM     17  C   UNL     1       3.351   2.188  24.722  0.00  0.00    +0.018 C 
ATOM     18  C   UNL     1       5.425   1.799  23.738  0.00  0.00    +0.047 C 
ATOM     19  C   UNL     1       5.395   0.419  24.205  0.00  0.00    -0.008 C 
ATOM     20  C   UNL     1       5.854  -0.403  22.989  0.00  0.00    +0.047 C 
ATOM     21  C   UNL     1       4.860   0.148  25.448  0.00  0.00    +0.050 C 
ATOM     22  C   UNL     1       4.203   0.912  26.890  0.00  0.00    +0.050 C 
ATOM     23  C   UNL     1       4.423  -0.258  27.918  0.00  0.00    +0.016 C 
ATOM     24  C   UNL     1       3.082  -0.571  28.576  0.00  0.00    +0.018 C 
ATOM     25  C   UNL     1       5.480  -0.118  29.039  0.00  0.00    +0.018 C 
ATOM     26  C   UNL     1       4.729  -1.374  26.948  0.00  0.00    +0.050 C 
ATOM     27  C   UNL     1       5.419  -2.596  27.383  0.00  0.00    +0.047 C 
ATOM     28  N   UNL     1       4.601  -1.174  25.675  0.00  0.00    -0.255 NA
ATOM     29  N   UNL     1       5.783   2.258  22.530  0.00  0.00    -0.282 NA
ATOM     30  N   UNL     1       8.049   2.570  23.522  0.00  0.00    -0.339 N 
ATOM     31  H   UNL     1       7.744   1.840  22.879  0.00  0.00    +0.146 HD
ATOM     32  C   UNL     1       6.607  -2.386  26.767  0.00  0.00    +0.047 C 
ENDROOT
BRANCH  16  33
ATOM     33  C   UNL     1       6.061   2.805  26.007  0.00  0.00    +0.024 C 
BRANCH  33  34
ATOM     34  C   UNL     1       6.520   3.504  27.377  0.00  0.00    +0.121 C 
BRANCH  34  35
ATOM     35  C   UNL     1       7.250   2.674  28.481  0.00  0.00    +0.305 C 
ATOM     36  O   UNL     1       7.381   2.968  29.655  0.00  0.00    -0.251 OA
BRANCH  35  37
ATOM     37  O   UNL     1       7.761   1.499  28.037  0.00  0.00    -0.481 OA
ATOM     38  H   UNL     1       7.546   0.704  28.560  0.00  0.00    +0.295 HD
ENDBRANCH  35  37
ENDBRANCH  34  35
ENDBRANCH  33  34
ENDBRANCH  16  33
BRANCH  10  39
ATOM     39  C   UNL     1       6.635   6.472  23.759  0.00  0.00    +0.129 C 
BRANCH  39  40
ATOM     40  C   UNL     1       6.039   6.932  22.422  0.00  0.00    +0.305 C 
ATOM     41  O   UNL     1       4.855   7.104  22.161  0.00  0.00    -0.251 OA
BRANCH  40  42
ATOM     42  O   UNL     1       6.971   7.101  21.393  0.00  0.00    -0.481 OA
ATOM     43  H   UNL     1       7.152   7.989  20.999  0.00  0.00    +0.295 HD
ENDBRANCH  40  42
ENDBRANCH  39  40
ENDBRANCH  10  39
BRANCH  22  44
ATOM     44  C   UNL     1       4.076   2.416  27.749  0.00  0.00    +0.022 C 
BRANCH  44  45
ATOM     45  C   UNL     1       2.784   3.001  28.448  0.00  0.00    +0.121 C 
BRANCH  45  46
ATOM     46  C   UNL     1       1.876   4.093  27.885  0.00  0.00    +0.305 C 
ATOM     47  O   UNL     1       1.148   3.863  26.920  0.00  0.00    -0.251 OA
BRANCH  46  48
ATOM     48  O   UNL     1       1.973   5.325  28.387  0.00  0.00    -0.481 OA
ATOM     49  H   UNL     1       1.239   5.937  28.217  0.00  0.00    +0.295 HD
ENDBRANCH  46  48
ENDBRANCH  45  46
ENDBRANCH  44  45
ENDBRANCH  22  44
BRANCH  15  50
ATOM     50  C   UNL     1       3.480   4.539  23.239  0.00  0.00    +0.127 C 
BRANCH  50  51
ATOM     51  C   UNL     1       2.896   4.305  21.863  0.00  0.00    +0.305 C 
ATOM     52  O   UNL     1       2.324   3.263  21.566  0.00  0.00    -0.251 OA
BRANCH  51  53
ATOM     53  O   UNL     1       3.099   5.297  20.977  0.00  0.00    -0.481 OA
ATOM     54  H   UNL     1       4.029   5.414  20.693  0.00  0.00    +0.295 HD
ENDBRANCH  51  53
ENDBRANCH  50  51
ENDBRANCH  15  50
BRANCH   2  55
ATOM     55  C   UNL     1       9.178  -3.570  26.390  0.00  0.00    +0.134 C 
BRANCH  55  56
ATOM     56  C   UNL     1       9.203  -5.066  26.610  0.00  0.00    +0.306 C 
ATOM     57  O   UNL     1       8.327  -5.739  27.174  0.00  0.00    -0.251 OA
BRANCH  56  58
ATOM     58  O   UNL     1      10.275  -5.675  26.017  0.00  0.00    -0.481 OA
ATOM     59  H   UNL     1       9.994  -6.205  25.254  0.00  0.00    +0.295 HD
ENDBRANCH  56  58
ENDBRANCH  55  56
ENDBRANCH   2  55
BRANCH   1  60
ATOM     60  C   UNL     1       5.613  -3.881  24.537  0.00  0.00    +0.022 C 
BRANCH  60  61
ATOM     61  C   UNL     1       5.165  -5.361  24.620  0.00  0.00    +0.121 C 
BRANCH  61  62
ATOM     62  C   UNL     1       4.694  -5.829  23.211  0.00  0.00    +0.305 C 
ATOM     63  O   UNL     1       3.521  -5.947  22.861  0.00  0.00    -0.251 OA
BRANCH  62  64
ATOM     64  O   UNL     1       5.708  -6.201  22.403  0.00  0.00    -0.481 OA
ATOM     65  H   UNL     1       5.975  -5.562  21.726  0.00  0.00    +0.295 HD
ENDBRANCH  62  64
ENDBRANCH  61  62
ENDBRANCH  60  61
ENDBRANCH   1  60
BRANCH   9  66
ATOM     66  C   UNL     1       9.639   5.741  25.069  0.00  0.00    +0.021 C 
BRANCH  66  67
ATOM     67  C   UNL     1      10.695   6.197  23.958  0.00  0.00    +0.121 C 
BRANCH  67  68
ATOM     68  C   UNL     1      11.955   5.319  23.835  0.00  0.00    +0.305 C 
ATOM     69  O   UNL     1      11.963   4.186  23.377  0.00  0.00    -0.251 OA
BRANCH  68  70
ATOM     70  O   UNL     1      13.064   5.929  24.242  0.00  0.00    -0.481 OA
ATOM     71  H   UNL     1      13.118   6.856  23.935  0.00  0.00    +0.295 HD
ENDBRANCH  68  70
ENDBRANCH  67  68
ENDBRANCH  66  67
ENDBRANCH   9  66
TORSDOF 25
ENDMDL
MODEL 2
REMARK VINA RESULT:      -4.5      2.493      6.745
REMARK  Name = 
REMARK  33 active torsions:
REMARK  status: ('A' for Active; 'I' for Inactive)
REMARK    1  A    between atoms: O_1  and  C_2
REMARK    2  A    between atoms: C_2  and  C_4
REMARK    3  A    between atoms: C_4  and  C_5
REMARK    4  A    between atoms: C_5  and  C_6
REMARK    5  A    between atoms: C_13  and  C_14
REMARK    6  A    between atoms: C_19  and  C_21
REMARK    7  A    between atoms: C_21  and  C_22
REMARK    8  A    between atoms: C_22  and  O_23
REMARK    9  A    between atoms: C_25  and  C_26
REMARK   10  A    between atoms: C_25  and  C_27
REMARK   11  A    between atoms: C_27  and  C_28
REMARK   12  A    between atoms: C_28  and  C_29
REMARK   13  A    between atoms: C_29  and  O_30
REMARK   14  A    between atoms: C_32  and  C_33
REMARK   15  A    between atoms: C_36  and  C_37
REMARK   16  A    between atoms: C_40  and  C_41
REMARK   17  A    between atoms: C_40  and  C_42
REMARK   18  A    between atoms: C_42  and  C_43
REMARK   19  A    between atoms: C_43  and  O_44
REMARK   20  A    between atoms: C_46  and  C_48
REMARK   21  A    between atoms: C_48  and  C_49
REMARK   22  A    between atoms: C_49  and  C_50
REMARK   23  A    between atoms: C_50  and  O_51
REMARK   24  A    between atoms: C_53  and  C_54
REMARK   25  A    between atoms: C_53  and  C_55
REMARK   26  A    between atoms: C_55  and  C_56
REMARK   27  A    between atoms: C_56  and  O_57
REMARK   28  A    between atoms: C_59  and  C_61
REMARK   29  A    between atoms: C_61  and  C_62
REMARK   30  A    between atoms: C_62  and  C_63
REMARK   31  A    between atoms: C_63  and  O_64
REMARK   32  A    between atoms: C_66  and  C_67
REMARK   33  A    between atoms: C_66  and  C_68
REMARK                            x       y       z     vdW  Elec       q    Type
REMARK                         _______ _______ _______ _____ _____    ______ ____
ROOT
ATOM      1  C   UNL     1       4.781  -3.939  26.780  0.00  0.00    +0.051 C 
ATOM      2  C   UNL     1       3.231  -3.959  26.471  0.00  0.00    +0.029 C 
ATOM      3  C   UNL     1       2.840  -5.103  27.486  0.00  0.00    +0.019 C 
ATOM      4  C   UNL     1       3.268  -2.117  26.050  0.00  0.00    +0.053 C 
ATOM      5  N   UNL     1       4.353  -2.052  25.295  0.00  0.00    -0.255 NA
ATOM      6  C   UNL     1       2.379  -0.564  26.698  0.00  0.00    -0.012 C 
ATOM      7  C   UNL     1       1.435  -1.460  27.569  0.00  0.00    +0.047 C 
ATOM      8  C   UNL     1       2.013   1.034  26.787  0.00  0.00    +0.013 C 
ATOM      9  C   UNL     1       1.897   2.928  26.266  0.00  0.00    +0.042 C 
ATOM     10  C   UNL     1       2.826   3.915  27.457  0.00  0.00    +0.009 C 
ATOM     11  C   UNL     1       3.774   4.455  26.218  0.00  0.00    +0.014 C 
ATOM     12  C   UNL     1       2.575   2.844  28.576  0.00  0.00    +0.058 C 
ATOM     13  C   UNL     1       1.126   3.106  29.167  0.00  0.00    +0.034 C 
ATOM     14  C   UNL     1       3.875   2.782  29.501  0.00  0.00    +0.133 C 
ATOM     15  C   UNL     1       5.216   3.216  28.823  0.00  0.00    +0.038 C 
ATOM     16  C   UNL     1       5.628   1.995  27.947  0.00  0.00    +0.016 C 
ATOM     17  C   UNL     1       7.126   1.643  28.386  0.00  0.00    +0.018 C 
ATOM     18  C   UNL     1       4.915   0.986  28.705  0.00  0.00    +0.047 C 
ATOM     19  C   UNL     1       5.251  -0.369  28.287  0.00  0.00    -0.008 C 
ATOM     20  C   UNL     1       4.550  -1.267  29.319  0.00  0.00    +0.047 C 
ATOM     21  C   UNL     1       6.164  -0.544  27.266  0.00  0.00    +0.050 C 
ATOM     22  C   UNL     1       7.126   0.326  26.080  0.00  0.00    +0.050 C 
ATOM     23  C   UNL     1       7.368  -0.837  25.049  0.00  0.00    +0.016 C 
ATOM     24  C   UNL     1       8.873  -0.972  24.830  0.00  0.00    +0.018 C 
ATOM     25  C   UNL     1       6.689  -0.798  23.659  0.00  0.00    +0.018 C 
ATOM     26  C   UNL     1       6.923  -2.004  25.897  0.00  0.00    +0.050 C 
ATOM     27  C   UNL     1       6.548  -3.289  25.291  0.00  0.00    +0.047 C 
ATOM     28  N   UNL     1       6.637  -1.820  27.147  0.00  0.00    -0.255 NA
ATOM     29  N   UNL     1       4.157   1.371  29.742  0.00  0.00    -0.282 NA
ATOM     30  N   UNL     1       2.274   1.433  28.109  0.00  0.00    -0.339 N 
ATOM     31  H   UNL     1       2.458   0.730  28.824  0.00  0.00    +0.146 HD
ATOM     32  C   UNL     1       5.214  -3.237  25.518  0.00  0.00    +0.047 C 
ENDROOT
BRANCH  16  33
ATOM     33  C   UNL     1       4.874   1.962  26.335  0.00  0.00    +0.024 C 
BRANCH  33  34
ATOM     34  C   UNL     1       5.058   1.691  24.764  0.00  0.00    +0.121 C 
BRANCH  34  35
ATOM     35  C   UNL     1       4.657   2.784  23.723  0.00  0.00    +0.305 C 
ATOM     36  O   UNL     1       5.348   3.700  23.316  0.00  0.00    -0.251 OA
BRANCH  35  37
ATOM     37  O   UNL     1       3.400   2.642  23.234  0.00  0.00    -0.481 OA
ATOM     38  H   UNL     1       2.696   3.143  23.687  0.00  0.00    +0.295 HD
ENDBRANCH  35  37
ENDBRANCH  34  35
ENDBRANCH  33  34
ENDBRANCH  16  33
BRANCH  10  39
ATOM     39  C   UNL     1       3.212   5.481  28.256  0.00  0.00    +0.129 C 
BRANCH  39  40
ATOM     40  C   UNL     1       2.417   6.546  29.023  0.00  0.00    +0.305 C 
ATOM     41  O   UNL     1       1.326   7.013  28.721  0.00  0.00    -0.251 OA
BRANCH  40  42
ATOM     42  O   UNL     1       3.066   7.064  30.148  0.00  0.00    -0.481 OA
ATOM     43  H   UNL     1       3.360   6.481  30.890  0.00  0.00    +0.295 HD
ENDBRANCH  40  42
ENDBRANCH  39  40
ENDBRANCH  10  39
BRANCH  22  44
ATOM     44  C   UNL     1       7.322   1.854  25.278  0.00  0.00    +0.022 C 
BRANCH  44  45
ATOM     45  C   UNL     1       8.686   2.599  24.979  0.00  0.00    +0.121 C 
BRANCH  45  46
ATOM     46  C   UNL     1       8.973   3.495  23.775  0.00  0.00    +0.305 C 
ATOM     47  O   UNL     1       9.808   4.395  23.853  0.00  0.00    -0.251 OA
BRANCH  46  48
ATOM     48  O   UNL     1       8.222   3.354  22.683  0.00  0.00    -0.481 OA
ATOM     49  H   UNL     1       8.611   2.877  21.931  0.00  0.00    +0.295 HD
ENDBRANCH  46  48
ENDBRANCH  45  46
ENDBRANCH  44  45
ENDBRANCH  22  44
BRANCH  15  50
ATOM     50  C   UNL     1       6.273   3.927  29.728  0.00  0.00    +0.127 C 
BRANCH  50  51
ATOM     51  C   UNL     1       7.059   5.169  29.369  0.00  0.00    +0.305 C 
ATOM     52  O   UNL     1       7.969   5.592  30.072  0.00  0.00    -0.251 OA
BRANCH  51  53
ATOM     53  O   UNL     1       6.650   5.805  28.255  0.00  0.00    -0.481 OA
ATOM     54  H   UNL     1       5.785   5.507  27.904  0.00  0.00    +0.295 HD
ENDBRANCH  51  53
ENDBRANCH  50  51
ENDBRANCH  15  50
BRANCH   2  55
ATOM     55  C   UNL     1       2.811  -4.729  25.119  0.00  0.00    +0.134 C 
BRANCH  55  56
ATOM     56  C   UNL     1       3.698  -5.761  24.460  0.00  0.00    +0.306 C 
ATOM     57  O   UNL     1       4.134  -6.797  24.986  0.00  0.00    -0.251 OA
BRANCH  56  58
ATOM     58  O   UNL     1       3.914  -5.509  23.132  0.00  0.00    -0.481 OA
ATOM     59  H   UNL     1       3.290  -6.007  22.580  0.00  0.00    +0.295 HD
ENDBRANCH  56  58
ENDBRANCH  55  56
ENDBRANCH   2  55
BRANCH   1  60
ATOM     60  C   UNL     1       5.665  -4.655  27.964  0.00  0.00    +0.022 C 
BRANCH  60  61
ATOM     61  C   UNL     1       6.786  -5.719  27.882  0.00  0.00    +0.121 C 
BRANCH  61  62
ATOM     62  C   UNL     1       6.357  -6.973  28.699  0.00  0.00    +0.305 C 
ATOM     63  O   UNL     1       7.012  -7.483  29.607  0.00  0.00    -0.251 OA
BRANCH  62  64
ATOM     64  O   UNL     1       5.215  -7.537  28.256  0.00  0.00    -0.481 OA
ATOM     65  H   UNL     1       5.306  -8.191  27.546  0.00  0.00    +0.295 HD
ENDBRANCH  62  64
ENDBRANCH  61  62
ENDBRANCH  60  61
ENDBRANCH   1  60
BRANCH   9  66
ATOM     66  C   UNL     1       0.852   4.427  26.112  0.00  0.00    +0.021 C 
BRANCH  66  67
ATOM     67  C   UNL     1       0.729   5.405  24.853  0.00  0.00    +0.121 C 
BRANCH  67  68
ATOM     68  C   UNL     1       0.538   4.717  23.488  0.00  0.00    +0.305 C 
ATOM     69  O   UNL     1       0.443   3.507  23.334  0.00  0.00    -0.251 OA
BRANCH  68  70
ATOM     70  O   UNL     1       0.443   5.572  22.475  0.00  0.00    -0.481 OA
ATOM     71  H   UNL     1       0.905   6.416  22.651  0.00  0.00    +0.295 HD
ENDBRANCH  68  70
ENDBRANCH  67  68
ENDBRANCH  66  67
ENDBRANCH   9  66
TORSDOF 25
ENDMDL
MODEL 3
REMARK VINA RESULT:      -4.4      3.192      9.581
REMARK  Name = 
REMARK  33 active torsions:
REMARK  status: ('A' for Active; 'I' for Inactive)
REMARK    1  A    between atoms: O_1  and  C_2
REMARK    2  A    between atoms: C_2  and  C_4
REMARK    3  A    between atoms: C_4  and  C_5
REMARK    4  A    between atoms: C_5  and  C_6
REMARK    5  A    between atoms: C_13  and  C_14
REMARK    6  A    between atoms: C_19  and  C_21
REMARK    7  A    between atoms: C_21  and  C_22
REMARK    8  A    between atoms: C_22  and  O_23
REMARK    9  A    between atoms: C_25  and  C_26
REMARK   10  A    between atoms: C_25  and  C_27
REMARK   11  A    between atoms: C_27  and  C_28
REMARK   12  A    between atoms: C_28  and  C_29
REMARK   13  A    between atoms: C_29  and  O_30
REMARK   14  A    between atoms: C_32  and  C_33
REMARK   15  A    between atoms: C_36  and  C_37
REMARK   16  A    between atoms: C_40  and  C_41
REMARK   17  A    between atoms: C_40  and  C_42
REMARK   18  A    between atoms: C_42  and  C_43
REMARK   19  A    between atoms: C_43  and  O_44
REMARK   20  A    between atoms: C_46  and  C_48
REMARK   21  A    between atoms: C_48  and  C_49
REMARK   22  A    between atoms: C_49  and  C_50
REMARK   23  A    between atoms: C_50  and  O_51
REMARK   24  A    between atoms: C_53  and  C_54
REMARK   25  A    between atoms: C_53  and  C_55
REMARK   26  A    between atoms: C_55  and  C_56
REMARK   27  A    between atoms: C_56  and  O_57
REMARK   28  A    between atoms: C_59  and  C_61
REMARK   29  A    between atoms: C_61  and  C_62
REMARK   30  A    between atoms: C_62  and  C_63
REMARK   31  A    between atoms: C_63  and  O_64
REMARK   32  A    between atoms: C_66  and  C_67
REMARK   33  A    between atoms: C_66  and  C_68
REMARK                            x       y       z     vdW  Elec       q    Type
REMARK                         _______ _______ _______ _____ _____    ______ ____
ROOT
ATOM      1  C   UNL     1       8.467  -0.150  24.064  0.00  0.00    +0.051 C 
ATOM      2  C   UNL     1       8.116  -0.683  22.618  0.00  0.00    +0.029 C 
ATOM      3  C   UNL     1       9.592  -1.015  22.166  0.00  0.00    +0.019 C 
ATOM      4  C   UNL     1       6.437  -1.300  23.228  0.00  0.00    +0.053 C 
ATOM      5  N   UNL     1       6.033  -0.264  23.947  0.00  0.00    -0.255 NA
ATOM      6  C   UNL     1       5.549  -2.983  23.271  0.00  0.00    -0.012 C 
ATOM      7  C   UNL     1       6.681  -3.610  22.390  0.00  0.00    +0.047 C 
ATOM      8  C   UNL     1       4.333  -4.035  23.602  0.00  0.00    +0.013 C 
ATOM      9  C   UNL     1       2.533  -4.681  24.067  0.00  0.00    +0.042 C 
ATOM     10  C   UNL     1       2.624  -5.568  25.636  0.00  0.00    +0.009 C 
ATOM     11  C   UNL     1       1.535  -4.498  26.264  0.00  0.00    +0.014 C 
ATOM     12  C   UNL     1       4.124  -5.942  25.366  0.00  0.00    +0.058 C 
ATOM     13  C   UNL     1       4.132  -7.206  24.406  0.00  0.00    +0.034 C 
ATOM     14  C   UNL     1       4.896  -5.927  26.763  0.00  0.00    +0.133 C 
ATOM     15  C   UNL     1       4.285  -5.007  27.871  0.00  0.00    +0.038 C 
ATOM     16  C   UNL     1       4.722  -3.565  27.470  0.00  0.00    +0.016 C 
ATOM     17  C   UNL     1       5.434  -2.962  28.770  0.00  0.00    +0.018 C 
ATOM     18  C   UNL     1       5.895  -3.942  26.709  0.00  0.00    +0.047 C 
ATOM     19  C   UNL     1       6.714  -2.795  26.339  0.00  0.00    -0.008 C 
ATOM     20  C   UNL     1       7.977  -3.415  25.719  0.00  0.00    +0.047 C 
ATOM     21  C   UNL     1       6.310  -1.534  26.731  0.00  0.00    +0.050 C 
ATOM     22  C   UNL     1       5.001  -0.661  27.515  0.00  0.00    +0.050 C 
ATOM     23  C   UNL     1       5.278   0.777  26.942  0.00  0.00    +0.016 C 
ATOM     24  C   UNL     1       5.411   1.741  28.119  0.00  0.00    +0.018 C 
ATOM     25  C   UNL     1       4.299   1.408  25.923  0.00  0.00    +0.018 C 
ATOM     26  C   UNL     1       6.659   0.549  26.379  0.00  0.00    +0.050 C 
ATOM     27  C   UNL     1       7.228   1.444  25.362  0.00  0.00    +0.047 C 
ATOM     28  N   UNL     1       7.270  -0.571  26.607  0.00  0.00    -0.255 NA
ATOM     29  N   UNL     1       6.166  -5.244  26.538  0.00  0.00    -0.282 NA
ATOM     30  N   UNL     1       4.885  -5.045  24.409  0.00  0.00    -0.339 N 
ATOM     31  H   UNL     1       5.895  -5.105  24.526  0.00  0.00    +0.146 HD
ATOM     32  C   UNL     1       7.182   0.601  24.304  0.00  0.00    +0.047 C 
ENDROOT
BRANCH  16  33
ATOM     33  C   UNL     1       3.651  -2.778  26.286  0.00  0.00    +0.024 C 
BRANCH  33  34
ATOM     34  C   UNL     1       2.148  -2.524  25.786  0.00  0.00    +0.121 C 
BRANCH  34  35
ATOM     35  C   UNL     1       1.229  -1.505  26.532  0.00  0.00    +0.305 C 
ATOM     36  O   UNL     1       1.106  -0.316  26.296  0.00  0.00    -0.251 OA
BRANCH  35  37
ATOM     37  O   UNL     1       0.496  -2.054  27.532  0.00  0.00    -0.481 OA
ATOM     38  H   UNL     1       0.867  -2.848  27.960  0.00  0.00    +0.295 HD
ENDBRANCH  35  37
ENDBRANCH  34  35
ENDBRANCH  33  34
ENDBRANCH  16  33
BRANCH  10  39
ATOM     39  C   UNL     1       1.961  -6.737  26.833  0.00  0.00    +0.129 C 
BRANCH  39  40
ATOM     40  C   UNL     1       1.189  -8.061  26.761  0.00  0.00    +0.305 C 
ATOM     41  O   UNL     1       0.630  -8.538  25.782  0.00  0.00    -0.251 OA
BRANCH  40  42
ATOM     42  O   UNL     1       1.077  -8.740  27.979  0.00  0.00    -0.481 OA
ATOM     43  H   UNL     1       0.441  -8.449  28.677  0.00  0.00    +0.295 HD
ENDBRANCH  40  42
ENDBRANCH  39  40
ENDBRANCH  10  39
BRANCH  22  44
ATOM     44  C   UNL     1       3.343  -0.770  28.018  0.00  0.00    +0.022 C 
BRANCH  44  45
ATOM     45  C   UNL     1       2.759  -0.411  29.444  0.00  0.00    +0.121 C 
BRANCH  45  46
ATOM     46  C   UNL     1       1.668   0.619  29.733  0.00  0.00    +0.305 C 
ATOM     47  O   UNL     1       1.890   1.570  30.481  0.00  0.00    -0.251 OA
BRANCH  46  48
ATOM     48  O   UNL     1       0.444   0.402  29.251  0.00  0.00    -0.481 OA
ATOM     49  H   UNL     1      -0.067  -0.328  29.637  0.00  0.00    +0.295 HD
ENDBRANCH  46  48
ENDBRANCH  45  46
ENDBRANCH  44  45
ENDBRANCH  22  44
BRANCH  15  50
ATOM     50  C   UNL     1       4.423  -5.488  29.351  0.00  0.00    +0.127 C 
BRANCH  50  51
ATOM     51  C   UNL     1       4.697  -6.907  29.802  0.00  0.00    +0.305 C 
ATOM     52  O   UNL     1       5.824  -7.293  30.091  0.00  0.00    -0.251 OA
BRANCH  51  53
ATOM     53  O   UNL     1       3.628  -7.724  29.809  0.00  0.00    -0.481 OA
ATOM     54  H   UNL     1       2.880  -7.431  29.247  0.00  0.00    +0.295 HD
ENDBRANCH  51  53
ENDBRANCH  50  51
ENDBRANCH  15  50
BRANCH   2  55
ATOM     55  C   UNL     1       7.814   0.458  21.522  0.00  0.00    +0.134 C 
BRANCH  55  56
ATOM     56  C   UNL     1       8.339   1.871  21.650  0.00  0.00    +0.306 C 
ATOM     57  O   UNL     1       7.753   2.825  22.184  0.00  0.00    -0.251 OA
BRANCH  56  58
ATOM     58  O   UNL     1       9.623   2.005  21.199  0.00  0.00    -0.481 OA
ATOM     59  H   UNL     1      10.246   2.066  21.941  0.00  0.00    +0.295 HD
ENDBRANCH  56  58
ENDBRANCH  55  56
ENDBRANCH   2  55
BRANCH   1  60
ATOM     60  C   UNL     1       9.860  -0.192  24.933  0.00  0.00    +0.022 C 
BRANCH  60  61
ATOM     61  C   UNL     1      11.088   0.751  24.917  0.00  0.00    +0.121 C 
BRANCH  61  62
ATOM     62  C   UNL     1      10.693   2.085  24.217  0.00  0.00    +0.305 C 
ATOM     63  O   UNL     1      11.286   2.584  23.261  0.00  0.00    -0.251 OA
BRANCH  62  64
ATOM     64  O   UNL     1       9.672   2.727  24.822  0.00  0.00    -0.481 OA
ATOM     65  H   UNL     1       8.784   2.529  24.489  0.00  0.00    +0.295 HD
ENDBRANCH  62  64
ENDBRANCH  61  62
ENDBRANCH  60  61
ENDBRANCH   1  60
BRANCH   9  66
ATOM     66  C   UNL     1       1.166  -5.845  23.695  0.00  0.00    +0.021 C 
BRANCH  66  67
ATOM     67  C   UNL     1       0.709  -6.386  22.262  0.00  0.00    +0.121 C 
BRANCH  67  68
ATOM     68  C   UNL     1       1.010  -7.870  21.981  0.00  0.00    +0.305 C 
ATOM     69  O   UNL     1       1.067  -8.362  20.862  0.00  0.00    -0.251 OA
BRANCH  68  70
ATOM     70  O   UNL     1       1.246  -8.578  23.081  0.00  0.00    -0.481 OA
ATOM     71  H   UNL     1       1.838  -8.114  23.706  0.00  0.00    +0.295 HD
ENDBRANCH  68  70
ENDBRANCH  67  68
ENDBRANCH  66  67
ENDBRANCH   9  66
TORSDOF 25
ENDMDL
MODEL 4
REMARK VINA RESULT:      -3.4      1.653      2.175
REMARK  Name = 
REMARK  33 active torsions:
REMARK  status: ('A' for Active; 'I' for Inactive)
REMARK    1  A    between atoms: O_1  and  C_2
REMARK    2  A    between atoms: C_2  and  C_4
REMARK    3  A    between atoms: C_4  and  C_5
REMARK    4  A    between atoms: C_5  and  C_6
REMARK    5  A    between atoms: C_13  and  C_14
REMARK    6  A    between atoms: C_19  and  C_21
REMARK    7  A    between atoms: C_21  and  C_22
REMARK    8  A    between atoms: C_22  and  O_23
REMARK    9  A    between atoms: C_25  and  C_26
REMARK   10  A    between atoms: C_25  and  C_27
REMARK   11  A    between atoms: C_27  and  C_28
REMARK   12  A    between atoms: C_28  and  C_29
REMARK   13  A    between atoms: C_29  and  O_30
REMARK   14  A    between atoms: C_32  and  C_33
REMARK   15  A    between atoms: C_36  and  C_37
REMARK   16  A    between atoms: C_40  and  C_41
REMARK   17  A    between atoms: C_40  and  C_42
REMARK   18  A    between atoms: C_42  and  C_43
REMARK   19  A    between atoms: C_43  and  O_44
REMARK   20  A    between atoms: C_46  and  C_48
REMARK   21  A    between atoms: C_48  and  C_49
REMARK   22  A    between atoms: C_49  and  C_50
REMARK   23  A    between atoms: C_50  and  O_51
REMARK   24  A    between atoms: C_53  and  C_54
REMARK   25  A    between atoms: C_53  and  C_55
REMARK   26  A    between atoms: C_55  and  C_56
REMARK   27  A    between atoms: C_56  and  O_57
REMARK   28  A    between atoms: C_59  and  C_61
REMARK   29  A    between atoms: C_61  and  C_62
REMARK   30  A    between atoms: C_62  and  C_63
REMARK   31  A    between atoms: C_63  and  O_64
REMARK   32  A    between atoms: C_66  and  C_67
REMARK   33  A    between atoms: C_66  and  C_68
REMARK                            x       y       z     vdW  Elec       q    Type
REMARK                         _______ _______ _______ _____ _____    ______ ____
ROOT
ATOM      1  C   UNL     1       6.254  -4.547  24.542  0.00  0.00    +0.051 C 
ATOM      2  C   UNL     1       7.792  -4.670  24.198  0.00  0.00    +0.029 C 
ATOM      3  C   UNL     1       7.645  -5.667  22.983  0.00  0.00    +0.019 C 
ATOM      4  C   UNL     1       8.093  -2.908  24.815  0.00  0.00    +0.053 C 
ATOM      5  N   UNL     1       7.402  -2.914  25.944  0.00  0.00    -0.255 NA
ATOM      6  C   UNL     1       8.796  -1.312  24.054  0.00  0.00    -0.012 C 
ATOM      7  C   UNL     1       9.236  -2.105  22.778  0.00  0.00    +0.047 C 
ATOM      8  C   UNL     1       9.244   0.267  24.017  0.00  0.00    +0.013 C 
ATOM      9  C   UNL     1       9.730   2.059  24.670  0.00  0.00    +0.042 C 
ATOM     10  C   UNL     1       8.504   3.243  24.078  0.00  0.00    +0.009 C 
ATOM     11  C   UNL     1       8.172   3.632  25.648  0.00  0.00    +0.014 C 
ATOM     12  C   UNL     1       8.195   2.339  22.834  0.00  0.00    +0.058 C 
ATOM     13  C   UNL     1       9.315   2.631  21.747  0.00  0.00    +0.034 C 
ATOM     14  C   UNL     1       6.637   2.462  22.507  0.00  0.00    +0.133 C 
ATOM     15  C   UNL     1       5.716   2.841  23.712  0.00  0.00    +0.038 C 
ATOM     16  C   UNL     1       5.570   1.521  24.528  0.00  0.00    +0.016 C 
ATOM     17  C   UNL     1       3.994   1.294  24.689  0.00  0.00    +0.018 C 
ATOM     18  C   UNL     1       5.832   0.609  23.434  0.00  0.00    +0.047 C 
ATOM     19  C   UNL     1       5.563  -0.779  23.787  0.00  0.00    -0.008 C 
ATOM     20  C   UNL     1       5.716  -1.543  22.461  0.00  0.00    +0.047 C 
ATOM     21  C   UNL     1       5.111  -1.068  25.059  0.00  0.00    +0.050 C 
ATOM     22  C   UNL     1       4.777  -0.345  26.626  0.00  0.00    +0.050 C 
ATOM     23  C   UNL     1       4.851  -1.637  27.521  0.00  0.00    +0.016 C 
ATOM     24  C   UNL     1       3.547  -1.746  28.307  0.00  0.00    +0.018 C 
ATOM     25  C   UNL     1       6.021  -1.826  28.516  0.00  0.00    +0.018 C 
ATOM     26  C   UNL     1       4.819  -2.683  26.433  0.00  0.00    +0.050 C 
ATOM     27  C   UNL     1       5.280  -4.056  26.680  0.00  0.00    +0.047 C 
ATOM     28  N   UNL     1       4.607  -2.329  25.205  0.00  0.00    -0.255 NA
ATOM     29  N   UNL     1       6.154   1.112  22.234  0.00  0.00    -0.282 NA
ATOM     30  N   UNL     1       8.523   0.865  22.969  0.00  0.00    -0.339 N 
ATOM     31  H   UNL     1       8.009   0.281  22.310  0.00  0.00    +0.146 HD
ATOM     32  C   UNL     1       6.417  -4.021  25.945  0.00  0.00    +0.047 C 
ENDROOT
BRANCH  16  33
ATOM     33  C   UNL     1       6.889   1.226  25.686  0.00  0.00    +0.024 C 
BRANCH  33  34
ATOM     34  C   UNL     1       7.491   1.506  27.147  0.00  0.00    +0.121 C 
BRANCH  34  35
ATOM     35  C   UNL     1       8.367   0.429  27.860  0.00  0.00    +0.305 C 
ATOM     36  O   UNL     1       8.934  -0.517  27.344  0.00  0.00    -0.251 OA
BRANCH  35  37
ATOM     37  O   UNL     1       8.495   0.620  29.197  0.00  0.00    -0.481 OA
ATOM     38  H   UNL     1       8.339  -0.156  29.766  0.00  0.00    +0.295 HD
ENDBRANCH  35  37
ENDBRANCH  34  35
ENDBRANCH  33  34
ENDBRANCH  16  33
BRANCH  10  39
ATOM     39  C   UNL     1       7.983   4.923  23.694  0.00  0.00    +0.129 C 
BRANCH  39  40
ATOM     40  C   UNL     1       8.605   6.127  22.976  0.00  0.00    +0.305 C 
ATOM     41  O   UNL     1       9.470   6.879  23.408  0.00  0.00    -0.251 OA
BRANCH  40  42
ATOM     42  O   UNL     1       8.058   6.406  21.719  0.00  0.00    -0.481 OA
ATOM     43  H   UNL     1       7.907   5.695  21.050  0.00  0.00    +0.295 HD
ENDBRANCH  40  42
ENDBRANCH  39  40
ENDBRANCH  10  39
BRANCH  22  44
ATOM     44  C   UNL     1       5.052   1.055  27.615  0.00  0.00    +0.022 C 
BRANCH  44  45
ATOM     45  C   UNL     1       3.993   2.165  28.003  0.00  0.00    +0.121 C 
BRANCH  45  46
ATOM     46  C   UNL     1       3.997   3.615  27.524  0.00  0.00    +0.305 C 
ATOM     47  O   UNL     1       3.011   4.088  26.958  0.00  0.00    -0.251 OA
BRANCH  46  48
ATOM     48  O   UNL     1       5.125   4.318  27.630  0.00  0.00    -0.481 OA
ATOM     49  H   UNL     1       5.145   5.197  27.216  0.00  0.00    +0.295 HD
ENDBRANCH  46  48
ENDBRANCH  45  46
ENDBRANCH  44  45
ENDBRANCH  22  44
BRANCH  15  50
ATOM     50  C   UNL     1       4.459   3.716  23.399  0.00  0.00    +0.127 C 
BRANCH  50  51
ATOM     51  C   UNL     1       4.267   5.166  23.786  0.00  0.00    +0.305 C 
ATOM     52  O   UNL     1       3.671   5.960  23.067  0.00  0.00    -0.251 OA
BRANCH  51  53
ATOM     53  O   UNL     1       4.844   5.532  24.945  0.00  0.00    -0.481 OA
ATOM     54  H   UNL     1       5.336   6.379  24.913  0.00  0.00    +0.295 HD
ENDBRANCH  51  53
ENDBRANCH  50  51
ENDBRANCH  15  50
BRANCH   2  55
ATOM     55  C   UNL     1       8.635  -5.644  25.166  0.00  0.00    +0.134 C 
BRANCH  55  56
ATOM     56  C   UNL     1       9.928  -5.219  25.824  0.00  0.00    +0.306 C 
ATOM     57  O   UNL     1      11.037  -5.135  25.275  0.00  0.00    -0.251 OA
BRANCH  56  58
ATOM     58  O   UNL     1       9.758  -4.810  27.119  0.00  0.00    -0.481 OA
ATOM     59  H   UNL     1      10.615  -4.659  27.550  0.00  0.00    +0.295 HD
ENDBRANCH  56  58
ENDBRANCH  55  56
ENDBRANCH   2  55
BRANCH   1  60
ATOM     60  C   UNL     1       4.914  -5.049  23.735  0.00  0.00    +0.022 C 
BRANCH  60  61
ATOM     61  C   UNL     1       4.096  -6.357  23.855  0.00  0.00    +0.121 C 
BRANCH  61  62
ATOM     62  C   UNL     1       2.786  -6.215  23.025  0.00  0.00    +0.305 C 
ATOM     63  O   UNL     1       2.141  -5.175  22.896  0.00  0.00    -0.251 OA
BRANCH  62  64
ATOM     64  O   UNL     1       2.342  -7.383  22.518  0.00  0.00    -0.481 OA
ATOM     65  H   UNL     1       2.894  -7.792  21.833  0.00  0.00    +0.295 HD
ENDBRANCH  62  64
ENDBRANCH  61  62
ENDBRANCH  60  61
ENDBRANCH   1  60
BRANCH   9  66
ATOM     66  C   UNL     1      10.886   3.480  24.569  0.00  0.00    +0.021 C 
BRANCH  66  67
ATOM     67  C   UNL     1      11.807   3.900  23.332  0.00  0.00    +0.121 C 
BRANCH  67  68
ATOM     68  C   UNL     1      12.736   5.106  23.571  0.00  0.00    +0.305 C 
ATOM     69  O   UNL     1      12.395   6.138  24.132  0.00  0.00    -0.251 OA
BRANCH  68  70
ATOM     70  O   UNL     1      13.978   4.908  23.141  0.00  0.00    -0.481 OA
ATOM     71  H   UNL     1      14.615   5.543  23.526  0.00  0.00    +0.295 HD
ENDBRANCH  68  70
ENDBRANCH  67  68
ENDBRANCH  66  67
ENDBRANCH   9  66
TORSDOF 25
ENDMDL
MODEL 5
REMARK VINA RESULT:      -3.3      2.989      9.189
REMARK  Name = 
REMARK  33 active torsions:
REMARK  status: ('A' for Active; 'I' for Inactive)
REMARK    1  A    between atoms: O_1  and  C_2
REMARK    2  A    between atoms: C_2  and  C_4
REMARK    3  A    between atoms: C_4  and  C_5
REMARK    4  A    between atoms: C_5  and  C_6
REMARK    5  A    between atoms: C_13  and  C_14
REMARK    6  A    between atoms: C_19  and  C_21
REMARK    7  A    between atoms: C_21  and  C_22
REMARK    8  A    between atoms: C_22  and  O_23
REMARK    9  A    between atoms: C_25  and  C_26
REMARK   10  A    between atoms: C_25  and  C_27
REMARK   11  A    between atoms: C_27  and  C_28
REMARK   12  A    between atoms: C_28  and  C_29
REMARK   13  A    between atoms: C_29  and  O_30
REMARK   14  A    between atoms: C_32  and  C_33
REMARK   15  A    between atoms: C_36  and  C_37
REMARK   16  A    between atoms: C_40  and  C_41
REMARK   17  A    between atoms: C_40  and  C_42
REMARK   18  A    between atoms: C_42  and  C_43
REMARK   19  A    between atoms: C_43  and  O_44
REMARK   20  A    between atoms: C_46  and  C_48
REMARK   21  A    between atoms: C_48  and  C_49
REMARK   22  A    between atoms: C_49  and  C_50
REMARK   23  A    between atoms: C_50  and  O_51
REMARK   24  A    between atoms: C_53  and  C_54
REMARK   25  A    between atoms: C_53  and  C_55
REMARK   26  A    between atoms: C_55  and  C_56
REMARK   27  A    between atoms: C_56  and  O_57
REMARK   28  A    between atoms: C_59  and  C_61
REMARK   29  A    between atoms: C_61  and  C_62
REMARK   30  A    between atoms: C_62  and  C_63
REMARK   31  A    between atoms: C_63  and  O_64
REMARK   32  A    between atoms: C_66  and  C_67
REMARK   33  A    between atoms: C_66  and  C_68
REMARK                            x       y       z     vdW  Elec       q    Type
REMARK                         _______ _______ _______ _____ _____    ______ ____
ROOT
ATOM      1  C   UNL     1       3.481   2.814  28.005  0.00  0.00    +0.051 C 
ATOM      2  C   UNL     1       3.923   3.474  26.639  0.00  0.00    +0.029 C 
ATOM      3  C   UNL     1       4.687   4.712  27.254  0.00  0.00    +0.019 C 
ATOM      4  C   UNL     1       4.003   1.774  25.817  0.00  0.00    +0.053 C 
ATOM      5  N   UNL     1       2.877   1.230  26.251  0.00  0.00    -0.255 NA
ATOM      6  C   UNL     1       5.349   0.764  24.926  0.00  0.00    -0.012 C 
ATOM      7  C   UNL     1       6.303   2.005  24.948  0.00  0.00    +0.047 C 
ATOM      8  C   UNL     1       5.988  -0.526  24.138  0.00  0.00    +0.013 C 
ATOM      9  C   UNL     1       6.064  -2.213  23.126  0.00  0.00    +0.042 C 
ATOM     10  C   UNL     1       6.897  -3.456  24.134  0.00  0.00    +0.009 C 
ATOM     11  C   UNL     1       5.539  -4.389  24.046  0.00  0.00    +0.014 C 
ATOM     12  C   UNL     1       7.703  -2.339  24.888  0.00  0.00    +0.058 C 
ATOM     13  C   UNL     1       8.938  -1.945  23.971  0.00  0.00    +0.034 C 
ATOM     14  C   UNL     1       7.881  -2.798  26.407  0.00  0.00    +0.133 C 
ATOM     15  C   UNL     1       6.794  -3.780  26.954  0.00  0.00    +0.038 C 
ATOM     16  C   UNL     1       5.555  -2.878  27.239  0.00  0.00    +0.016 C 
ATOM     17  C   UNL     1       5.155  -3.175  28.760  0.00  0.00    +0.018 C 
ATOM     18  C   UNL     1       6.280  -1.637  27.422  0.00  0.00    +0.047 C 
ATOM     19  C   UNL     1       5.434  -0.566  27.932  0.00  0.00    -0.008 C 
ATOM     20  C   UNL     1       6.414   0.581  28.229  0.00  0.00    +0.047 C 
ATOM     21  C   UNL     1       4.101  -0.828  28.175  0.00  0.00    +0.050 C 
ATOM     22  C   UNL     1       2.862  -2.064  28.012  0.00  0.00    +0.050 C 
ATOM     23  C   UNL     1       1.583  -1.149  28.065  0.00  0.00    +0.016 C 
ATOM     24  C   UNL     1       0.672  -1.669  29.174  0.00  0.00    +0.018 C 
ATOM     25  C   UNL     1       0.719  -0.949  26.797  0.00  0.00    +0.018 C 
ATOM     26  C   UNL     1       2.223   0.126  28.557  0.00  0.00    +0.050 C 
ATOM     27  C   UNL     1       1.560   1.427  28.390  0.00  0.00    +0.047 C 
ATOM     28  N   UNL     1       3.466   0.125  28.921  0.00  0.00    -0.255 NA
ATOM     29  N   UNL     1       7.608  -1.629  27.237  0.00  0.00    -0.282 NA
ATOM     30  N   UNL     1       7.094  -0.951  24.893  0.00  0.00    -0.339 N 
ATOM     31  H   UNL     1       7.446  -0.365  25.650  0.00  0.00    +0.146 HD
ATOM     32  C   UNL     1       2.379   1.950  27.447  0.00  0.00    +0.047 C 
ENDROOT
BRANCH  16  33
ATOM     33  C   UNL     1       4.518  -2.589  25.822  0.00  0.00    +0.024 C 
BRANCH  33  34
ATOM     34  C   UNL     1       3.198  -3.004  25.008  0.00  0.00    +0.121 C 
BRANCH  34  35
ATOM     35  C   UNL     1       2.981  -4.483  24.559  0.00  0.00    +0.305 C 
ATOM     36  O   UNL     1       3.532  -5.475  25.001  0.00  0.00    -0.251 OA
BRANCH  35  37
ATOM     37  O   UNL     1       2.055  -4.630  23.578  0.00  0.00    -0.481 OA
ATOM     38  H   UNL     1       1.127  -4.456  23.825  0.00  0.00    +0.295 HD
ENDBRANCH  35  37
ENDBRANCH  34  35
ENDBRANCH  33  34
ENDBRANCH  16  33
BRANCH  10  39
ATOM     39  C   UNL     1       7.790  -5.008  24.314  0.00  0.00    +0.129 C 
BRANCH  39  40
ATOM     40  C   UNL     1       9.152  -5.432  24.879  0.00  0.00    +0.305 C 
ATOM     41  O   UNL     1      10.230  -4.880  24.700  0.00  0.00    -0.251 OA
BRANCH  40  42
ATOM     42  O   UNL     1       9.134  -6.617  25.622  0.00  0.00    -0.481 OA
ATOM     43  H   UNL     1       8.604  -6.700  26.452  0.00  0.00    +0.295 HD
ENDBRANCH  40  42
ENDBRANCH  39  40
ENDBRANCH  10  39
BRANCH  22  44
ATOM     44  C   UNL     1       2.465  -3.561  27.225  0.00  0.00    +0.022 C 
BRANCH  44  45
ATOM     45  C   UNL     1       1.905  -4.872  27.910  0.00  0.00    +0.121 C 
BRANCH  45  46
ATOM     46  C   UNL     1       2.733  -6.075  28.357  0.00  0.00    +0.305 C 
ATOM     47  O   UNL     1       3.165  -6.142  29.507  0.00  0.00    -0.251 OA
BRANCH  46  48
ATOM     48  O   UNL     1       3.071  -6.989  27.447  0.00  0.00    -0.481 OA
ATOM     49  H   UNL     1       2.655  -6.925  26.572  0.00  0.00    +0.295 HD
ENDBRANCH  46  48
ENDBRANCH  45  46
ENDBRANCH  44  45
ENDBRANCH  22  44
BRANCH  15  50
ATOM     50  C   UNL     1       7.257  -4.837  28.008  0.00  0.00    +0.127 C 
BRANCH  50  51
ATOM     51  C   UNL     1       6.647  -6.206  28.220  0.00  0.00    +0.305 C 
ATOM     52  O   UNL     1       6.822  -6.845  29.251  0.00  0.00    -0.251 OA
BRANCH  51  53
ATOM     53  O   UNL     1       5.948  -6.691  27.177  0.00  0.00    -0.481 OA
ATOM     54  H   UNL     1       5.722  -6.031  26.489  0.00  0.00    +0.295 HD
ENDBRANCH  51  53
ENDBRANCH  50  51
ENDBRANCH  15  50
BRANCH   2  55
ATOM     55  C   UNL     1       2.772   4.300  25.871  0.00  0.00    +0.134 C 
BRANCH  55  56
ATOM     56  C   UNL     1       3.030   5.058  24.589  0.00  0.00    +0.306 C 
ATOM     57  O   UNL     1       3.266   6.272  24.489  0.00  0.00    -0.251 OA
BRANCH  56  58
ATOM     58  O   UNL     1       3.091   4.243  23.491  0.00  0.00    -0.481 OA
ATOM     59  H   UNL     1       3.915   3.730  23.486  0.00  0.00    +0.295 HD
ENDBRANCH  56  58
ENDBRANCH  55  56
ENDBRANCH   2  55
BRANCH   1  60
ATOM     60  C   UNL     1       3.909   3.133  29.558  0.00  0.00    +0.022 C 
BRANCH  60  61
ATOM     61  C   UNL     1       5.150   2.695  30.373  0.00  0.00    +0.121 C 
BRANCH  61  62
ATOM     62  C   UNL     1       6.259   3.779  30.229  0.00  0.00    +0.305 C 
ATOM     63  O   UNL     1       7.445   3.549  29.996  0.00  0.00    -0.251 OA
BRANCH  62  64
ATOM     64  O   UNL     1       5.824   5.030  30.485  0.00  0.00    -0.481 OA
ATOM     65  H   UNL     1       6.477   5.646  30.849  0.00  0.00    +0.295 HD
ENDBRANCH  62  64
ENDBRANCH  61  62
ENDBRANCH  60  61
ENDBRANCH   1  60
BRANCH   9  66
ATOM     66  C   UNL     1       6.783  -3.137  21.715  0.00  0.00    +0.021 C 
BRANCH  66  67
ATOM     67  C   UNL     1       6.039  -4.166  20.744  0.00  0.00    +0.121 C 
BRANCH  67  68
ATOM     68  C   UNL     1       6.290  -5.658  21.033  0.00  0.00    +0.305 C 
ATOM     69  O   UNL     1       7.396  -6.148  21.212  0.00  0.00    -0.251 OA
BRANCH  68  70
ATOM     70  O   UNL     1       5.174  -6.375  21.113  0.00  0.00    -0.481 OA
ATOM     71  H   UNL     1       4.912  -6.563  22.036  0.00  0.00    +0.295 HD
ENDBRANCH  68  70
ENDBRANCH  67  68
ENDBRANCH  66  67
ENDBRANCH   9  66
TORSDOF 25
ENDMDL
MODEL 6
REMARK VINA RESULT:      -2.9      2.016      8.915
REMARK  Name = 
REMARK  33 active torsions:
REMARK  status: ('A' for Active; 'I' for Inactive)
REMARK    1  A    between atoms: O_1  and  C_2
REMARK    2  A    between atoms: C_2  and  C_4
REMARK    3  A    between atoms: C_4  and  C_5
REMARK    4  A    between atoms: C_5  and  C_6
REMARK    5  A    between atoms: C_13  and  C_14
REMARK    6  A    between atoms: C_19  and  C_21
REMARK    7  A    between atoms: C_21  and  C_22
REMARK    8  A    between atoms: C_22  and  O_23
REMARK    9  A    between atoms: C_25  and  C_26
REMARK   10  A    between atoms: C_25  and  C_27
REMARK   11  A    between atoms: C_27  and  C_28
REMARK   12  A    between atoms: C_28  and  C_29
REMARK   13  A    between atoms: C_29  and  O_30
REMARK   14  A    between atoms: C_32  and  C_33
REMARK   15  A    between atoms: C_36  and  C_37
REMARK   16  A    between atoms: C_40  and  C_41
REMARK   17  A    between atoms: C_40  and  C_42
REMARK   18  A    between atoms: C_42  and  C_43
REMARK   19  A    between atoms: C_43  and  O_44
REMARK   20  A    between atoms: C_46  and  C_48
REMARK   21  A    between atoms: C_48  and  C_49
REMARK   22  A    between atoms: C_49  and  C_50
REMARK   23  A    between atoms: C_50  and  O_51
REMARK   24  A    between atoms: C_53  and  C_54
REMARK   25  A    between atoms: C_53  and  C_55
REMARK   26  A    between atoms: C_55  and  C_56
REMARK   27  A    between atoms: C_56  and  O_57
REMARK   28  A    between atoms: C_59  and  C_61
REMARK   29  A    between atoms: C_61  and  C_62
REMARK   30  A    between atoms: C_62  and  C_63
REMARK   31  A    between atoms: C_63  and  O_64
REMARK   32  A    between atoms: C_66  and  C_67
REMARK   33  A    between atoms: C_66  and  C_68
REMARK                            x       y       z     vdW  Elec       q    Type
REMARK                         _______ _______ _______ _____ _____    ______ ____
ROOT
ATOM      1  C   UNL     1       7.389   5.028  24.836  0.00  0.00    +0.051 C 
ATOM      2  C   UNL     1       6.678   4.919  23.428  0.00  0.00    +0.029 C 
ATOM      3  C   UNL     1       7.683   5.836  22.626  0.00  0.00    +0.019 C 
ATOM      4  C   UNL     1       6.060   3.183  23.849  0.00  0.00    +0.053 C 
ATOM      5  N   UNL     1       5.624   3.363  25.086  0.00  0.00    -0.255 NA
ATOM      6  C   UNL     1       6.249   1.456  23.072  0.00  0.00    -0.012 C 
ATOM      7  C   UNL     1       6.936   2.089  21.816  0.00  0.00    +0.047 C 
ATOM      8  C   UNL     1       6.039  -0.167  22.943  0.00  0.00    +0.013 C 
ATOM      9  C   UNL     1       5.277  -1.955  23.251  0.00  0.00    +0.042 C 
ATOM     10  C   UNL     1       6.544  -3.005  23.991  0.00  0.00    +0.009 C 
ATOM     11  C   UNL     1       5.551  -3.231  25.289  0.00  0.00    +0.014 C 
ATOM     12  C   UNL     1       7.677  -2.161  23.307  0.00  0.00    +0.058 C 
ATOM     13  C   UNL     1       7.818  -2.678  21.813  0.00  0.00    +0.034 C 
ATOM     14  C   UNL     1       8.919  -2.098  24.309  0.00  0.00    +0.133 C 
ATOM     15  C   UNL     1       8.580  -2.263  25.827  0.00  0.00    +0.038 C 
ATOM     16  C   UNL     1       8.004  -0.879  26.255  0.00  0.00    +0.016 C 
ATOM     17  C   UNL     1       8.871  -0.433  27.523  0.00  0.00    +0.018 C 
ATOM     18  C   UNL     1       8.659  -0.092  25.230  0.00  0.00    +0.047 C 
ATOM     19  C   UNL     1       8.517   1.341  25.450  0.00  0.00    -0.008 C 
ATOM     20  C   UNL     1       9.424   1.980  24.385  0.00  0.00    +0.047 C 
ATOM     21  C   UNL     1       7.810   1.779  26.552  0.00  0.00    +0.050 C 
ATOM     22  C   UNL     1       6.830   1.224  27.901  0.00  0.00    +0.050 C 
ATOM     23  C   UNL     1       6.054   2.556  28.215  0.00  0.00    +0.016 C 
ATOM     24  C   UNL     1       6.268   2.895  29.688  0.00  0.00    +0.018 C 
ATOM     25  C   UNL     1       4.539   2.659  27.920  0.00  0.00    +0.018 C 
ATOM     26  C   UNL     1       6.886   3.515  27.399  0.00  0.00    +0.050 C 
ATOM     27  C   UNL     1       6.365   4.828  26.997  0.00  0.00    +0.047 C 
ATOM     28  N   UNL     1       7.980   3.104  26.840  0.00  0.00    -0.255 NA
ATOM     29  N   UNL     1       9.398  -0.720  24.304  0.00  0.00    -0.282 NA
ATOM     30  N   UNL     1       7.323  -0.738  22.922  0.00  0.00    -0.339 N 
ATOM     31  H   UNL     1       8.142  -0.140  22.812  0.00  0.00    +0.146 HD
ATOM     32  C   UNL     1       6.215   4.589  25.673  0.00  0.00    +0.047 C 
ENDROOT
BRANCH  16  33
ATOM     33  C   UNL     1       6.265  -0.679  25.933  0.00  0.00    +0.024 C 
BRANCH  33  34
ATOM     34  C   UNL     1       4.764  -1.088  26.326  0.00  0.00    +0.121 C 
BRANCH  34  35
ATOM     35  C   UNL     1       3.617  -0.030  26.265  0.00  0.00    +0.305 C 
ATOM     36  O   UNL     1       2.504  -0.125  26.751  0.00  0.00    -0.251 OA
BRANCH  35  37
ATOM     37  O   UNL     1       3.950   1.107  25.606  0.00  0.00    -0.481 OA
ATOM     38  H   UNL     1       3.771   1.124  24.647  0.00  0.00    +0.295 HD
ENDBRANCH  35  37
ENDBRANCH  34  35
ENDBRANCH  33  34
ENDBRANCH  16  33
BRANCH  10  39
ATOM     39  C   UNL     1       7.219  -4.624  24.397  0.00  0.00    +0.129 C 
BRANCH  39  40
ATOM     40  C   UNL     1       8.057  -5.679  23.662  0.00  0.00    +0.305 C 
ATOM     41  O   UNL     1       7.772  -6.254  22.620  0.00  0.00    -0.251 OA
BRANCH  40  42
ATOM     42  O   UNL     1       9.238  -6.046  24.315  0.00  0.00    -0.481 OA
ATOM     43  H   UNL     1       9.578  -6.973  24.288  0.00  0.00    +0.295 HD
ENDBRANCH  40  42
ENDBRANCH  39  40
ENDBRANCH  10  39
BRANCH  22  44
ATOM     44  C   UNL     1       5.930  -0.125  28.522  0.00  0.00    +0.022 C 
BRANCH  44  45
ATOM     45  C   UNL     1       5.014  -0.141  29.812  0.00  0.00    +0.121 C 
BRANCH  45  46
ATOM     46  C   UNL     1       3.691  -0.890  29.963  0.00  0.00    +0.305 C 
ATOM     47  O   UNL     1       3.681  -2.092  30.223  0.00  0.00    -0.251 OA
BRANCH  46  48
ATOM     48  O   UNL     1       2.557  -0.240  29.698  0.00  0.00    -0.481 OA
ATOM     49  H   UNL     1       1.924  -0.129  30.426  0.00  0.00    +0.295 HD
ENDBRANCH  46  48
ENDBRANCH  45  46
ENDBRANCH  44  45
ENDBRANCH  22  44
BRANCH  15  50
ATOM     50  C   UNL     1       9.643  -2.983  26.719  0.00  0.00    +0.127 C 
BRANCH  50  51
ATOM     51  C   UNL     1       9.887  -4.475  26.781  0.00  0.00    +0.305 C 
ATOM     52  O   UNL     1      10.867  -4.998  26.262  0.00  0.00    -0.251 OA
BRANCH  51  53
ATOM     53  O   UNL     1       8.925  -5.188  27.395  0.00  0.00    -0.481 OA
ATOM     54  H   UNL     1       8.029  -5.092  27.010  0.00  0.00    +0.295 HD
ENDBRANCH  51  53
ENDBRANCH  50  51
ENDBRANCH  15  50
BRANCH   2  55
ATOM     55  C   UNL     1       5.368   5.840  23.249  0.00  0.00    +0.134 C 
BRANCH  55  56
ATOM     56  C   UNL     1       4.275   5.518  22.255  0.00  0.00    +0.306 C 
ATOM     57  O   UNL     1       3.616   4.468  22.204  0.00  0.00    -0.251 OA
BRANCH  56  58
ATOM     58  O   UNL     1       3.976   6.569  21.432  0.00  0.00    -0.481 OA
ATOM     59  H   UNL     1       3.345   7.173  21.856  0.00  0.00    +0.295 HD
ENDBRANCH  56  58
ENDBRANCH  55  56
ENDBRANCH   2  55
BRANCH   1  60
ATOM     60  C   UNL     1       8.847   5.644  25.275  0.00  0.00    +0.022 C 
BRANCH  60  61
ATOM     61  C   UNL     1       9.689   6.783  24.652  0.00  0.00    +0.121 C 
BRANCH  61  62
ATOM     62  C   UNL     1      11.071   6.212  24.217  0.00  0.00    +0.305 C 
ATOM     63  O   UNL     1      12.138   6.429  24.790  0.00  0.00    -0.251 OA
BRANCH  62  64
ATOM     64  O   UNL     1      11.023   5.514  23.063  0.00  0.00    -0.481 OA
ATOM     65  H   UNL     1      11.703   4.833  22.944  0.00  0.00    +0.295 HD
ENDBRANCH  62  64
ENDBRANCH  61  62
ENDBRANCH  60  61
ENDBRANCH   1  60
BRANCH   9  66
ATOM     66  C   UNL     1       4.664  -3.521  22.518  0.00  0.00    +0.021 C 
BRANCH  66  67
ATOM     67  C   UNL     1       3.599  -4.537  23.141  0.00  0.00    +0.121 C 
BRANCH  67  68
ATOM     68  C   UNL     1       3.978  -6.029  23.069  0.00  0.00    +0.305 C 
ATOM     69  O   UNL     1       3.424  -6.912  23.708  0.00  0.00    -0.251 OA
BRANCH  68  70
ATOM     70  O   UNL     1       4.956  -6.284  22.205  0.00  0.00    -0.481 OA
ATOM     71  H   UNL     1       5.073  -5.567  21.549  0.00  0.00    +0.295 HD
ENDBRANCH  68  70
ENDBRANCH  67  68
ENDBRANCH  66  67
ENDBRANCH   9  66
TORSDOF 25
ENDMDL
MODEL 7
REMARK VINA RESULT:      -2.1      2.227      8.581
REMARK  Name = 
REMARK  33 active torsions:
REMARK  status: ('A' for Active; 'I' for Inactive)
REMARK    1  A    between atoms: O_1  and  C_2
REMARK    2  A    between atoms: C_2  and  C_4
REMARK    3  A    between atoms: C_4  and  C_5
REMARK    4  A    between atoms: C_5  and  C_6
REMARK    5  A    between atoms: C_13  and  C_14
REMARK    6  A    between atoms: C_19  and  C_21
REMARK    7  A    between atoms: C_21  and  C_22
REMARK    8  A    between atoms: C_22  and  O_23
REMARK    9  A    between atoms: C_25  and  C_26
REMARK   10  A    between atoms: C_25  and  C_27
REMARK   11  A    between atoms: C_27  and  C_28
REMARK   12  A    between atoms: C_28  and  C_29
REMARK   13  A    between atoms: C_29  and  O_30
REMARK   14  A    between atoms: C_32  and  C_33
REMARK   15  A    between atoms: C_36  and  C_37
REMARK   16  A    between atoms: C_40  and  C_41
REMARK   17  A    between atoms: C_40  and  C_42
REMARK   18  A    between atoms: C_42  and  C_43
REMARK   19  A    between atoms: C_43  and  O_44
REMARK   20  A    between atoms: C_46  and  C_48
REMARK   21  A    between atoms: C_48  and  C_49
REMARK   22  A    between atoms: C_49  and  C_50
REMARK   23  A    between atoms: C_50  and  O_51
REMARK   24  A    between atoms: C_53  and  C_54
REMARK   25  A    between atoms: C_53  and  C_55
REMARK   26  A    between atoms: C_55  and  C_56
REMARK   27  A    between atoms: C_56  and  O_57
REMARK   28  A    between atoms: C_59  and  C_61
REMARK   29  A    between atoms: C_61  and  C_62
REMARK   30  A    between atoms: C_62  and  C_63
REMARK   31  A    between atoms: C_63  and  O_64
REMARK   32  A    between atoms: C_66  and  C_67
REMARK   33  A    between atoms: C_66  and  C_68
REMARK                            x       y       z     vdW  Elec       q    Type
REMARK                         _______ _______ _______ _____ _____    ______ ____
ROOT
ATOM      1  C   UNL     1       9.435   6.177  24.903  0.00  0.00    +0.051 C 
ATOM      2  C   UNL     1      10.746   5.389  24.508  0.00  0.00    +0.029 C 
ATOM      3  C   UNL     1      11.690   6.002  25.615  0.00  0.00    +0.019 C 
ATOM      4  C   UNL     1       9.712   3.930  23.894  0.00  0.00    +0.053 C 
ATOM      5  N   UNL     1       8.775   4.559  23.202  0.00  0.00    -0.255 NA
ATOM      6  C   UNL     1       9.600   2.078  24.319  0.00  0.00    -0.012 C 
ATOM      7  C   UNL     1      10.872   2.203  25.224  0.00  0.00    +0.047 C 
ATOM      8  C   UNL     1       9.031   0.542  24.214  0.00  0.00    +0.013 C 
ATOM      9  C   UNL     1       8.097  -1.030  23.486  0.00  0.00    +0.042 C 
ATOM     10  C   UNL     1       6.768  -1.489  24.617  0.00  0.00    +0.009 C 
ATOM     11  C   UNL     1       5.691  -1.271  23.385  0.00  0.00    +0.014 C 
ATOM     12  C   UNL     1       7.553  -0.873  25.828  0.00  0.00    +0.058 C 
ATOM     13  C   UNL     1       8.618  -1.952  26.301  0.00  0.00    +0.034 C 
ATOM     14  C   UNL     1       6.490  -0.228  26.829  0.00  0.00    +0.133 C 
ATOM     15  C   UNL     1       5.137   0.224  26.189  0.00  0.00    +0.038 C 
ATOM     16  C   UNL     1       5.469   1.569  25.474  0.00  0.00    +0.016 C 
ATOM     17  C   UNL     1       4.403   2.622  26.036  0.00  0.00    +0.018 C 
ATOM     18  C   UNL     1       6.610   1.926  26.293  0.00  0.00    +0.047 C 
ATOM     19  C   UNL     1       7.074   3.285  26.044  0.00  0.00    -0.008 C 
ATOM     20  C   UNL     1       8.142   3.524  27.123  0.00  0.00    +0.047 C 
ATOM     21  C   UNL     1       6.416   4.051  25.103  0.00  0.00    +0.050 C 
ATOM     22  C   UNL     1       5.146   3.997  23.889  0.00  0.00    +0.050 C 
ATOM     23  C   UNL     1       5.589   5.221  23.005  0.00  0.00    +0.016 C 
ATOM     24  C   UNL     1       4.405   6.178  22.891  0.00  0.00    +0.018 C 
ATOM     25  C   UNL     1       6.149   4.988  21.582  0.00  0.00    +0.018 C 
ATOM     26  C   UNL     1       6.592   5.844  23.946  0.00  0.00    +0.050 C 
ATOM     27  C   UNL     1       7.615   6.781  23.461  0.00  0.00    +0.047 C 
ATOM     28  N   UNL     1       6.719   5.383  25.150  0.00  0.00    -0.255 NA
ATOM     29  N   UNL     1       7.024   1.068  27.237  0.00  0.00    -0.282 NA
ATOM     30  N   UNL     1       8.581   0.192  25.499  0.00  0.00    -0.339 N 
ATOM     31  H   UNL     1       8.805   0.788  26.294  0.00  0.00    +0.146 HD
ATOM     32  C   UNL     1       8.700   5.984  23.601  0.00  0.00    +0.047 C 
ENDROOT
BRANCH  16  33
ATOM     33  C   UNL     1       6.133   1.383  23.834  0.00  0.00    +0.024 C 
BRANCH  33  34
ATOM     34  C   UNL     1       6.341   2.030  22.380  0.00  0.00    +0.121 C 
BRANCH  34  35
ATOM     35  C   UNL     1       7.555   1.608  21.494  0.00  0.00    +0.305 C 
ATOM     36  O   UNL     1       7.798   0.495  21.062  0.00  0.00    -0.251 OA
BRANCH  35  37
ATOM     37  O   UNL     1       8.392   2.629  21.184  0.00  0.00    -0.481 OA
ATOM     38  H   UNL     1       8.338   2.977  20.274  0.00  0.00    +0.295 HD
ENDBRANCH  35  37
ENDBRANCH  34  35
ENDBRANCH  33  34
ENDBRANCH  16  33
BRANCH  10  39
ATOM     39  C   UNL     1       5.581  -2.677  25.264  0.00  0.00    +0.129 C 
BRANCH  39  40
ATOM     40  C   UNL     1       5.660  -4.072  25.897  0.00  0.00    +0.305 C 
ATOM     41  O   UNL     1       4.855  -4.581  26.667  0.00  0.00    -0.251 OA
BRANCH  40  42
ATOM     42  O   UNL     1       6.821  -4.789  25.591  0.00  0.00    -0.481 OA
ATOM     43  H   UNL     1       6.814  -5.774  25.504  0.00  0.00    +0.295 HD
ENDBRANCH  40  42
ENDBRANCH  39  40
ENDBRANCH  10  39
BRANCH  22  44
ATOM     44  C   UNL     1       4.153   2.934  22.941  0.00  0.00    +0.022 C 
BRANCH  44  45
ATOM     45  C   UNL     1       2.639   3.157  22.539  0.00  0.00    +0.121 C 
BRANCH  45  46
ATOM     46  C   UNL     1       2.066   3.082  21.125  0.00  0.00    +0.305 C 
ATOM     47  O   UNL     1       2.012   4.088  20.419  0.00  0.00    -0.251 OA
BRANCH  46  48
ATOM     48  O   UNL     1       1.525   1.933  20.718  0.00  0.00    -0.481 OA
ATOM     49  H   UNL     1       1.497   1.766  19.761  0.00  0.00    +0.295 HD
ENDBRANCH  46  48
ENDBRANCH  45  46
ENDBRANCH  44  45
ENDBRANCH  22  44
BRANCH  15  50
ATOM     50  C   UNL     1       3.855   0.099  27.073  0.00  0.00    +0.127 C 
BRANCH  50  51
ATOM     51  C   UNL     1       3.814   0.112  28.586  0.00  0.00    +0.305 C 
ATOM     52  O   UNL     1       3.135  -0.681  29.227  0.00  0.00    -0.251 OA
BRANCH  51  53
ATOM     53  O   UNL     1       4.530   1.090  29.170  0.00  0.00    -0.481 OA
ATOM     54  H   UNL     1       4.058   1.943  29.274  0.00  0.00    +0.295 HD
ENDBRANCH  51  53
ENDBRANCH  50  51
ENDBRANCH  15  50
BRANCH   2  55
ATOM     55  C   UNL     1      11.531   5.964  23.224  0.00  0.00    +0.134 C 
BRANCH  55  56
ATOM     56  C   UNL     1      12.794   5.327  22.687  0.00  0.00    +0.306 C 
ATOM     57  O   UNL     1      13.841   5.127  23.322  0.00  0.00    -0.251 OA
BRANCH  56  58
ATOM     58  O   UNL     1      12.655   4.868  21.406  0.00  0.00    -0.481 OA
ATOM     59  H   UNL     1      13.508   4.877  20.941  0.00  0.00    +0.295 HD
ENDBRANCH  56  58
ENDBRANCH  55  56
ENDBRANCH   2  55
BRANCH   1  60
ATOM     60  C   UNL     1       9.076   7.108  26.208  0.00  0.00    +0.022 C 
BRANCH  60  61
ATOM     61  C   UNL     1       9.197   6.812  27.722  0.00  0.00    +0.121 C 
BRANCH  61  62
ATOM     62  C   UNL     1       7.801   6.991  28.389  0.00  0.00    +0.305 C 
ATOM     63  O   UNL     1       7.587   6.962  29.600  0.00  0.00    -0.251 OA
BRANCH  62  64
ATOM     64  O   UNL     1       6.791   7.087  27.499  0.00  0.00    -0.481 OA
ATOM     65  H   UNL     1       6.776   6.424  26.793  0.00  0.00    +0.295 HD
ENDBRANCH  62  64
ENDBRANCH  61  62
ENDBRANCH  60  61
ENDBRANCH   1  60
BRANCH   9  66
ATOM     66  C   UNL     1       8.153  -2.824  23.110  0.00  0.00    +0.021 C 
BRANCH  66  67
ATOM     67  C   UNL     1       7.502  -3.579  21.861  0.00  0.00    +0.121 C 
BRANCH  67  68
ATOM     68  C   UNL     1       6.756  -4.887  22.186  0.00  0.00    +0.305 C 
ATOM     69  O   UNL     1       7.226  -5.803  22.846  0.00  0.00    -0.251 OA
BRANCH  68  70
ATOM     70  O   UNL     1       5.515  -4.920  21.709  0.00  0.00    -0.481 OA
ATOM     71  H   UNL     1       4.850  -4.656  22.375  0.00  0.00    +0.295 HD
ENDBRANCH  68  70
ENDBRANCH  67  68
ENDBRANCH  66  67
ENDBRANCH   9  66
TORSDOF 25
ENDMDL
