MODEL 1
REMARK VINA RESULT:      -7.4      0.000      0.000
REMARK  Name = 
REMARK  9 active torsions:
REMARK  status: ('A' for Active; 'I' for Inactive)
REMARK    1  A    between atoms: C_1  and  C_2
REMARK    2  A    between atoms: C_2  and  N_3
REMARK    3  A    between atoms: N_3  and  C_4
REMARK    4  A    between atoms: C_4  and  C_5
REMARK    5  A    between atoms: C_6  and  C_8
REMARK    6  A    between atoms: C_8  and  C_9
REMARK    7  A    between atoms: N_14  and  S_15
REMARK    8  A    between atoms: S_15  and  C_18
REMARK    9  A    between atoms: C_19  and  C_20
REMARK                            x       y       z     vdW  Elec       q    Type
REMARK                         _______ _______ _______ _____ _____    ______ ____
ROOT
ATOM      1  C   UNL     1      10.173   0.568  23.286  0.00  0.00    +0.052 A 
ATOM      2  N   UNL     1       9.961  -0.613  23.922  0.00  0.00    -0.235 NA
ATOM      3  C   UNL     1       9.434  -1.607  23.191  0.00  0.00    +0.138 A 
ATOM      4  N   UNL     1       9.204  -2.797  23.912  0.00  0.00    -0.199 N 
ATOM      5  H   UNL     1       9.914  -2.901  24.636  0.00  0.00    +0.175 HD
ATOM      6  C   UNL     1       9.098  -1.506  21.853  0.00  0.00    +0.045 A 
ATOM      7  C   UNL     1       9.311  -0.291  21.219  0.00  0.00    +0.005 A 
ATOM      8  C   UNL     1       9.853   0.764  21.942  0.00  0.00    +0.024 A 
ENDROOT
BRANCH   4   9
ATOM      9  S   UNL     1       7.687  -2.917  24.652  0.00  0.00    +0.074 S 
ATOM     10  O   UNL     1       7.019  -1.636  24.565  0.00  0.00    -0.150 OA
ATOM     11  O   UNL     1       7.886  -3.542  25.947  0.00  0.00    -0.150 OA
BRANCH   9  12
ATOM     12  C   UNL     1       6.790  -4.090  23.640  0.00  0.00    +0.113 A 
ATOM     13  C   UNL     1       7.532  -4.759  22.649  0.00  0.00    +0.029 A 
ATOM     14  C   UNL     1       6.923  -5.689  21.815  0.00  0.00    +0.003 A 
ATOM     15  C   UNL     1       5.568  -5.956  21.962  0.00  0.00    +0.020 A 
ATOM     16  C   UNL     1       4.821  -5.293  22.942  0.00  0.00    +0.046 A 
ATOM     17 CL   UNL     1       3.142  -5.703  23.052  0.00  0.00    -0.083 Cl
ATOM     18  C   UNL     1       5.410  -4.344  23.805  0.00  0.00    -0.006 A 
ATOM     19  C   UNL     1       4.555  -3.682  24.856  0.00  0.00    +0.047 C 
ENDBRANCH   9  12
ENDBRANCH   4   9
BRANCH   1  20
ATOM     20  C   UNL     1      10.763   1.701  24.091  0.00  0.00    +0.151 C 
BRANCH  20  22
ATOM     21  N   UNL     1      10.343   4.136  23.752  0.00  0.00    -0.302 N 
ATOM     22  C   UNL     1       9.838   2.908  24.213  0.00  0.00    +0.221 C 
ATOM     23  O   UNL     1       8.705   2.819  24.693  0.00  0.00    -0.275 OA
BRANCH  21  25
ATOM     24  C   UNL     1       9.290   6.060  24.950  0.00  0.00    +0.024 C 
ATOM     25  C   UNL     1       9.397   5.254  23.664  0.00  0.00    +0.104 C 
ENDBRANCH  21  25
BRANCH  21  26
ATOM     26  C   UNL     1      11.736   4.280  23.308  0.00  0.00    +0.104 C 
ATOM     27  C   UNL     1      12.472   5.568  23.641  0.00  0.00    +0.024 C 
ENDBRANCH  21  26
ENDBRANCH  20  22
ENDBRANCH   1  20
TORSDOF 6
ENDMDL
MODEL 2
REMARK VINA RESULT:      -7.2      1.070      1.678
REMARK  Name = 
REMARK  9 active torsions:
REMARK  status: ('A' for Active; 'I' for Inactive)
REMARK    1  A    between atoms: C_1  and  C_2
REMARK    2  A    between atoms: C_2  and  N_3
REMARK    3  A    between atoms: N_3  and  C_4
REMARK    4  A    between atoms: C_4  and  C_5
REMARK    5  A    between atoms: C_6  and  C_8
REMARK    6  A    between atoms: C_8  and  C_9
REMARK    7  A    between atoms: N_14  and  S_15
REMARK    8  A    between atoms: S_15  and  C_18
REMARK    9  A    between atoms: C_19  and  C_20
REMARK                            x       y       z     vdW  Elec       q    Type
REMARK                         _______ _______ _______ _____ _____    ______ ____
ROOT
ATOM      1  C   UNL     1      10.285   0.293  23.481  0.00  0.00    +0.052 A 
ATOM      2  N   UNL     1      10.057  -0.884  24.120  0.00  0.00    -0.235 NA
ATOM      3  C   UNL     1       9.532  -1.877  23.386  0.00  0.00    +0.138 A 
ATOM      4  N   UNL     1       9.284  -3.063  24.109  0.00  0.00    -0.199 N 
ATOM      5  H   UNL     1       9.985  -3.169  24.841  0.00  0.00    +0.175 HD
ATOM      6  C   UNL     1       9.213  -1.779  22.044  0.00  0.00    +0.045 A 
ATOM      7  C   UNL     1       9.442  -0.568  21.408  0.00  0.00    +0.005 A 
ATOM      8  C   UNL     1       9.983   0.486  22.134  0.00  0.00    +0.024 A 
ENDROOT
BRANCH   4   9
ATOM      9  S   UNL     1       7.757  -3.169  24.831  0.00  0.00    +0.074 S 
ATOM     10  O   UNL     1       7.130  -1.865  24.797  0.00  0.00    -0.150 OA
ATOM     11  O   UNL     1       7.925  -3.857  26.097  0.00  0.00    -0.150 OA
BRANCH   9  12
ATOM     12  C   UNL     1       6.834  -4.266  23.760  0.00  0.00    +0.113 A 
ATOM     13  C   UNL     1       7.567  -4.923  22.754  0.00  0.00    +0.029 A 
ATOM     14  C   UNL     1       6.936  -5.795  21.873  0.00  0.00    +0.003 A 
ATOM     15  C   UNL     1       5.570  -6.017  21.990  0.00  0.00    +0.020 A 
ATOM     16  C   UNL     1       4.833  -5.366  22.986  0.00  0.00    +0.046 A 
ATOM     17 CL   UNL     1       3.138  -5.716  23.054  0.00  0.00    -0.083 Cl
ATOM     18  C   UNL     1       5.443  -4.474  23.895  0.00  0.00    -0.006 A 
ATOM     19  C   UNL     1       4.597  -3.823  24.958  0.00  0.00    +0.047 C 
ENDBRANCH   9  12
ENDBRANCH   4   9
BRANCH   1  20
ATOM     20  C   UNL     1      10.874   1.424  24.289  0.00  0.00    +0.151 C 
BRANCH  20  22
ATOM     21  N   UNL     1       9.306   3.354  24.109  0.00  0.00    -0.302 N 
ATOM     22  C   UNL     1      10.545   2.805  23.734  0.00  0.00    +0.221 C 
ATOM     23  O   UNL     1      11.319   3.415  22.992  0.00  0.00    -0.275 OA
BRANCH  21  25
ATOM     24  C   UNL     1       9.326   5.720  24.913  0.00  0.00    +0.024 C 
ATOM     25  C   UNL     1       9.068   4.759  23.762  0.00  0.00    +0.104 C 
ENDBRANCH  21  25
BRANCH  21  26
ATOM     26  C   UNL     1       8.320   2.582  24.876  0.00  0.00    +0.104 C 
ATOM     27  C   UNL     1       7.093   2.051  24.151  0.00  0.00    +0.024 C 
ENDBRANCH  21  26
ENDBRANCH  20  22
ENDBRANCH   1  20
TORSDOF 6
ENDMDL
MODEL 3
REMARK VINA RESULT:      -6.9      1.728      2.236
REMARK  Name = 
REMARK  9 active torsions:
REMARK  status: ('A' for Active; 'I' for Inactive)
REMARK    1  A    between atoms: C_1  and  C_2
REMARK    2  A    between atoms: C_2  and  N_3
REMARK    3  A    between atoms: N_3  and  C_4
REMARK    4  A    between atoms: C_4  and  C_5
REMARK    5  A    between atoms: C_6  and  C_8
REMARK    6  A    between atoms: C_8  and  C_9
REMARK    7  A    between atoms: N_14  and  S_15
REMARK    8  A    between atoms: S_15  and  C_18
REMARK    9  A    between atoms: C_19  and  C_20
REMARK                            x       y       z     vdW  Elec       q    Type
REMARK                         _______ _______ _______ _____ _____    ______ ____
ROOT
ATOM      1  C   UNL     1       9.838   1.657  23.293  0.00  0.00    +0.052 A 
ATOM      2  N   UNL     1       9.736   0.707  24.259  0.00  0.00    -0.235 NA
ATOM      3  C   UNL     1       9.625  -0.565  23.845  0.00  0.00    +0.138 A 
ATOM      4  N   UNL     1       9.486  -1.504  24.888  0.00  0.00    -0.199 N 
ATOM      5  H   UNL     1      10.006  -1.185  25.705  0.00  0.00    +0.175 HD
ATOM      6  C   UNL     1       9.609  -0.962  22.520  0.00  0.00    +0.045 A 
ATOM      7  C   UNL     1       9.705   0.020  21.545  0.00  0.00    +0.005 A 
ATOM      8  C   UNL     1       9.819   1.349  21.933  0.00  0.00    +0.024 A 
ENDROOT
BRANCH   4   9
ATOM      9  S   UNL     1       7.897  -1.821  25.375  0.00  0.00    +0.074 S 
ATOM     10  O   UNL     1       7.169  -0.572  25.444  0.00  0.00    -0.150 OA
ATOM     11  O   UNL     1       7.965  -2.684  26.540  0.00  0.00    -0.150 OA
BRANCH   9  12
ATOM     12  C   UNL     1       7.210  -2.799  24.042  0.00  0.00    +0.113 A 
ATOM     13  C   UNL     1       6.174  -2.204  23.298  0.00  0.00    +0.029 A 
ATOM     14  C   UNL     1       5.579  -2.886  22.242  0.00  0.00    +0.003 A 
ATOM     15  C   UNL     1       6.012  -4.166  21.924  0.00  0.00    +0.020 A 
ATOM     16  C   UNL     1       7.039  -4.767  22.660  0.00  0.00    +0.046 A 
ATOM     17 CL   UNL     1       7.513  -6.362  22.179  0.00  0.00    -0.083 Cl
ATOM     18  C   UNL     1       7.664  -4.102  23.737  0.00  0.00    -0.006 A 
ATOM     19  C   UNL     1       8.780  -4.795  24.475  0.00  0.00    +0.047 C 
ENDBRANCH   9  12
ENDBRANCH   4   9
BRANCH   1  20
ATOM     20  C   UNL     1       9.961   3.094  23.737  0.00  0.00    +0.151 C 
BRANCH  20  22
ATOM     21  N   UNL     1       8.721   5.255  23.627  0.00  0.00    -0.302 N 
ATOM     22  C   UNL     1       8.639   3.854  23.715  0.00  0.00    +0.221 C 
ATOM     23  O   UNL     1       7.550   3.277  23.773  0.00  0.00    -0.275 OA
BRANCH  21  25
ATOM     24  C   UNL     1       7.356   6.551  21.983  0.00  0.00    +0.024 C 
ATOM     25  C   UNL     1       7.469   5.981  23.388  0.00  0.00    +0.104 C 
ENDBRANCH  21  25
BRANCH  21  26
ATOM     26  C   UNL     1      10.008   5.959  23.696  0.00  0.00    +0.104 C 
ATOM     27  C   UNL     1      10.374   6.672  24.988  0.00  0.00    +0.024 C 
ENDBRANCH  21  26
ENDBRANCH  20  22
ENDBRANCH   1  20
TORSDOF 6
ENDMDL
MODEL 4
REMARK VINA RESULT:      -6.8      2.711      3.696
REMARK  Name = 
REMARK  9 active torsions:
REMARK  status: ('A' for Active; 'I' for Inactive)
REMARK    1  A    between atoms: C_1  and  C_2
REMARK    2  A    between atoms: C_2  and  N_3
REMARK    3  A    between atoms: N_3  and  C_4
REMARK    4  A    between atoms: C_4  and  C_5
REMARK    5  A    between atoms: C_6  and  C_8
REMARK    6  A    between atoms: C_8  and  C_9
REMARK    7  A    between atoms: N_14  and  S_15
REMARK    8  A    between atoms: S_15  and  C_18
REMARK    9  A    between atoms: C_19  and  C_20
REMARK                            x       y       z     vdW  Elec       q    Type
REMARK                         _______ _______ _______ _____ _____    ______ ____
ROOT
ATOM      1  C   UNL     1       8.559  -1.454  23.513  0.00  0.00    +0.052 A 
ATOM      2  N   UNL     1       7.933  -2.239  22.598  0.00  0.00    -0.235 NA
ATOM      3  C   UNL     1       6.649  -2.544  22.842  0.00  0.00    +0.138 A 
ATOM      4  N   UNL     1       6.061  -3.389  21.878  0.00  0.00    -0.199 N 
ATOM      5  H   UNL     1       6.465  -3.195  20.962  0.00  0.00    +0.175 HD
ATOM      6  C   UNL     1       5.935  -2.116  23.947  0.00  0.00    +0.045 A 
ATOM      7  C   UNL     1       6.590  -1.323  24.877  0.00  0.00    +0.005 A 
ATOM      8  C   UNL     1       7.922  -0.988  24.663  0.00  0.00    +0.024 A 
ENDROOT
BRANCH   4   9
ATOM      9  S   UNL     1       6.216  -5.048  22.174  0.00  0.00    +0.074 S 
ATOM     10  O   UNL     1       7.243  -5.586  21.307  0.00  0.00    -0.150 OA
ATOM     11  O   UNL     1       4.882  -5.618  22.154  0.00  0.00    -0.150 OA
BRANCH   9  12
ATOM     12  C   UNL     1       6.799  -5.146  23.864  0.00  0.00    +0.113 A 
ATOM     13  C   UNL     1       8.194  -5.126  24.047  0.00  0.00    +0.029 A 
ATOM     14  C   UNL     1       8.742  -5.197  25.324  0.00  0.00    +0.003 A 
ATOM     15  C   UNL     1       7.901  -5.289  26.425  0.00  0.00    +0.020 A 
ATOM     16  C   UNL     1       6.512  -5.313  26.251  0.00  0.00    +0.046 A 
ATOM     17 CL   UNL     1       5.550  -5.422  27.687  0.00  0.00    -0.083 Cl
ATOM     18  C   UNL     1       5.925  -5.243  24.970  0.00  0.00    -0.006 A 
ATOM     19  C   UNL     1       4.423  -5.250  24.852  0.00  0.00    +0.047 C 
ENDBRANCH   9  12
ENDBRANCH   4   9
BRANCH   1  20
ATOM     20  C   UNL     1      10.004  -1.101  23.260  0.00  0.00    +0.151 C 
BRANCH  20  22
ATOM     21  N   UNL     1      10.111   1.382  23.054  0.00  0.00    -0.302 N 
ATOM     22  C   UNL     1      10.412   0.251  23.834  0.00  0.00    +0.221 C 
ATOM     23  O   UNL     1      10.977   0.356  24.926  0.00  0.00    -0.275 OA
BRANCH  21  25
ATOM     24  C   UNL     1       9.093   3.160  24.484  0.00  0.00    +0.024 C 
ATOM     25  C   UNL     1      10.299   2.693  23.683  0.00  0.00    +0.104 C 
ENDBRANCH  21  25
BRANCH  21  26
ATOM     26  C   UNL     1       9.564   1.259  21.696  0.00  0.00    +0.104 C 
ATOM     27  C   UNL     1       8.114   1.649  21.462  0.00  0.00    +0.024 C 
ENDBRANCH  21  26
ENDBRANCH  20  22
ENDBRANCH   1  20
TORSDOF 6
ENDMDL
MODEL 5
REMARK VINA RESULT:      -6.7      3.443      8.345
REMARK  Name = 
REMARK  9 active torsions:
REMARK  status: ('A' for Active; 'I' for Inactive)
REMARK    1  A    between atoms: C_1  and  C_2
REMARK    2  A    between atoms: C_2  and  N_3
REMARK    3  A    between atoms: N_3  and  C_4
REMARK    4  A    between atoms: C_4  and  C_5
REMARK    5  A    between atoms: C_6  and  C_8
REMARK    6  A    between atoms: C_8  and  C_9
REMARK    7  A    between atoms: N_14  and  S_15
REMARK    8  A    between atoms: S_15  and  C_18
REMARK    9  A    between atoms: C_19  and  C_20
REMARK                            x       y       z     vdW  Elec       q    Type
REMARK                         _______ _______ _______ _____ _____    ______ ____
ROOT
ATOM      1  C   UNL     1       8.648  -3.213  25.088  0.00  0.00    +0.052 A 
ATOM      2  N   UNL     1       9.187  -2.415  24.130  0.00  0.00    -0.235 NA
ATOM      3  C   UNL     1       9.415  -1.136  24.467  0.00  0.00    +0.138 A 
ATOM      4  N   UNL     1       9.942  -0.347  23.424  0.00  0.00    -0.199 N 
ATOM      5  H   UNL     1      10.537  -0.922  22.827  0.00  0.00    +0.175 HD
ATOM      6  C   UNL     1       9.141  -0.589  25.708  0.00  0.00    +0.045 A 
ATOM      7  C   UNL     1       8.582  -1.414  26.673  0.00  0.00    +0.005 A 
ATOM      8  C   UNL     1       8.327  -2.744  26.361  0.00  0.00    +0.024 A 
ENDROOT
BRANCH   4   9
ATOM      9  S   UNL     1       8.797   0.413  22.437  0.00  0.00    +0.074 S 
ATOM     10  O   UNL     1       7.480  -0.073  22.786  0.00  0.00    -0.150 OA
ATOM     11  O   UNL     1       9.267   0.308  21.068  0.00  0.00    -0.150 OA
BRANCH   9  12
ATOM     12  C   UNL     1       8.897   2.142  22.890  0.00  0.00    +0.113 A 
ATOM     13  C   UNL     1      10.073   2.550  23.547  0.00  0.00    +0.029 A 
ATOM     14  C   UNL     1      10.243   3.874  23.937  0.00  0.00    +0.003 A 
ATOM     15  C   UNL     1       9.239   4.798  23.678  0.00  0.00    +0.020 A 
ATOM     16  C   UNL     1       8.065   4.400  23.029  0.00  0.00    +0.046 A 
ATOM     17 CL   UNL     1       6.878   5.629  22.744  0.00  0.00    -0.083 Cl
ATOM     18  C   UNL     1       7.862   3.064  22.620  0.00  0.00    -0.006 A 
ATOM     19  C   UNL     1       6.585   2.705  21.905  0.00  0.00    +0.047 C 
ENDBRANCH   9  12
ENDBRANCH   4   9
BRANCH   1  20
ATOM     20  C   UNL     1       8.381  -4.654  24.728  0.00  0.00    +0.151 C 
BRANCH  20  22
ATOM     21  N   UNL     1       6.076  -5.436  25.275  0.00  0.00    -0.302 N 
ATOM     22  C   UNL     1       7.419  -5.352  25.684  0.00  0.00    +0.221 C 
ATOM     23  O   UNL     1       7.792  -5.821  26.763  0.00  0.00    -0.275 OA
BRANCH  21  25
ATOM     24  C   UNL     1       4.224  -7.113  25.239  0.00  0.00    +0.024 C 
ATOM     25  C   UNL     1       5.189  -6.286  26.076  0.00  0.00    +0.104 C 
ENDBRANCH  21  25
BRANCH  21  26
ATOM     26  C   UNL     1       5.596  -4.763  24.061  0.00  0.00    +0.104 C 
ATOM     27  C   UNL     1       5.002  -3.370  24.193  0.00  0.00    +0.024 C 
ENDBRANCH  21  26
ENDBRANCH  20  22
ENDBRANCH   1  20
TORSDOF 6
ENDMDL
MODEL 6
REMARK VINA RESULT:      -6.6      2.340      2.911
REMARK  Name = 
REMARK  9 active torsions:
REMARK  status: ('A' for Active; 'I' for Inactive)
REMARK    1  A    between atoms: C_1  and  C_2
REMARK    2  A    between atoms: C_2  and  N_3
REMARK    3  A    between atoms: N_3  and  C_4
REMARK    4  A    between atoms: C_4  and  C_5
REMARK    5  A    between atoms: C_6  and  C_8
REMARK    6  A    between atoms: C_8  and  C_9
REMARK    7  A    between atoms: N_14  and  S_15
REMARK    8  A    between atoms: S_15  and  C_18
REMARK    9  A    between atoms: C_19  and  C_20
REMARK                            x       y       z     vdW  Elec       q    Type
REMARK                         _______ _______ _______ _____ _____    ______ ____
ROOT
ATOM      1  C   UNL     1       9.283   2.678  24.087  0.00  0.00    +0.052 A 
ATOM      2  N   UNL     1       8.320   1.884  24.622  0.00  0.00    -0.235 NA
ATOM      3  C   UNL     1       8.664   0.616  24.894  0.00  0.00    +0.138 A 
ATOM      4  N   UNL     1       7.616  -0.171  25.415  0.00  0.00    -0.199 N 
ATOM      5  H   UNL     1       6.998   0.413  25.978  0.00  0.00    +0.175 HD
ATOM      6  C   UNL     1       9.918   0.077  24.668  0.00  0.00    +0.045 A 
ATOM      7  C   UNL     1      10.888   0.897  24.112  0.00  0.00    +0.005 A 
ATOM      8  C   UNL     1      10.569   2.216  23.813  0.00  0.00    +0.024 A 
ENDROOT
BRANCH   4   9
ATOM      9  S   UNL     1       6.669  -0.974  24.265  0.00  0.00    +0.074 S 
ATOM     10  O   UNL     1       6.908  -0.383  22.966  0.00  0.00    -0.150 OA
ATOM     11  O   UNL     1       5.319  -1.044  24.791  0.00  0.00    -0.150 OA
BRANCH   9  12
ATOM     12  C   UNL     1       7.310  -2.645  24.250  0.00  0.00    +0.113 A 
ATOM     13  C   UNL     1       8.133  -3.010  25.332  0.00  0.00    +0.029 A 
ATOM     14  C   UNL     1       8.677  -4.288  25.408  0.00  0.00    +0.003 A 
ATOM     15  C   UNL     1       8.405  -5.209  24.404  0.00  0.00    +0.020 A 
ATOM     16  C   UNL     1       7.590  -4.853  23.324  0.00  0.00    +0.046 A 
ATOM     17 CL   UNL     1       7.303  -6.075  22.130  0.00  0.00    -0.083 Cl
ATOM     18  C   UNL     1       7.023  -3.565  23.217  0.00  0.00    -0.006 A 
ATOM     19  C   UNL     1       6.135  -3.252  22.040  0.00  0.00    +0.047 C 
ENDBRANCH   9  12
ENDBRANCH   4   9
BRANCH   1  20
ATOM     20  C   UNL     1       8.914   4.107  23.771  0.00  0.00    +0.151 C 
BRANCH  20  22
ATOM     21  N   UNL     1      10.232   6.026  24.665  0.00  0.00    -0.302 N 
ATOM     22  C   UNL     1       9.220   5.081  24.905  0.00  0.00    +0.221 C 
ATOM     23  O   UNL     1       8.616   5.045  25.980  0.00  0.00    -0.275 OA
BRANCH  21  25
ATOM     24  C   UNL     1      11.402   6.775  26.742  0.00  0.00    +0.024 C 
ATOM     25  C   UNL     1      10.389   7.098  25.654  0.00  0.00    +0.104 C 
ENDBRANCH  21  25
BRANCH  21  26
ATOM     26  C   UNL     1      11.050   5.990  23.445  0.00  0.00    +0.104 C 
ATOM     27  C   UNL     1      12.497   5.537  23.558  0.00  0.00    +0.024 C 
ENDBRANCH  21  26
ENDBRANCH  20  22
ENDBRANCH   1  20
TORSDOF 6
ENDMDL
MODEL 7
REMARK VINA RESULT:      -6.6      3.444      8.553
REMARK  Name = 
REMARK  9 active torsions:
REMARK  status: ('A' for Active; 'I' for Inactive)
REMARK    1  A    between atoms: C_1  and  C_2
REMARK    2  A    between atoms: C_2  and  N_3
REMARK    3  A    between atoms: N_3  and  C_4
REMARK    4  A    between atoms: C_4  and  C_5
REMARK    5  A    between atoms: C_6  and  C_8
REMARK    6  A    between atoms: C_8  and  C_9
REMARK    7  A    between atoms: N_14  and  S_15
REMARK    8  A    between atoms: S_15  and  C_18
REMARK    9  A    between atoms: C_19  and  C_20
REMARK                            x       y       z     vdW  Elec       q    Type
REMARK                         _______ _______ _______ _____ _____    ______ ____
ROOT
ATOM      1  C   UNL     1       7.551  -1.200  22.834  0.00  0.00    +0.052 A 
ATOM      2  N   UNL     1       7.608   0.157  22.855  0.00  0.00    -0.235 NA
ATOM      3  C   UNL     1       8.678   0.726  22.279  0.00  0.00    +0.138 A 
ATOM      4  N   UNL     1       8.701   2.133  22.361  0.00  0.00    -0.199 N 
ATOM      5  H   UNL     1       7.747   2.492  22.335  0.00  0.00    +0.175 HD
ATOM      6  C   UNL     1       9.709   0.028  21.674  0.00  0.00    +0.045 A 
ATOM      7  C   UNL     1       9.642  -1.357  21.669  0.00  0.00    +0.005 A 
ATOM      8  C   UNL     1       8.551  -1.984  22.259  0.00  0.00    +0.024 A 
ENDROOT
BRANCH   4   9
ATOM      9  S   UNL     1       9.457   2.769  23.735  0.00  0.00    +0.074 S 
ATOM     10  O   UNL     1      10.882   2.849  23.493  0.00  0.00    -0.150 OA
ATOM     11  O   UNL     1       8.960   2.031  24.882  0.00  0.00    -0.150 OA
BRANCH   9  12
ATOM     12  C   UNL     1       8.813   4.434  23.868  0.00  0.00    +0.113 A 
ATOM     13  C   UNL     1       9.764   5.470  23.924  0.00  0.00    +0.029 A 
ATOM     14  C   UNL     1       9.360   6.797  24.026  0.00  0.00    +0.003 A 
ATOM     15  C   UNL     1       8.005   7.098  24.075  0.00  0.00    +0.020 A 
ATOM     16  C   UNL     1       7.053   6.073  24.024  0.00  0.00    +0.046 A 
ATOM     17 CL   UNL     1       5.390   6.553  24.082  0.00  0.00    -0.083 Cl
ATOM     18  C   UNL     1       7.430   4.717  23.920  0.00  0.00    -0.006 A 
ATOM     19  C   UNL     1       6.356   3.663  23.844  0.00  0.00    +0.047 C 
ENDBRANCH   9  12
ENDBRANCH   4   9
BRANCH   1  20
ATOM     20  C   UNL     1       6.357  -1.861  23.480  0.00  0.00    +0.151 C 
BRANCH  20  22
ATOM     21  N   UNL     1       6.156  -4.346  23.449  0.00  0.00    -0.302 N 
ATOM     22  C   UNL     1       5.911  -3.137  22.774  0.00  0.00    +0.221 C 
ATOM     23  O   UNL     1       5.365  -3.118  21.668  0.00  0.00    -0.275 OA
BRANCH  21  25
ATOM     24  C   UNL     1       6.467  -6.322  21.951  0.00  0.00    +0.024 C 
ATOM     25  C   UNL     1       5.546  -5.556  22.889  0.00  0.00    +0.104 C 
ENDBRANCH  21  25
BRANCH  21  26
ATOM     26  C   UNL     1       6.928  -4.391  24.698  0.00  0.00    +0.104 C 
ATOM     27  C   UNL     1       8.387  -4.814  24.633  0.00  0.00    +0.024 C 
ENDBRANCH  21  26
ENDBRANCH  20  22
ENDBRANCH   1  20
TORSDOF 6
ENDMDL
MODEL 8
REMARK VINA RESULT:      -6.6      2.622      3.258
REMARK  Name = 
REMARK  9 active torsions:
REMARK  status: ('A' for Active; 'I' for Inactive)
REMARK    1  A    between atoms: C_1  and  C_2
REMARK    2  A    between atoms: C_2  and  N_3
REMARK    3  A    between atoms: N_3  and  C_4
REMARK    4  A    between atoms: C_4  and  C_5
REMARK    5  A    between atoms: C_6  and  C_8
REMARK    6  A    between atoms: C_8  and  C_9
REMARK    7  A    between atoms: N_14  and  S_15
REMARK    8  A    between atoms: S_15  and  C_18
REMARK    9  A    between atoms: C_19  and  C_20
REMARK                            x       y       z     vdW  Elec       q    Type
REMARK                         _______ _______ _______ _____ _____    ______ ____
ROOT
ATOM      1  C   UNL     1       8.509   1.966  22.780  0.00  0.00    +0.052 A 
ATOM      2  N   UNL     1       8.118   0.730  23.185  0.00  0.00    -0.235 NA
ATOM      3  C   UNL     1       8.946   0.077  24.016  0.00  0.00    +0.138 A 
ATOM      4  N   UNL     1       8.506  -1.213  24.376  0.00  0.00    -0.199 N 
ATOM      5  H   UNL     1       7.487  -1.229  24.415  0.00  0.00    +0.175 HD
ATOM      6  C   UNL     1      10.151   0.576  24.478  0.00  0.00    +0.045 A 
ATOM      7  C   UNL     1      10.541   1.835  24.047  0.00  0.00    +0.005 A 
ATOM      8  C   UNL     1       9.713   2.542  23.184  0.00  0.00    +0.024 A 
ENDROOT
BRANCH   4   9
ATOM      9  S   UNL     1       9.006  -2.464  23.352  0.00  0.00    +0.074 S 
ATOM     10  O   UNL     1      10.223  -3.044  23.878  0.00  0.00    -0.150 OA
ATOM     11  O   UNL     1       8.978  -1.948  21.995  0.00  0.00    -0.150 OA
BRANCH   9  12
ATOM     12  C   UNL     1       7.703  -3.685  23.472  0.00  0.00    +0.113 A 
ATOM     13  C   UNL     1       7.028  -4.001  22.277  0.00  0.00    +0.029 A 
ATOM     14  C   UNL     1       6.002  -4.939  22.270  0.00  0.00    +0.003 A 
ATOM     15  C   UNL     1       5.640  -5.566  23.456  0.00  0.00    +0.020 A 
ATOM     16  C   UNL     1       6.303  -5.255  24.648  0.00  0.00    +0.046 A 
ATOM     17 CL   UNL     1       5.784  -6.098  26.070  0.00  0.00    -0.083 Cl
ATOM     18  C   UNL     1       7.349  -4.308  24.689  0.00  0.00    -0.006 A 
ATOM     19  C   UNL     1       8.038  -4.037  26.001  0.00  0.00    +0.047 C 
ENDBRANCH   9  12
ENDBRANCH   4   9
BRANCH   1  20
ATOM     20  C   UNL     1       7.594   2.716  21.842  0.00  0.00    +0.151 C 
BRANCH  20  22
ATOM     21  N   UNL     1       6.336   4.741  22.574  0.00  0.00    -0.302 N 
ATOM     22  C   UNL     1       6.386   3.337  22.537  0.00  0.00    +0.221 C 
ATOM     23  O   UNL     1       5.496   2.648  23.043  0.00  0.00    -0.275 OA
BRANCH  21  25
ATOM     24  C   UNL     1       4.811   6.716  22.433  0.00  0.00    +0.024 C 
ATOM     25  C   UNL     1       5.087   5.350  23.043  0.00  0.00    +0.104 C 
ENDBRANCH  21  25
BRANCH  21  26
ATOM     26  C   UNL     1       7.454   5.567  22.099  0.00  0.00    +0.104 C 
ATOM     27  C   UNL     1       8.429   6.124  23.124  0.00  0.00    +0.024 C 
ENDBRANCH  21  26
ENDBRANCH  20  22
ENDBRANCH   1  20
TORSDOF 6
ENDMDL
MODEL 9
REMARK VINA RESULT:      -6.6      2.265      2.767
REMARK  Name = 
REMARK  9 active torsions:
REMARK  status: ('A' for Active; 'I' for Inactive)
REMARK    1  A    between atoms: C_1  and  C_2
REMARK    2  A    between atoms: C_2  and  N_3
REMARK    3  A    between atoms: N_3  and  C_4
REMARK    4  A    between atoms: C_4  and  C_5
REMARK    5  A    between atoms: C_6  and  C_8
REMARK    6  A    between atoms: C_8  and  C_9
REMARK    7  A    between atoms: N_14  and  S_15
REMARK    8  A    between atoms: S_15  and  C_18
REMARK    9  A    between atoms: C_19  and  C_20
REMARK                            x       y       z     vdW  Elec       q    Type
REMARK                         _______ _______ _______ _____ _____    ______ ____
ROOT
ATOM      1  C   UNL     1       8.112   0.560  23.233  0.00  0.00    +0.052 A 
ATOM      2  N   UNL     1       7.952  -0.707  23.695  0.00  0.00    -0.235 NA
ATOM      3  C   UNL     1       8.547  -1.685  22.995  0.00  0.00    +0.138 A 
ATOM      4  N   UNL     1       8.318  -2.982  23.501  0.00  0.00    -0.199 N 
ATOM      5  H   UNL     1       8.231  -2.942  24.516  0.00  0.00    +0.175 HD
ATOM      6  C   UNL     1       9.302  -1.486  21.853  0.00  0.00    +0.045 A 
ATOM      7  C   UNL     1       9.448  -0.188  21.388  0.00  0.00    +0.005 A 
ATOM      8  C   UNL     1       8.844   0.852  22.083  0.00  0.00    +0.024 A 
ENDROOT
BRANCH   4   9
ATOM      9  S   UNL     1       6.948  -3.767  22.892  0.00  0.00    +0.074 S 
ATOM     10  O   UNL     1       7.352  -4.654  21.822  0.00  0.00    -0.150 OA
ATOM     11  O   UNL     1       5.940  -2.752  22.649  0.00  0.00    -0.150 OA
BRANCH   9  12
ATOM     12  C   UNL     1       6.364  -4.765  24.259  0.00  0.00    +0.113 A 
ATOM     13  C   UNL     1       7.071  -4.644  25.470  0.00  0.00    +0.029 A 
ATOM     14  C   UNL     1       6.691  -5.379  26.588  0.00  0.00    +0.003 A 
ATOM     15  C   UNL     1       5.605  -6.240  26.504  0.00  0.00    +0.020 A 
ATOM     16  C   UNL     1       4.899  -6.369  25.303  0.00  0.00    +0.046 A 
ATOM     17 CL   UNL     1       3.555  -7.462  25.303  0.00  0.00    -0.083 Cl
ATOM     18  C   UNL     1       5.258  -5.638  24.150  0.00  0.00    -0.006 A 
ATOM     19  C   UNL     1       4.442  -5.805  22.894  0.00  0.00    +0.047 C 
ENDBRANCH   9  12
ENDBRANCH   4   9
BRANCH   1  20
ATOM     20  C   UNL     1       7.448   1.675  24.004  0.00  0.00    +0.151 C 
BRANCH  20  22
ATOM     21  N   UNL     1       7.662   4.013  23.164  0.00  0.00    -0.302 N 
ATOM     22  C   UNL     1       6.938   2.808  23.120  0.00  0.00    +0.221 C 
ATOM     23  O   UNL     1       5.943   2.682  22.402  0.00  0.00    -0.275 OA
BRANCH  21  25
ATOM     24  C   UNL     1       7.797   6.428  22.536  0.00  0.00    +0.024 C 
ATOM     25  C   UNL     1       7.317   5.033  22.167  0.00  0.00    +0.104 C 
ENDBRANCH  21  25
BRANCH  21  26
ATOM     26  C   UNL     1       8.762   4.219  24.115  0.00  0.00    +0.104 C 
ATOM     27  C   UNL     1      10.181   3.925  23.655  0.00  0.00    +0.024 C 
ENDBRANCH  21  26
ENDBRANCH  20  22
ENDBRANCH   1  20
TORSDOF 6
ENDMDL
