MODEL 1
REMARK VINA RESULT:      -4.1      0.000      0.000
REMARK  Name = 
REMARK  2 active torsions:
REMARK  status: ('A' for Active; 'I' for Inactive)
REMARK    1  A    between atoms: C_1  and  C_2
REMARK    2  A    between atoms: C_6  and  O_7
REMARK                            x       y       z     vdW  Elec       q    Type
REMARK                         _______ _______ _______ _____ _____    ______ ____
ROOT
ATOM      1  C   UNL     1       8.708  -2.250  22.597  0.00  0.00    +0.044 C 
ATOM      2  C   UNL     1       9.360  -0.970  23.027  0.00  0.00    -0.047 A 
ATOM      3  C   UNL     1       9.500   0.082  22.113  0.00  0.00    +0.048 A 
ATOM      4  C   UNL     1      10.102   1.273  22.507  0.00  0.00    +0.117 A 
ATOM      5  C   UNL     1      10.580   1.437  23.803  0.00  0.00    +0.045 A 
ATOM      6  C   UNL     1      10.450   0.391  24.716  0.00  0.00    +0.004 A 
ATOM      7  C   UNL     1       9.843  -0.808  24.331  0.00  0.00    +0.003 A 
ENDROOT
BRANCH   4   8
ATOM      8  O   UNL     1      10.205   2.270  21.581  0.00  0.00    -0.507 OA
ATOM      9  H   UNL     1      11.023   2.137  21.077  0.00  0.00    +0.292 HD
ENDBRANCH   4   8
TORSDOF 1
ENDMDL
MODEL 2
REMARK VINA RESULT:      -4.1      2.132      3.656
REMARK  Name = 
REMARK  2 active torsions:
REMARK  status: ('A' for Active; 'I' for Inactive)
REMARK    1  A    between atoms: C_1  and  C_2
REMARK    2  A    between atoms: C_6  and  O_7
REMARK                            x       y       z     vdW  Elec       q    Type
REMARK                         _______ _______ _______ _____ _____    ______ ____
ROOT
ATOM      1  C   UNL     1      10.611   2.119  23.887  0.00  0.00    +0.044 C 
ATOM      2  C   UNL     1      10.214   0.875  23.148  0.00  0.00    -0.047 A 
ATOM      3  C   UNL     1      10.405  -0.379  23.742  0.00  0.00    +0.048 A 
ATOM      4  C   UNL     1      10.036  -1.536  23.063  0.00  0.00    +0.117 A 
ATOM      5  C   UNL     1       9.483  -1.470  21.788  0.00  0.00    +0.045 A 
ATOM      6  C   UNL     1       9.297  -0.224  21.188  0.00  0.00    +0.004 A 
ATOM      7  C   UNL     1       9.660   0.944  21.864  0.00  0.00    +0.003 A 
ENDROOT
BRANCH   4   8
ATOM      8  O   UNL     1      10.233  -2.731  23.690  0.00  0.00    -0.507 OA
ATOM      9  H   UNL     1      10.067  -2.611  24.639  0.00  0.00    +0.292 HD
ENDBRANCH   4   8
TORSDOF 1
ENDMDL
MODEL 3
REMARK VINA RESULT:      -4.1      1.406      2.928
REMARK  Name = 
REMARK  2 active torsions:
REMARK  status: ('A' for Active; 'I' for Inactive)
REMARK    1  A    between atoms: C_1  and  C_2
REMARK    2  A    between atoms: C_6  and  O_7
REMARK                            x       y       z     vdW  Elec       q    Type
REMARK                         _______ _______ _______ _____ _____    ______ ____
ROOT
ATOM      1  C   UNL     1      10.624   3.254  23.365  0.00  0.00    +0.044 C 
ATOM      2  C   UNL     1      10.384   1.774  23.346  0.00  0.00    -0.047 A 
ATOM      3  C   UNL     1      10.052   1.138  22.143  0.00  0.00    +0.048 A 
ATOM      4  C   UNL     1       9.830  -0.236  22.118  0.00  0.00    +0.117 A 
ATOM      5  C   UNL     1       9.925  -0.996  23.280  0.00  0.00    +0.045 A 
ATOM      6  C   UNL     1      10.249  -0.367  24.482  0.00  0.00    +0.004 A 
ATOM      7  C   UNL     1      10.478   1.011  24.516  0.00  0.00    +0.003 A 
ENDROOT
BRANCH   4   8
ATOM      8  O   UNL     1       9.520  -0.808  20.920  0.00  0.00    -0.507 OA
ATOM      9  H   UNL     1       8.697  -0.410  20.594  0.00  0.00    +0.292 HD
ENDBRANCH   4   8
TORSDOF 1
ENDMDL
MODEL 4
REMARK VINA RESULT:      -4.0      1.300      2.175
REMARK  Name = 
REMARK  2 active torsions:
REMARK  status: ('A' for Active; 'I' for Inactive)
REMARK    1  A    between atoms: C_1  and  C_2
REMARK    2  A    between atoms: C_6  and  O_7
REMARK                            x       y       z     vdW  Elec       q    Type
REMARK                         _______ _______ _______ _____ _____    ______ ____
ROOT
ATOM      1  C   UNL     1       9.774  -2.751  23.977  0.00  0.00    +0.044 C 
ATOM      2  C   UNL     1       9.808  -1.422  23.283  0.00  0.00    -0.047 A 
ATOM      3  C   UNL     1      10.263  -0.289  23.970  0.00  0.00    +0.048 A 
ATOM      4  C   UNL     1      10.299   0.946  23.330  0.00  0.00    +0.117 A 
ATOM      5  C   UNL     1       9.879   1.080  22.011  0.00  0.00    +0.045 A 
ATOM      6  C   UNL     1       9.419  -0.043  21.324  0.00  0.00    +0.004 A 
ATOM      7  C   UNL     1       9.383  -1.289  21.955  0.00  0.00    +0.003 A 
ENDROOT
BRANCH   4   8
ATOM      8  O   UNL     1      10.760   2.016  24.040  0.00  0.00    -0.507 OA
ATOM      9  H   UNL     1      11.120   1.693  24.882  0.00  0.00    +0.292 HD
ENDBRANCH   4   8
TORSDOF 1
ENDMDL
MODEL 5
REMARK VINA RESULT:      -3.8      0.951      2.303
REMARK  Name = 
REMARK  2 active torsions:
REMARK  status: ('A' for Active; 'I' for Inactive)
REMARK    1  A    between atoms: C_1  and  C_2
REMARK    2  A    between atoms: C_6  and  O_7
REMARK                            x       y       z     vdW  Elec       q    Type
REMARK                         _______ _______ _______ _____ _____    ______ ____
ROOT
ATOM      1  C   UNL     1       9.068  -0.138  25.647  0.00  0.00    +0.044 C 
ATOM      2  C   UNL     1       9.209  -0.100  24.154  0.00  0.00    -0.047 A 
ATOM      3  C   UNL     1       9.679   1.061  23.529  0.00  0.00    +0.048 A 
ATOM      4  C   UNL     1       9.816   1.102  22.145  0.00  0.00    +0.117 A 
ATOM      5  C   UNL     1       9.482   0.001  21.362  0.00  0.00    +0.045 A 
ATOM      6  C   UNL     1       9.007  -1.156  21.978  0.00  0.00    +0.004 A 
ATOM      7  C   UNL     1       8.871  -1.208  23.368  0.00  0.00    +0.003 A 
ENDROOT
BRANCH   4   8
ATOM      8  O   UNL     1      10.287   2.253  21.586  0.00  0.00    -0.507 OA
ATOM      9  H   UNL     1      10.583   2.057  20.682  0.00  0.00    +0.292 HD
ENDBRANCH   4   8
TORSDOF 1
ENDMDL
MODEL 6
REMARK VINA RESULT:      -3.8      1.466      2.386
REMARK  Name = 
REMARK  2 active torsions:
REMARK  status: ('A' for Active; 'I' for Inactive)
REMARK    1  A    between atoms: C_1  and  C_2
REMARK    2  A    between atoms: C_6  and  O_7
REMARK                            x       y       z     vdW  Elec       q    Type
REMARK                         _______ _______ _______ _____ _____    ______ ____
ROOT
ATOM      1  C   UNL     1       9.248  -0.424  25.772  0.00  0.00    +0.044 C 
ATOM      2  C   UNL     1       9.519   0.229  24.450  0.00  0.00    -0.047 A 
ATOM      3  C   UNL     1       9.415  -0.518  23.270  0.00  0.00    +0.048 A 
ATOM      4  C   UNL     1       9.662   0.084  22.040  0.00  0.00    +0.117 A 
ATOM      5  C   UNL     1      10.023   1.425  21.960  0.00  0.00    +0.045 A 
ATOM      6  C   UNL     1      10.134   2.172  23.132  0.00  0.00    +0.004 A 
ATOM      7  C   UNL     1       9.884   1.579  24.372  0.00  0.00    +0.003 A 
ENDROOT
BRANCH   4   8
ATOM      8  O   UNL     1       9.537  -0.685  20.920  0.00  0.00    -0.507 OA
ATOM      9  H   UNL     1       8.604  -0.935  20.821  0.00  0.00    +0.292 HD
ENDBRANCH   4   8
TORSDOF 1
ENDMDL
MODEL 7
REMARK VINA RESULT:      -3.7      2.213      3.640
REMARK  Name = 
REMARK  2 active torsions:
REMARK  status: ('A' for Active; 'I' for Inactive)
REMARK    1  A    between atoms: C_1  and  C_2
REMARK    2  A    between atoms: C_6  and  O_7
REMARK                            x       y       z     vdW  Elec       q    Type
REMARK                         _______ _______ _______ _____ _____    ______ ____
ROOT
ATOM      1  C   UNL     1       8.165   3.902  23.047  0.00  0.00    +0.044 C 
ATOM      2  C   UNL     1       8.913   2.602  23.054  0.00  0.00    -0.047 A 
ATOM      3  C   UNL     1       9.455   2.117  24.250  0.00  0.00    +0.048 A 
ATOM      4  C   UNL     1      10.148   0.911  24.263  0.00  0.00    +0.117 A 
ATOM      5  C   UNL     1      10.321   0.173  23.096  0.00  0.00    +0.045 A 
ATOM      6  C   UNL     1       9.788   0.655  21.900  0.00  0.00    +0.004 A 
ATOM      7  C   UNL     1       9.087   1.863  21.877  0.00  0.00    +0.003 A 
ENDROOT
BRANCH   4   8
ATOM      8  O   UNL     1      10.648   0.478  25.457  0.00  0.00    -0.507 OA
ATOM      9  H   UNL     1      11.595   0.686  25.486  0.00  0.00    +0.292 HD
ENDBRANCH   4   8
TORSDOF 1
ENDMDL
MODEL 8
REMARK VINA RESULT:      -3.6      2.341      3.090
REMARK  Name = 
REMARK  2 active torsions:
REMARK  status: ('A' for Active; 'I' for Inactive)
REMARK    1  A    between atoms: C_1  and  C_2
REMARK    2  A    between atoms: C_6  and  O_7
REMARK                            x       y       z     vdW  Elec       q    Type
REMARK                         _______ _______ _______ _____ _____    ______ ____
ROOT
ATOM      1  C   UNL     1       6.272  -0.387  24.232  0.00  0.00    +0.044 C 
ATOM      2  C   UNL     1       7.323  -0.025  23.226  0.00  0.00    -0.047 A 
ATOM      3  C   UNL     1       8.310  -0.958  22.884  0.00  0.00    +0.048 A 
ATOM      4  C   UNL     1       9.286  -0.629  21.949  0.00  0.00    +0.117 A 
ATOM      5  C   UNL     1       9.305   0.625  21.347  0.00  0.00    +0.045 A 
ATOM      6  C   UNL     1       8.329   1.561  21.688  0.00  0.00    +0.004 A 
ATOM      7  C   UNL     1       7.341   1.239  22.623  0.00  0.00    +0.003 A 
ENDROOT
BRANCH   4   8
ATOM      8  O   UNL     1      10.219  -1.576  21.643  0.00  0.00    -0.507 OA
ATOM      9  H   UNL     1       9.786  -2.445  21.650  0.00  0.00    +0.292 HD
ENDBRANCH   4   8
TORSDOF 1
ENDMDL
MODEL 9
REMARK VINA RESULT:      -3.6      1.739      2.937
REMARK  Name = 
REMARK  2 active torsions:
REMARK  status: ('A' for Active; 'I' for Inactive)
REMARK    1  A    between atoms: C_1  and  C_2
REMARK    2  A    between atoms: C_6  and  O_7
REMARK                            x       y       z     vdW  Elec       q    Type
REMARK                         _______ _______ _______ _____ _____    ______ ____
ROOT
ATOM      1  C   UNL     1      10.950   0.612  24.792  0.00  0.00    +0.044 C 
ATOM      2  C   UNL     1      10.091   0.973  23.618  0.00  0.00    -0.047 A 
ATOM      3  C   UNL     1       9.327   2.146  23.648  0.00  0.00    +0.048 A 
ATOM      4  C   UNL     1       8.530   2.488  22.560  0.00  0.00    +0.117 A 
ATOM      5  C   UNL     1       8.470   1.673  21.434  0.00  0.00    +0.045 A 
ATOM      6  C   UNL     1       9.224   0.499  21.400  0.00  0.00    +0.004 A 
ATOM      7  C   UNL     1      10.031   0.150  22.486  0.00  0.00    +0.003 A 
ENDROOT
BRANCH   4   8
ATOM      8  O   UNL     1       7.814   3.646  22.635  0.00  0.00    -0.507 OA
ATOM      9  H   UNL     1       8.393   4.382  22.383  0.00  0.00    +0.292 HD
ENDBRANCH   4   8
TORSDOF 1
ENDMDL
