MODEL 1
REMARK VINA RESULT:      -8.1      0.000      0.000
REMARK  Name = 
REMARK  5 active torsions:
REMARK  status: ('A' for Active; 'I' for Inactive)
REMARK    1  A    between atoms: C_1  and  O_2
REMARK    2  A    between atoms: O_2  and  C_3
REMARK    3  A    between atoms: C_5  and  C_10
REMARK    4  A    between atoms: C_8  and  O_9
REMARK    5  A    between atoms: C_16  and  C_19
REMARK                            x       y       z     vdW  Elec       q    Type
REMARK                         _______ _______ _______ _____ _____    ______ ____
ROOT
ATOM      1  C   UNL     1       6.802  -2.754  23.273  0.00  0.00    -0.016 A 
ATOM      2  C   UNL     1       6.242  -1.559  23.771  0.00  0.00    +0.009 A 
ATOM      3  C   UNL     1       6.821  -0.303  23.553  0.00  0.00    +0.013 A 
ATOM      4  C   UNL     1       7.985  -0.221  22.776  0.00  0.00    +0.030 A 
ATOM      5  C   UNL     1       8.844   0.816  22.335  0.00  0.00    +0.135 A 
ATOM      6  N   UNL     1       9.842   0.350  21.566  0.00  0.00    -0.170 NA
ATOM      7  N   UNL     1       9.625  -0.981  21.551  0.00  0.00    -0.276 N 
ATOM      8  H   UNL     1      10.270  -1.566  21.031  0.00  0.00    +0.189 HD
ATOM      9  C   UNL     1       8.528  -1.390  22.260  0.00  0.00    +0.067 A 
ATOM     10  C   UNL     1       7.974  -2.660  22.491  0.00  0.00    +0.036 A 
ENDROOT
BRANCH   5  11
ATOM     11  C   UNL     1       8.712   2.268  22.656  0.00  0.00    +0.160 A 
ATOM     12  N   UNL     1       7.822   3.094  22.018  0.00  0.00    -0.337 N 
ATOM     13  H   UNL     1       7.183   2.784  21.300  0.00  0.00    +0.167 HD
ATOM     14  C   UNL     1       7.975   4.362  22.512  0.00  0.00    +0.067 A 
ATOM     15  C   UNL     1       8.980   4.235  23.466  0.00  0.00    +0.090 A 
ATOM     16  C   UNL     1       9.399   5.371  24.175  0.00  0.00    +0.030 A 
ATOM     17  C   UNL     1       8.793   6.601  23.893  0.00  0.00    +0.002 A 
ATOM     18  C   UNL     1       7.785   6.697  22.930  0.00  0.00    +0.002 A 
ATOM     19  C   UNL     1       7.349   5.574  22.217  0.00  0.00    +0.028 A 
ATOM     20  N   UNL     1       9.416   2.935  23.552  0.00  0.00    -0.226 NA
ENDBRANCH   5  11
BRANCH   1  25
ATOM     21  C   UNL     1       5.715  -5.848  25.214  0.00  0.00    +0.162 A 
ATOM     22  C   UNL     1       4.837  -6.447  24.310  0.00  0.00    +0.158 A 
ATOM     23  C   UNL     1       4.641  -5.900  23.043  0.00  0.00    +0.050 A 
ATOM     24  C   UNL     1       5.294  -4.713  22.685  0.00  0.00    +0.012 A 
ATOM     25  C   UNL     1       6.160  -4.060  23.579  0.00  0.00    -0.014 A 
ATOM     26  C   UNL     1       6.377  -4.677  24.830  0.00  0.00    +0.058 A 
BRANCH  21  28
ATOM     27  C   UNL     1       6.420  -5.636  27.476  0.00  0.00    +0.277 C 
ATOM     28  O   UNL     1       5.836  -6.430  26.450  0.00  0.00    -0.491 OA
ENDBRANCH  21  28
BRANCH  22  29
ATOM     29  O   UNL     1       4.171  -7.586  24.675  0.00  0.00    -0.503 OA
ATOM     30  H   UNL     1       3.543  -7.375  25.383  0.00  0.00    +0.292 HD
ENDBRANCH  22  29
ENDBRANCH   1  25
TORSDOF 4
ENDMDL
MODEL 2
REMARK VINA RESULT:      -7.9      4.676      9.621
REMARK  Name = 
REMARK  5 active torsions:
REMARK  status: ('A' for Active; 'I' for Inactive)
REMARK    1  A    between atoms: C_1  and  O_2
REMARK    2  A    between atoms: O_2  and  C_3
REMARK    3  A    between atoms: C_5  and  C_10
REMARK    4  A    between atoms: C_8  and  O_9
REMARK    5  A    between atoms: C_16  and  C_19
REMARK                            x       y       z     vdW  Elec       q    Type
REMARK                         _______ _______ _______ _____ _____    ______ ____
ROOT
ATOM      1  C   UNL     1       9.236   0.875  24.681  0.00  0.00    -0.016 A 
ATOM      2  C   UNL     1       8.242   0.441  25.584  0.00  0.00    +0.009 A 
ATOM      3  C   UNL     1       7.951  -0.912  25.797  0.00  0.00    +0.013 A 
ATOM      4  C   UNL     1       8.701  -1.880  25.114  0.00  0.00    +0.030 A 
ATOM      5  C   UNL     1       8.724  -3.295  25.055  0.00  0.00    +0.135 A 
ATOM      6  N   UNL     1       9.686  -3.749  24.235  0.00  0.00    -0.170 NA
ATOM      7  N   UNL     1      10.245  -2.618  23.758  0.00  0.00    -0.276 N 
ATOM      8  H   UNL     1      11.007  -2.703  23.094  0.00  0.00    +0.189 HD
ATOM      9  C   UNL     1       9.699  -1.461  24.244  0.00  0.00    +0.067 A 
ATOM     10  C   UNL     1       9.986  -0.107  24.001  0.00  0.00    +0.036 A 
ENDROOT
BRANCH   5  11
ATOM     11  C   UNL     1       7.812  -4.224  25.786  0.00  0.00    +0.160 A 
ATOM     12  N   UNL     1       6.767  -4.872  25.179  0.00  0.00    -0.337 N 
ATOM     13  H   UNL     1       6.543  -4.783  24.198  0.00  0.00    +0.167 HD
ATOM     14  C   UNL     1       6.107  -5.611  26.124  0.00  0.00    +0.067 A 
ATOM     15  C   UNL     1       6.817  -5.375  27.296  0.00  0.00    +0.090 A 
ATOM     16  C   UNL     1       6.399  -5.988  28.487  0.00  0.00    +0.030 A 
ATOM     17  C   UNL     1       5.269  -6.815  28.456  0.00  0.00    +0.002 A 
ATOM     18  C   UNL     1       4.577  -7.035  27.262  0.00  0.00    +0.002 A 
ATOM     19  C   UNL     1       4.984  -6.438  26.063  0.00  0.00    +0.028 A 
ATOM     20  N   UNL     1       7.874  -4.527  27.069  0.00  0.00    -0.226 NA
ENDBRANCH   5  11
BRANCH   1  25
ATOM     21  C   UNL     1      10.812   4.116  23.440  0.00  0.00    +0.162 A 
ATOM     22  C   UNL     1       9.877   5.059  23.868  0.00  0.00    +0.158 A 
ATOM     23  C   UNL     1       8.770   4.670  24.620  0.00  0.00    +0.050 A 
ATOM     24  C   UNL     1       8.564   3.315  24.911  0.00  0.00    +0.012 A 
ATOM     25  C   UNL     1       9.464   2.330  24.470  0.00  0.00    -0.014 A 
ATOM     26  C   UNL     1      10.603   2.771  23.762  0.00  0.00    +0.058 A 
BRANCH  21  28
ATOM     27  C   UNL     1      13.047   4.929  23.385  0.00  0.00    +0.277 C 
ATOM     28  O   UNL     1      11.862   4.571  22.684  0.00  0.00    -0.491 OA
ENDBRANCH  21  28
BRANCH  22  29
ATOM     29  O   UNL     1      10.061   6.378  23.550  0.00  0.00    -0.503 OA
ATOM     30  H   UNL     1       9.470   6.922  24.093  0.00  0.00    +0.292 HD
ENDBRANCH  22  29
ENDBRANCH   1  25
TORSDOF 4
ENDMDL
MODEL 3
REMARK VINA RESULT:      -7.7      4.513      9.477
REMARK  Name = 
REMARK  5 active torsions:
REMARK  status: ('A' for Active; 'I' for Inactive)
REMARK    1  A    between atoms: C_1  and  O_2
REMARK    2  A    between atoms: O_2  and  C_3
REMARK    3  A    between atoms: C_5  and  C_10
REMARK    4  A    between atoms: C_8  and  O_9
REMARK    5  A    between atoms: C_16  and  C_19
REMARK                            x       y       z     vdW  Elec       q    Type
REMARK                         _______ _______ _______ _____ _____    ______ ____
ROOT
ATOM      1  C   UNL     1       9.311   0.833  24.528  0.00  0.00    -0.016 A 
ATOM      2  C   UNL     1       8.299   0.432  25.427  0.00  0.00    +0.009 A 
ATOM      3  C   UNL     1       8.000  -0.913  25.679  0.00  0.00    +0.013 A 
ATOM      4  C   UNL     1       8.758  -1.905  25.041  0.00  0.00    +0.030 A 
ATOM      5  C   UNL     1       8.777  -3.322  25.028  0.00  0.00    +0.135 A 
ATOM      6  N   UNL     1       9.751  -3.806  24.240  0.00  0.00    -0.170 NA
ATOM      7  N   UNL     1      10.322  -2.692  23.737  0.00  0.00    -0.276 N 
ATOM      8  H   UNL     1      11.095  -2.801  23.090  0.00  0.00    +0.189 HD
ATOM      9  C   UNL     1       9.772  -1.518  24.175  0.00  0.00    +0.067 A 
ATOM     10  C   UNL     1      10.068  -0.174  23.893  0.00  0.00    +0.036 A 
ENDROOT
BRANCH   5  11
ATOM     11  C   UNL     1       7.849  -4.224  25.774  0.00  0.00    +0.160 A 
ATOM     12  N   UNL     1       6.799  -4.871  25.175  0.00  0.00    -0.337 N 
ATOM     13  H   UNL     1       6.583  -4.800  24.191  0.00  0.00    +0.167 HD
ATOM     14  C   UNL     1       6.125  -5.582  26.131  0.00  0.00    +0.067 A 
ATOM     15  C   UNL     1       6.830  -5.329  27.303  0.00  0.00    +0.090 A 
ATOM     16  C   UNL     1       6.397  -5.911  28.503  0.00  0.00    +0.030 A 
ATOM     17  C   UNL     1       5.258  -6.725  28.483  0.00  0.00    +0.002 A 
ATOM     18  C   UNL     1       4.570  -6.961  27.290  0.00  0.00    +0.002 A 
ATOM     19  C   UNL     1       4.991  -6.396  26.081  0.00  0.00    +0.028 A 
ATOM     20  N   UNL     1       7.899  -4.499  27.064  0.00  0.00    -0.226 NA
ENDBRANCH   5  11
BRANCH   1  25
ATOM     21  C   UNL     1       8.852   4.615  24.631  0.00  0.00    +0.162 A 
ATOM     22  C   UNL     1      10.013   5.051  23.992  0.00  0.00    +0.158 A 
ATOM     23  C   UNL     1      10.918   4.134  23.460  0.00  0.00    +0.050 A 
ATOM     24  C   UNL     1      10.688   2.759  23.606  0.00  0.00    +0.012 A 
ATOM     25  C   UNL     1       9.547   2.279  24.273  0.00  0.00    -0.014 A 
ATOM     26  C   UNL     1       8.627   3.239  24.746  0.00  0.00    +0.058 A 
BRANCH  21  28
ATOM     27  C   UNL     1       7.751   5.499  26.545  0.00  0.00    +0.277 C 
ATOM     28  O   UNL     1       8.023   5.576  25.150  0.00  0.00    -0.491 OA
ENDBRANCH  21  28
BRANCH  22  29
ATOM     29  O   UNL     1      10.255   6.394  23.882  0.00  0.00    -0.503 OA
ATOM     30  H   UNL     1      11.131   6.591  24.248  0.00  0.00    +0.292 HD
ENDBRANCH  22  29
ENDBRANCH   1  25
TORSDOF 4
ENDMDL
MODEL 4
REMARK VINA RESULT:      -7.6      4.498      9.476
REMARK  Name = 
REMARK  5 active torsions:
REMARK  status: ('A' for Active; 'I' for Inactive)
REMARK    1  A    between atoms: C_1  and  O_2
REMARK    2  A    between atoms: O_2  and  C_3
REMARK    3  A    between atoms: C_5  and  C_10
REMARK    4  A    between atoms: C_8  and  O_9
REMARK    5  A    between atoms: C_16  and  C_19
REMARK                            x       y       z     vdW  Elec       q    Type
REMARK                         _______ _______ _______ _____ _____    ______ ____
ROOT
ATOM      1  C   UNL     1       9.029   1.466  24.361  0.00  0.00    -0.016 A 
ATOM      2  C   UNL     1       7.846   0.875  24.855  0.00  0.00    +0.009 A 
ATOM      3  C   UNL     1       7.594  -0.500  24.770  0.00  0.00    +0.013 A 
ATOM      4  C   UNL     1       8.570  -1.332  24.203  0.00  0.00    +0.030 A 
ATOM      5  C   UNL     1       8.700  -2.719  23.944  0.00  0.00    +0.135 A 
ATOM      6  N   UNL     1       9.885  -3.018  23.387  0.00  0.00    -0.170 NA
ATOM      7  N   UNL     1      10.483  -1.815  23.270  0.00  0.00    -0.276 N 
ATOM      8  H   UNL     1      11.408  -1.779  22.855  0.00  0.00    +0.189 HD
ATOM      9  C   UNL     1       9.747  -0.761  23.738  0.00  0.00    +0.067 A 
ATOM     10  C   UNL     1      10.004   0.619  23.794  0.00  0.00    +0.036 A 
ENDROOT
BRANCH   5  11
ATOM     11  C   UNL     1       7.677  -3.770  24.228  0.00  0.00    +0.160 A 
ATOM     12  N   UNL     1       6.873  -4.307  23.256  0.00  0.00    -0.337 N 
ATOM     13  H   UNL     1       6.919  -4.048  22.281  0.00  0.00    +0.167 HD
ATOM     14  C   UNL     1       6.025  -5.207  23.843  0.00  0.00    +0.067 A 
ATOM     15  C   UNL     1       6.376  -5.177  25.189  0.00  0.00    +0.090 A 
ATOM     16  C   UNL     1       5.686  -5.994  26.097  0.00  0.00    +0.030 A 
ATOM     17  C   UNL     1       4.655  -6.811  25.616  0.00  0.00    +0.002 A 
ATOM     18  C   UNL     1       4.326  -6.821  24.258  0.00  0.00    +0.002 A 
ATOM     19  C   UNL     1       5.008  -6.019  23.336  0.00  0.00    +0.028 A 
ATOM     20  N   UNL     1       7.406  -4.294  25.409  0.00  0.00    -0.226 NA
ENDBRANCH   5  11
BRANCH   1  25
ATOM     21  C   UNL     1      10.460   4.942  23.734  0.00  0.00    +0.162 A 
ATOM     22  C   UNL     1       9.534   5.746  24.401  0.00  0.00    +0.158 A 
ATOM     23  C   UNL     1       8.484   5.174  25.117  0.00  0.00    +0.050 A 
ATOM     24  C   UNL     1       8.323   3.782  25.132  0.00  0.00    +0.012 A 
ATOM     25  C   UNL     1       9.214   2.939  24.444  0.00  0.00    -0.014 A 
ATOM     26  C   UNL     1      10.297   3.553  23.780  0.00  0.00    +0.058 A 
BRANCH  21  28
ATOM     27  C   UNL     1      12.791   5.230  23.358  0.00  0.00    +0.277 C 
ATOM     28  O   UNL     1      11.450   5.577  23.030  0.00  0.00    -0.491 OA
ENDBRANCH  21  28
BRANCH  22  29
ATOM     29  O   UNL     1       9.672   7.107  24.354  0.00  0.00    -0.503 OA
ATOM     30  H   UNL     1      10.579   7.344  24.597  0.00  0.00    +0.292 HD
ENDBRANCH  22  29
ENDBRANCH   1  25
TORSDOF 4
ENDMDL
MODEL 5
REMARK VINA RESULT:      -7.5      4.730      9.900
REMARK  Name = 
REMARK  5 active torsions:
REMARK  status: ('A' for Active; 'I' for Inactive)
REMARK    1  A    between atoms: C_1  and  O_2
REMARK    2  A    between atoms: O_2  and  C_3
REMARK    3  A    between atoms: C_5  and  C_10
REMARK    4  A    between atoms: C_8  and  O_9
REMARK    5  A    between atoms: C_16  and  C_19
REMARK                            x       y       z     vdW  Elec       q    Type
REMARK                         _______ _______ _______ _____ _____    ______ ____
ROOT
ATOM      1  C   UNL     1       7.407  -2.275  23.755  0.00  0.00    -0.016 A 
ATOM      2  C   UNL     1       6.064  -2.590  23.459  0.00  0.00    +0.009 A 
ATOM      3  C   UNL     1       5.403  -3.691  24.018  0.00  0.00    +0.013 A 
ATOM      4  C   UNL     1       6.090  -4.494  24.940  0.00  0.00    +0.030 A 
ATOM      5  C   UNL     1       5.792  -5.649  25.704  0.00  0.00    +0.135 A 
ATOM      6  N   UNL     1       6.825  -6.022  26.477  0.00  0.00    -0.170 NA
ATOM      7  N   UNL     1       7.779  -5.118  26.174  0.00  0.00    -0.276 N 
ATOM      8  H   UNL     1       8.679  -5.199  26.634  0.00  0.00    +0.189 HD
ATOM      9  C   UNL     1       7.404  -4.175  25.256  0.00  0.00    +0.067 A 
ATOM     10  C   UNL     1       8.088  -3.089  24.684  0.00  0.00    +0.036 A 
ENDROOT
BRANCH   5  11
ATOM     11  C   UNL     1       4.506  -6.409  25.691  0.00  0.00    +0.160 A 
ATOM     12  N   UNL     1       3.564  -6.294  26.681  0.00  0.00    -0.337 N 
ATOM     13  H   UNL     1       3.659  -5.683  27.479  0.00  0.00    +0.167 HD
ATOM     14  C   UNL     1       2.529  -7.144  26.395  0.00  0.00    +0.067 A 
ATOM     15  C   UNL     1       2.904  -7.745  25.198  0.00  0.00    +0.090 A 
ATOM     16  C   UNL     1       2.055  -8.696  24.613  0.00  0.00    +0.030 A 
ATOM     17  C   UNL     1       0.855  -9.015  25.261  0.00  0.00    +0.002 A 
ATOM     18  C   UNL     1       0.505  -8.393  26.462  0.00  0.00    +0.002 A 
ATOM     19  C   UNL     1       1.335  -7.436  27.057  0.00  0.00    +0.028 A 
ATOM     20  N   UNL     1       4.121  -7.272  24.770  0.00  0.00    -0.226 NA
ENDBRANCH   5  11
BRANCH   1  25
ATOM     21  C   UNL     1       8.441   1.317  23.007  0.00  0.00    +0.162 A 
ATOM     22  C   UNL     1       9.397   1.126  22.009  0.00  0.00    +0.158 A 
ATOM     23  C   UNL     1       9.666  -0.150  21.518  0.00  0.00    +0.050 A 
ATOM     24  C   UNL     1       9.007  -1.262  22.061  0.00  0.00    +0.012 A 
ATOM     25  C   UNL     1       8.062  -1.116  23.091  0.00  0.00    -0.014 A 
ATOM     26  C   UNL     1       7.776   0.198  23.520  0.00  0.00    +0.058 A 
BRANCH  21  28
ATOM     27  C   UNL     1       8.686   2.882  24.782  0.00  0.00    +0.277 C 
ATOM     28  O   UNL     1       8.250   2.598  23.457  0.00  0.00    -0.491 OA
ENDBRANCH  21  28
BRANCH  22  29
ATOM     29  O   UNL     1      10.066   2.209  21.506  0.00  0.00    -0.503 OA
ATOM     30  H   UNL     1       9.912   2.974  22.081  0.00  0.00    +0.292 HD
ENDBRANCH  22  29
ENDBRANCH   1  25
TORSDOF 4
ENDMDL
MODEL 6
REMARK VINA RESULT:      -7.4      1.990      2.786
REMARK  Name = 
REMARK  5 active torsions:
REMARK  status: ('A' for Active; 'I' for Inactive)
REMARK    1  A    between atoms: C_1  and  O_2
REMARK    2  A    between atoms: O_2  and  C_3
REMARK    3  A    between atoms: C_5  and  C_10
REMARK    4  A    between atoms: C_8  and  O_9
REMARK    5  A    between atoms: C_16  and  C_19
REMARK                            x       y       z     vdW  Elec       q    Type
REMARK                         _______ _______ _______ _____ _____    ______ ____
ROOT
ATOM      1  C   UNL     1       7.268  -1.692  24.837  0.00  0.00    -0.016 A 
ATOM      2  C   UNL     1       8.358  -1.004  25.412  0.00  0.00    +0.009 A 
ATOM      3  C   UNL     1       8.762   0.267  24.984  0.00  0.00    +0.013 A 
ATOM      4  C   UNL     1       8.034   0.901  23.967  0.00  0.00    +0.030 A 
ATOM      5  C   UNL     1       8.109   2.137  23.279  0.00  0.00    +0.135 A 
ATOM      6  N   UNL     1       7.122   2.273  22.378  0.00  0.00    -0.170 NA
ATOM      7  N   UNL     1       6.447   1.110  22.481  0.00  0.00    -0.276 N 
ATOM      8  H   UNL     1       5.645   0.967  21.878  0.00  0.00    +0.189 HD
ATOM      9  C   UNL     1       6.944   0.241  23.414  0.00  0.00    +0.067 A 
ATOM     10  C   UNL     1       6.541  -1.044  23.815  0.00  0.00    +0.036 A 
ENDROOT
BRANCH   5  11
ATOM     11  C   UNL     1       9.140   3.198  23.482  0.00  0.00    +0.160 A 
ATOM     12  N   UNL     1      10.412   3.106  22.977  0.00  0.00    -0.337 N 
ATOM     13  H   UNL     1      10.742   2.329  22.424  0.00  0.00    +0.167 HD
ATOM     14  C   UNL     1      11.116   4.213  23.370  0.00  0.00    +0.067 A 
ATOM     15  C   UNL     1      10.200   4.953  24.111  0.00  0.00    +0.090 A 
ATOM     16  C   UNL     1      10.601   6.171  24.679  0.00  0.00    +0.030 A 
ATOM     17  C   UNL     1      11.920   6.601  24.486  0.00  0.00    +0.002 A 
ATOM     18  C   UNL     1      12.817   5.836  23.735  0.00  0.00    +0.002 A 
ATOM     19  C   UNL     1      12.433   4.622  23.155  0.00  0.00    +0.028 A 
ATOM     20  N   UNL     1       8.981   4.320  24.160  0.00  0.00    -0.226 NA
ENDBRANCH   5  11
BRANCH   1  25
ATOM     21  C   UNL     1       6.329  -4.544  27.184  0.00  0.00    +0.162 A 
ATOM     22  C   UNL     1       6.081  -5.576  26.278  0.00  0.00    +0.158 A 
ATOM     23  C   UNL     1       6.282  -5.385  24.912  0.00  0.00    +0.050 A 
ATOM     24  C   UNL     1       6.692  -4.133  24.434  0.00  0.00    +0.012 A 
ATOM     25  C   UNL     1       6.919  -3.058  25.310  0.00  0.00    -0.014 A 
ATOM     26  C   UNL     1       6.761  -3.309  26.690  0.00  0.00    +0.058 A 
BRANCH  21  28
ATOM     27  C   UNL     1       4.839  -4.345  29.027  0.00  0.00    +0.277 C 
ATOM     28  O   UNL     1       6.084  -4.800  28.508  0.00  0.00    -0.491 OA
ENDBRANCH  21  28
BRANCH  22  29
ATOM     29  O   UNL     1       5.645  -6.787  26.744  0.00  0.00    -0.503 OA
ATOM     30  H   UNL     1       5.192  -7.259  26.029  0.00  0.00    +0.292 HD
ENDBRANCH  22  29
ENDBRANCH   1  25
TORSDOF 4
ENDMDL
MODEL 7
REMARK VINA RESULT:      -7.4      1.244      2.321
REMARK  Name = 
REMARK  5 active torsions:
REMARK  status: ('A' for Active; 'I' for Inactive)
REMARK    1  A    between atoms: C_1  and  O_2
REMARK    2  A    between atoms: O_2  and  C_3
REMARK    3  A    between atoms: C_5  and  C_10
REMARK    4  A    between atoms: C_8  and  O_9
REMARK    5  A    between atoms: C_16  and  C_19
REMARK                            x       y       z     vdW  Elec       q    Type
REMARK                         _______ _______ _______ _____ _____    ______ ____
ROOT
ATOM      1  C   UNL     1       6.586  -3.124  24.237  0.00  0.00    -0.016 A 
ATOM      2  C   UNL     1       5.936  -1.877  24.117  0.00  0.00    +0.009 A 
ATOM      3  C   UNL     1       6.627  -0.684  23.874  0.00  0.00    +0.013 A 
ATOM      4  C   UNL     1       8.019  -0.730  23.707  0.00  0.00    +0.030 A 
ATOM      5  C   UNL     1       9.046   0.212  23.453  0.00  0.00    +0.135 A 
ATOM      6  N   UNL     1      10.252  -0.372  23.356  0.00  0.00    -0.170 NA
ATOM      7  N   UNL     1       9.983  -1.675  23.578  0.00  0.00    -0.276 N 
ATOM      8  H   UNL     1      10.755  -2.332  23.566  0.00  0.00    +0.189 HD
ATOM      9  C   UNL     1       8.662  -1.958  23.798  0.00  0.00    +0.067 A 
ATOM     10  C   UNL     1       7.986  -3.160  24.066  0.00  0.00    +0.036 A 
ENDROOT
BRANCH   5  11
ATOM     11  C   UNL     1       8.874   1.688  23.308  0.00  0.00    +0.160 A 
ATOM     12  N   UNL     1       9.729   2.596  23.878  0.00  0.00    -0.337 N 
ATOM     13  H   UNL     1      10.540   2.341  24.422  0.00  0.00    +0.167 HD
ATOM     14  C   UNL     1       9.276   3.857  23.593  0.00  0.00    +0.067 A 
ATOM     15  C   UNL     1       8.133   3.642  22.828  0.00  0.00    +0.090 A 
ATOM     16  C   UNL     1       7.402   4.745  22.363  0.00  0.00    +0.030 A 
ATOM     17  C   UNL     1       7.845   6.032  22.691  0.00  0.00    +0.002 A 
ATOM     18  C   UNL     1       8.997   6.216  23.460  0.00  0.00    +0.002 A 
ATOM     19  C   UNL     1       9.744   5.129  23.927  0.00  0.00    +0.028 A 
ATOM     20  N   UNL     1       7.906   2.298  22.651  0.00  0.00    -0.226 NA
ENDBRANCH   5  11
BRANCH   1  25
ATOM     21  C   UNL     1       4.042  -5.936  23.854  0.00  0.00    +0.162 A 
ATOM     22  C   UNL     1       4.367  -6.751  24.938  0.00  0.00    +0.158 A 
ATOM     23  C   UNL     1       5.357  -6.370  25.842  0.00  0.00    +0.050 A 
ATOM     24  C   UNL     1       6.069  -5.180  25.638  0.00  0.00    +0.012 A 
ATOM     25  C   UNL     1       5.796  -4.347  24.539  0.00  0.00    -0.014 A 
ATOM     26  C   UNL     1       4.746  -4.740  23.680  0.00  0.00    +0.058 A 
BRANCH  21  28
ATOM     27  C   UNL     1       1.807  -5.747  23.062  0.00  0.00    +0.277 C 
ATOM     28  O   UNL     1       3.074  -6.390  22.995  0.00  0.00    -0.491 OA
ENDBRANCH  21  28
BRANCH  22  29
ATOM     29  O   UNL     1       3.696  -7.932  25.115  0.00  0.00    -0.503 OA
ATOM     30  H   UNL     1       4.040  -8.590  24.492  0.00  0.00    +0.292 HD
ENDBRANCH  22  29
ENDBRANCH   1  25
TORSDOF 4
ENDMDL
MODEL 8
REMARK VINA RESULT:      -7.3      4.324      9.395
REMARK  Name = 
REMARK  5 active torsions:
REMARK  status: ('A' for Active; 'I' for Inactive)
REMARK    1  A    between atoms: C_1  and  O_2
REMARK    2  A    between atoms: O_2  and  C_3
REMARK    3  A    between atoms: C_5  and  C_10
REMARK    4  A    between atoms: C_8  and  O_9
REMARK    5  A    between atoms: C_16  and  C_19
REMARK                            x       y       z     vdW  Elec       q    Type
REMARK                         _______ _______ _______ _____ _____    ______ ____
ROOT
ATOM      1  C   UNL     1       9.022   0.627  24.000  0.00  0.00    -0.016 A 
ATOM      2  C   UNL     1       7.653   0.304  24.112  0.00  0.00    +0.009 A 
ATOM      3  C   UNL     1       7.188  -1.016  24.164  0.00  0.00    +0.013 A 
ATOM      4  C   UNL     1       8.122  -2.063  24.141  0.00  0.00    +0.030 A 
ATOM      5  C   UNL     1       8.066  -3.478  24.178  0.00  0.00    +0.135 A 
ATOM      6  N   UNL     1       9.290  -4.031  24.153  0.00  0.00    -0.170 NA
ATOM      7  N   UNL     1      10.109  -2.963  24.071  0.00  0.00    -0.276 N 
ATOM      8  H   UNL     1      11.109  -3.129  24.027  0.00  0.00    +0.189 HD
ATOM      9  C   UNL     1       9.472  -1.752  24.057  0.00  0.00    +0.067 A 
ATOM     10  C   UNL     1       9.953  -0.434  23.978  0.00  0.00    +0.036 A 
ENDROOT
BRANCH   5  11
ATOM     11  C   UNL     1       6.828  -4.311  24.231  0.00  0.00    +0.160 A 
ATOM     12  N   UNL     1       6.569  -5.195  25.247  0.00  0.00    -0.337 N 
ATOM     13  H   UNL     1       7.181  -5.338  26.037  0.00  0.00    +0.167 HD
ATOM     14  C   UNL     1       5.383  -5.825  24.983  0.00  0.00    +0.067 A 
ATOM     15  C   UNL     1       4.961  -5.265  23.781  0.00  0.00    +0.090 A 
ATOM     16  C   UNL     1       3.757  -5.699  23.207  0.00  0.00    +0.030 A 
ATOM     17  C   UNL     1       3.019  -6.691  23.863  0.00  0.00    +0.002 A 
ATOM     18  C   UNL     1       3.467  -7.234  25.070  0.00  0.00    +0.002 A 
ATOM     19  C   UNL     1       4.662  -6.810  25.662  0.00  0.00    +0.028 A 
ATOM     20  N   UNL     1       5.858  -4.324  23.336  0.00  0.00    -0.226 NA
ENDBRANCH   5  11
BRANCH   1  25
ATOM     21  C   UNL     1       8.959   4.419  24.372  0.00  0.00    +0.162 A 
ATOM     22  C   UNL     1      10.236   4.761  23.928  0.00  0.00    +0.158 A 
ATOM     23  C   UNL     1      11.103   3.785  23.439  0.00  0.00    +0.050 A 
ATOM     24  C   UNL     1      10.710   2.440  23.434  0.00  0.00    +0.012 A 
ATOM     25  C   UNL     1       9.444   2.050  23.905  0.00  0.00    -0.014 A 
ATOM     26  C   UNL     1       8.575   3.074  24.337  0.00  0.00    +0.058 A 
BRANCH  21  28
ATOM     27  C   UNL     1       7.992   5.471  26.274  0.00  0.00    +0.277 C 
ATOM     28  O   UNL     1       8.174   5.430  24.863  0.00  0.00    -0.491 OA
ENDBRANCH  21  28
BRANCH  22  29
ATOM     29  O   UNL     1      10.632   6.071  23.968  0.00  0.00    -0.503 OA
ATOM     30  H   UNL     1      10.718   6.350  24.893  0.00  0.00    +0.292 HD
ENDBRANCH  22  29
ENDBRANCH   1  25
TORSDOF 4
ENDMDL
MODEL 9
REMARK VINA RESULT:      -7.1      4.182      9.358
REMARK  Name = 
REMARK  5 active torsions:
REMARK  status: ('A' for Active; 'I' for Inactive)
REMARK    1  A    between atoms: C_1  and  O_2
REMARK    2  A    between atoms: O_2  and  C_3
REMARK    3  A    between atoms: C_5  and  C_10
REMARK    4  A    between atoms: C_8  and  O_9
REMARK    5  A    between atoms: C_16  and  C_19
REMARK                            x       y       z     vdW  Elec       q    Type
REMARK                         _______ _______ _______ _____ _____    ______ ____
ROOT
ATOM      1  C   UNL     1       8.466   1.090  23.801  0.00  0.00    -0.016 A 
ATOM      2  C   UNL     1       7.200   0.545  24.102  0.00  0.00    +0.009 A 
ATOM      3  C   UNL     1       6.984  -0.831  24.253  0.00  0.00    +0.013 A 
ATOM      4  C   UNL     1       8.077  -1.702  24.138  0.00  0.00    +0.030 A 
ATOM      5  C   UNL     1       8.276  -3.103  24.224  0.00  0.00    +0.135 A 
ATOM      6  N   UNL     1       9.565  -3.439  24.055  0.00  0.00    -0.170 NA
ATOM      7  N   UNL     1      10.168  -2.253  23.834  0.00  0.00    -0.276 N 
ATOM      8  H   UNL     1      11.167  -2.248  23.664  0.00  0.00    +0.189 HD
ATOM      9  C   UNL     1       9.331  -1.171  23.868  0.00  0.00    +0.067 A 
ATOM     10  C   UNL     1       9.558   0.204  23.688  0.00  0.00    +0.036 A 
ENDROOT
BRANCH   5  11
ATOM     11  C   UNL     1       7.220  -4.131  24.464  0.00  0.00    +0.160 A 
ATOM     12  N   UNL     1       6.368  -4.567  23.481  0.00  0.00    -0.337 N 
ATOM     13  H   UNL     1       6.398  -4.240  22.526  0.00  0.00    +0.167 HD
ATOM     14  C   UNL     1       5.501  -5.474  24.029  0.00  0.00    +0.067 A 
ATOM     15  C   UNL     1       5.890  -5.553  25.362  0.00  0.00    +0.090 A 
ATOM     16  C   UNL     1       5.193  -6.406  26.231  0.00  0.00    +0.030 A 
ATOM     17  C   UNL     1       4.117  -7.147  25.726  0.00  0.00    +0.002 A 
ATOM     18  C   UNL     1       3.751  -7.047  24.381  0.00  0.00    +0.002 A 
ATOM     19  C   UNL     1       4.439  -6.207  23.498  0.00  0.00    +0.028 A 
ATOM     20  N   UNL     1       6.961  -4.728  25.612  0.00  0.00    -0.226 NA
ENDBRANCH   5  11
BRANCH   1  25
ATOM     21  C   UNL     1       7.623   4.692  22.884  0.00  0.00    +0.162 A 
ATOM     22  C   UNL     1       8.742   5.370  23.371  0.00  0.00    +0.158 A 
ATOM     23  C   UNL     1       9.808   4.668  23.933  0.00  0.00    +0.050 A 
ATOM     24  C   UNL     1       9.740   3.274  24.055  0.00  0.00    +0.012 A 
ATOM     25  C   UNL     1       8.616   2.557  23.609  0.00  0.00    -0.014 A 
ATOM     26  C   UNL     1       7.584   3.298  22.993  0.00  0.00    +0.058 A 
BRANCH  21  28
ATOM     27  C   UNL     1       5.415   5.538  23.146  0.00  0.00    +0.277 C 
ATOM     28  O   UNL     1       6.605   5.452  22.369  0.00  0.00    -0.491 OA
ENDBRANCH  21  28
BRANCH  22  29
ATOM     29  O   UNL     1       8.790   6.735  23.284  0.00  0.00    -0.503 OA
ATOM     30  H   UNL     1       9.082   6.987  22.395  0.00  0.00    +0.292 HD
ENDBRANCH  22  29
ENDBRANCH   1  25
TORSDOF 4
ENDMDL
