MODEL 1
REMARK VINA RESULT:      -5.9      0.000      0.000
REMARK  Name = 
REMARK  32 active torsions:
REMARK  status: ('A' for Active; 'I' for Inactive)
REMARK    1  A    between atoms: C_1  and  C_2
REMARK    2  A    between atoms: C_2  and  C_3
REMARK    3  A    between atoms: C_2  and  C_4
REMARK    4  A    between atoms: C_2  and  C_40
REMARK    5  A    between atoms: C_4  and  O_5
REMARK    6  A    between atoms: O_5  and  P_6
REMARK    7  A    between atoms: P_6  and  O_7
REMARK    8  A    between atoms: P_6  and  O_9
REMARK    9  A    between atoms: O_9  and  P_10
REMARK   10  A    between atoms: P_10  and  O_11
REMARK   11  A    between atoms: P_10  and  O_13
REMARK   12  A    between atoms: O_13  and  C_14
REMARK   13  A    between atoms: C_14  and  C_15
REMARK   14  A    between atoms: C_18  and  N_30
REMARK   15  A    between atoms: C_20  and  O_22
REMARK   16  A    between atoms: C_23  and  O_25
REMARK   17  A    between atoms: O_25  and  P_26
REMARK   18  A    between atoms: P_26  and  O_27
REMARK   19  A    between atoms: P_26  and  O_28
REMARK   20  A    between atoms: C_40  and  O_42
REMARK   21  A    between atoms: C_40  and  C_43
REMARK   22  A    between atoms: N_45  and  C_46
REMARK   23  A    between atoms: C_46  and  C_47
REMARK   24  A    between atoms: C_47  and  C_48
REMARK   25  A    between atoms: N_50  and  C_51
REMARK   26  A    between atoms: C_51  and  C_52
REMARK   27  A    between atoms: C_52  and  S_53
REMARK   28  A    between atoms: S_53  and  C_54
REMARK   29  A    between atoms: C_54  and  C_56
REMARK   30  A    between atoms: C_56  and  C_57
REMARK   31  A    between atoms: C_57  and  C_58
REMARK   32  A    between atoms: C_58  and  O_59
REMARK                            x       y       z     vdW  Elec       q    Type
REMARK                         _______ _______ _______ _____ _____    ______ ____
ROOT
ATOM      1  P   UNL     1       4.723  -3.671  23.810  0.00  0.00    +0.483 P 
ATOM      2  O   UNL     1       5.861  -4.642  24.137  0.00  0.00    -0.227 OA
ENDROOT
BRANCH   1   3
ATOM      3  O   UNL     1       5.342  -3.583  22.197  0.00  0.00    -0.302 OA
ATOM      4  H   UNL     1       6.219  -4.009  22.266  0.00  0.00    +0.222 HD
ENDBRANCH   1   3
BRANCH   1   5
ATOM      5  O   UNL     1       4.104  -3.758  25.423  0.00  0.00    -0.186 OA
BRANCH   5   6
ATOM      6  P   UNL     1       4.451  -2.282  26.255  0.00  0.00    +0.483 P 
ATOM      7  O   UNL     1       2.987  -1.833  26.249  0.00  0.00    -0.227 OA
BRANCH   6   8
ATOM      8  O   UNL     1       5.134  -1.669  24.910  0.00  0.00    -0.302 OA
ATOM      9  H   UNL     1       4.452  -1.366  24.280  0.00  0.00    +0.222 HD
ENDBRANCH   6   8
BRANCH   6  10
ATOM     10  O   UNL     1       4.798  -0.807  27.088  0.00  0.00    -0.284 OA
BRANCH  10  11
ATOM     11  C   UNL     1       3.804   0.166  26.786  0.00  0.00    +0.206 C 
BRANCH  11  12
ATOM     12  C   UNL     1       4.414   1.559  26.878  0.00  0.00    +0.179 C 
ATOM     13  C   UNL     1       5.896   1.476  27.223  0.00  0.00    +0.194 C 
ATOM     14  C   UNL     1       6.605   1.502  25.869  0.00  0.00    +0.196 C 
ATOM     15  C   UNL     1       5.488   1.767  24.849  0.00  0.00    +0.253 C 
ATOM     16  O   UNL     1       4.346   2.206  25.594  0.00  0.00    -0.346 OA
BRANCH  15  17
ATOM     17  N   UNL     1       5.774   2.719  23.798  0.00  0.00    -0.286 N 
ATOM     18  C   UNL     1       6.081   4.040  23.990  0.00  0.00    +0.167 A 
ATOM     19  N   UNL     1       5.929   4.766  25.114  0.00  0.00    -0.216 NA
ATOM     20  C   UNL     1       6.381   6.026  24.925  0.00  0.00    +0.225 A 
ATOM     21  N   UNL     1       6.977   6.553  23.831  0.00  0.00    -0.219 NA
ATOM     22  C   UNL     1       7.152   5.758  22.751  0.00  0.00    +0.147 A 
ATOM     23  N   UNL     1       7.846   6.269  21.666  0.00  0.00    -0.341 N 
ATOM     24  H   UNL     1       7.704   5.768  20.797  0.00  0.00    +0.144 HD
ATOM     25  H   UNL     1       7.893   7.278  21.649  0.00  0.00    +0.144 HD
ATOM     26  C   UNL     1       6.641   4.450  22.789  0.00  0.00    +0.147 A 
ATOM     27  N   UNL     1       6.612   3.434  21.860  0.00  0.00    -0.231 NA
ATOM     28  C   UNL     1       6.090   2.407  22.491  0.00  0.00    +0.203 A 
ENDBRANCH  15  17
BRANCH  14  29
ATOM     29  O   UNL     1       7.214   0.227  25.617  0.00  0.00    -0.385 OA
ATOM     30  H   UNL     1       6.475  -0.412  25.534  0.00  0.00    +0.210 HD
ENDBRANCH  14  29
BRANCH  13  31
ATOM     31  O   UNL     1       6.289   2.639  27.954  0.00  0.00    -0.278 OA
BRANCH  31  32
ATOM     32  P   UNL     1       6.948   2.398  29.391  0.00  0.00    +0.473 P 
ATOM     33  O   UNL     1       7.629   3.550  30.038  0.00  0.00    -0.228 OA
BRANCH  32  34
ATOM     34  O   UNL     1       7.903   1.147  29.128  0.00  0.00    -0.303 OA
ATOM     35  H   UNL     1       7.621   0.380  29.663  0.00  0.00    +0.222 HD
ENDBRANCH  32  34
BRANCH  32  36
ATOM     36  O   UNL     1       5.794   1.709  30.236  0.00  0.00    -0.303 OA
ATOM     37  H   UNL     1       5.392   0.984  29.728  0.00  0.00    +0.222 HD
ENDBRANCH  32  36
ENDBRANCH  31  32
ENDBRANCH  13  31
ENDBRANCH  11  12
ENDBRANCH  10  11
ENDBRANCH   6  10
ENDBRANCH   5   6
ENDBRANCH   1   5
BRANCH   1  38
ATOM     38  O   UNL     1       3.422  -4.508  23.277  0.00  0.00    -0.286 OA
BRANCH  38  39
ATOM     39  C   UNL     1       2.480  -4.979  24.239  0.00  0.00    +0.181 C 
BRANCH  39  41
ATOM     40  C   UNL     1       0.713  -6.694  24.833  0.00  0.00    +0.016 C 
ATOM     41  C   UNL     1       2.068  -6.478  24.115  0.00  0.00    +0.024 C 
ATOM     42  C   UNL     1       1.872  -6.931  22.652  0.00  0.00    +0.016 C 
BRANCH  41  43
ATOM     43  C   UNL     1       3.198  -7.380  24.704  0.00  0.00    +0.208 C 
BRANCH  43  44
ATOM     44  C   UNL     1       3.500  -7.065  26.181  0.00  0.00    +0.242 C 
ATOM     45  N   UNL     1       4.826  -6.832  26.451  0.00  0.00    -0.313 N 
ATOM     46  H   UNL     1       5.448  -6.595  25.683  0.00  0.00    +0.149 HD
ATOM     47  O   UNL     1       2.638  -7.060  27.057  0.00  0.00    -0.273 OA
BRANCH  45  48
ATOM     48  C   UNL     1       5.259  -6.510  27.798  0.00  0.00    +0.113 C 
BRANCH  48  49
ATOM     49  C   UNL     1       5.885  -5.130  27.885  0.00  0.00    +0.114 C 
BRANCH  49  50
ATOM     50  C   UNL     1       7.161  -5.092  27.080  0.00  0.00    +0.215 C 
ATOM     51  N   UNL     1       7.534  -3.834  26.663  0.00  0.00    -0.314 N 
ATOM     52  H   UNL     1       7.111  -3.024  27.099  0.00  0.00    +0.149 HD
ATOM     53  O   UNL     1       7.759  -6.117  26.765  0.00  0.00    -0.276 OA
BRANCH  51  54
ATOM     54  C   UNL     1       8.784  -3.646  25.944  0.00  0.00    +0.115 C 
BRANCH  54  55
ATOM     55  C   UNL     1       8.804  -2.388  25.077  0.00  0.00    +0.096 C 
BRANCH  55  56
ATOM     56  S   UNL     1       8.924  -2.828  23.308  0.00  0.00    -0.087 S 
BRANCH  56  57
ATOM     57  C   UNL     1       8.161  -1.408  22.600  0.00  0.00    +0.190 C 
ATOM     58  O   UNL     1       7.032  -1.051  22.909  0.00  0.00    -0.285 OA
BRANCH  57  59
ATOM     59  C   UNL     1       9.034  -0.632  21.636  0.00  0.00    +0.097 C 
BRANCH  59  60
ATOM     60  C   UNL     1      10.120   0.173  22.327  0.00  0.00    +0.129 C 
BRANCH  60  61
ATOM     61  C   UNL     1       9.657   1.562  22.679  0.00  0.00    +0.305 C 
ATOM     62  O   UNL     1       9.362   1.899  23.815  0.00  0.00    -0.251 OA
BRANCH  61  63
ATOM     63  O   UNL     1       9.601   2.407  21.630  0.00  0.00    -0.481 OA
ATOM     64  H   UNL     1      10.432   2.518  21.133  0.00  0.00    +0.295 HD
ENDBRANCH  61  63
ENDBRANCH  60  61
ENDBRANCH  59  60
ENDBRANCH  57  59
ENDBRANCH  56  57
ENDBRANCH  55  56
ENDBRANCH  54  55
ENDBRANCH  51  54
ENDBRANCH  49  50
ENDBRANCH  48  49
ENDBRANCH  45  48
ENDBRANCH  43  44
BRANCH  43  65
ATOM     65  O   UNL     1       4.402  -7.269  23.942  0.00  0.00    -0.382 OA
ATOM     66  H   UNL     1       4.950  -8.061  24.062  0.00  0.00    +0.210 HD
ENDBRANCH  43  65
ENDBRANCH  41  43
ENDBRANCH  39  41
ENDBRANCH  38  39
ENDBRANCH   1  38
TORSDOF 30
ENDMDL
MODEL 2
REMARK VINA RESULT:      -5.7      3.436      7.009
REMARK  Name = 
REMARK  32 active torsions:
REMARK  status: ('A' for Active; 'I' for Inactive)
REMARK    1  A    between atoms: C_1  and  C_2
REMARK    2  A    between atoms: C_2  and  C_3
REMARK    3  A    between atoms: C_2  and  C_4
REMARK    4  A    between atoms: C_2  and  C_40
REMARK    5  A    between atoms: C_4  and  O_5
REMARK    6  A    between atoms: O_5  and  P_6
REMARK    7  A    between atoms: P_6  and  O_7
REMARK    8  A    between atoms: P_6  and  O_9
REMARK    9  A    between atoms: O_9  and  P_10
REMARK   10  A    between atoms: P_10  and  O_11
REMARK   11  A    between atoms: P_10  and  O_13
REMARK   12  A    between atoms: O_13  and  C_14
REMARK   13  A    between atoms: C_14  and  C_15
REMARK   14  A    between atoms: C_18  and  N_30
REMARK   15  A    between atoms: C_20  and  O_22
REMARK   16  A    between atoms: C_23  and  O_25
REMARK   17  A    between atoms: O_25  and  P_26
REMARK   18  A    between atoms: P_26  and  O_27
REMARK   19  A    between atoms: P_26  and  O_28
REMARK   20  A    between atoms: C_40  and  O_42
REMARK   21  A    between atoms: C_40  and  C_43
REMARK   22  A    between atoms: N_45  and  C_46
REMARK   23  A    between atoms: C_46  and  C_47
REMARK   24  A    between atoms: C_47  and  C_48
REMARK   25  A    between atoms: N_50  and  C_51
REMARK   26  A    between atoms: C_51  and  C_52
REMARK   27  A    between atoms: C_52  and  S_53
REMARK   28  A    between atoms: S_53  and  C_54
REMARK   29  A    between atoms: C_54  and  C_56
REMARK   30  A    between atoms: C_56  and  C_57
REMARK   31  A    between atoms: C_57  and  C_58
REMARK   32  A    between atoms: C_58  and  O_59
REMARK                            x       y       z     vdW  Elec       q    Type
REMARK                         _______ _______ _______ _____ _____    ______ ____
ROOT
ATOM      1  P   UNL     1       9.825  -1.285  22.235  0.00  0.00    +0.483 P 
ATOM      2  O   UNL     1      10.342  -0.373  23.353  0.00  0.00    -0.227 OA
ENDROOT
BRANCH   1   3
ATOM      3  O   UNL     1      10.227  -2.638  23.235  0.00  0.00    -0.302 OA
ATOM      4  H   UNL     1      11.110  -2.907  22.911  0.00  0.00    +0.222 HD
ENDBRANCH   1   3
BRANCH   1   5
ATOM      5  O   UNL     1       9.424   0.068  21.235  0.00  0.00    -0.186 OA
BRANCH   5   6
ATOM      6  P   UNL     1       9.170   1.463  22.225  0.00  0.00    +0.483 P 
ATOM      7  O   UNL     1       7.898   1.871  21.474  0.00  0.00    -0.227 OA
BRANCH   6   8
ATOM      8  O   UNL     1      10.409   2.224  21.493  0.00  0.00    -0.302 OA
ATOM      9  H   UNL     1      10.389   3.183  21.678  0.00  0.00    +0.222 HD
ENDBRANCH   6   8
BRANCH   6  10
ATOM     10  O   UNL     1       8.915   2.859  23.215  0.00  0.00    -0.284 OA
BRANCH  10  11
ATOM     11  C   UNL     1       8.754   2.466  24.573  0.00  0.00    +0.206 C 
BRANCH  11  12
ATOM     12  C   UNL     1       7.428   2.998  25.101  0.00  0.00    +0.179 C 
ATOM     13  C   UNL     1       6.309   2.749  24.096  0.00  0.00    +0.194 C 
ATOM     14  C   UNL     1       5.693   1.421  24.535  0.00  0.00    +0.196 C 
ATOM     15  C   UNL     1       6.391   1.085  25.860  0.00  0.00    +0.253 C 
ATOM     16  O   UNL     1       7.053   2.280  26.291  0.00  0.00    -0.346 OA
BRANCH  15  17
ATOM     17  N   UNL     1       5.556   0.583  26.931  0.00  0.00    -0.286 N 
ATOM     18  C   UNL     1       4.827  -0.575  26.889  0.00  0.00    +0.167 A 
ATOM     19  N   UNL     1       4.528  -1.321  25.809  0.00  0.00    -0.216 NA
ATOM     20  C   UNL     1       3.821  -2.415  26.173  0.00  0.00    +0.225 A 
ATOM     21  N   UNL     1       3.476  -2.820  27.417  0.00  0.00    -0.219 NA
ATOM     22  C   UNL     1       3.851  -2.055  28.468  0.00  0.00    +0.147 A 
ATOM     23  N   UNL     1       3.581  -2.518  29.745  0.00  0.00    -0.341 N 
ATOM     24  H   UNL     1       3.609  -1.808  30.468  0.00  0.00    +0.144 HD
ATOM     25  H   UNL     1       2.862  -3.226  29.780  0.00  0.00    +0.144 HD
ATOM     26  C   UNL     1       4.515  -0.843  28.213  0.00  0.00    +0.147 A 
ATOM     27  N   UNL     1       4.973   0.160  29.040  0.00  0.00    -0.231 NA
ATOM     28  C   UNL     1       5.596   1.001  28.246  0.00  0.00    +0.203 A 
ENDBRANCH  15  17
BRANCH  14  29
ATOM     29  O   UNL     1       5.973   0.410  23.557  0.00  0.00    -0.385 OA
ATOM     30  H   UNL     1       6.205  -0.397  24.064  0.00  0.00    +0.210 HD
ENDBRANCH  14  29
BRANCH  13  31
ATOM     31  O   UNL     1       5.313   3.766  24.219  0.00  0.00    -0.278 OA
BRANCH  31  32
ATOM     32  P   UNL     1       5.104   4.724  22.955  0.00  0.00    +0.473 P 
ATOM     33  O   UNL     1       4.680   6.124  23.216  0.00  0.00    -0.228 OA
BRANCH  32  34
ATOM     34  O   UNL     1       4.078   3.894  22.057  0.00  0.00    -0.303 OA
ATOM     35  H   UNL     1       3.225   4.366  21.985  0.00  0.00    +0.222 HD
ENDBRANCH  32  34
BRANCH  32  36
ATOM     36  O   UNL     1       6.437   4.548  22.111  0.00  0.00    -0.303 OA
ATOM     37  H   UNL     1       6.840   5.415  21.933  0.00  0.00    +0.222 HD
ENDBRANCH  32  36
ENDBRANCH  31  32
ENDBRANCH  13  31
ENDBRANCH  11  12
ENDBRANCH  10  11
ENDBRANCH   6  10
ENDBRANCH   5   6
ENDBRANCH   1   5
BRANCH   1  38
ATOM     38  O   UNL     1       8.231  -1.579  22.458  0.00  0.00    -0.286 OA
BRANCH  38  39
ATOM     39  C   UNL     1       7.851  -2.519  23.460  0.00  0.00    +0.181 C 
BRANCH  39  41
ATOM     40  C   UNL     1       5.471  -3.308  23.097  0.00  0.00    +0.016 C 
ATOM     41  C   UNL     1       6.963  -3.708  22.980  0.00  0.00    +0.024 C 
ATOM     42  C   UNL     1       7.206  -4.085  21.502  0.00  0.00    +0.016 C 
BRANCH  41  43
ATOM     43  C   UNL     1       7.300  -4.983  23.816  0.00  0.00    +0.208 C 
BRANCH  43  44
ATOM     44  C   UNL     1       6.491  -5.066  25.124  0.00  0.00    +0.242 C 
ATOM     45  N   UNL     1       7.148  -4.581  26.229  0.00  0.00    -0.313 N 
ATOM     46  H   UNL     1       7.944  -3.964  26.093  0.00  0.00    +0.149 HD
ATOM     47  O   UNL     1       5.367  -5.559  25.190  0.00  0.00    -0.273 OA
BRANCH  45  48
ATOM     48  C   UNL     1       6.505  -4.584  27.529  0.00  0.00    +0.113 C 
BRANCH  48  49
ATOM     49  C   UNL     1       6.600  -5.936  28.212  0.00  0.00    +0.114 C 
BRANCH  49  50
ATOM     50  C   UNL     1       5.224  -6.408  28.615  0.00  0.00    +0.215 C 
ATOM     51  N   UNL     1       4.195  -5.853  27.887  0.00  0.00    -0.314 N 
ATOM     52  H   UNL     1       4.405  -5.388  27.013  0.00  0.00    +0.149 HD
ATOM     53  O   UNL     1       5.052  -7.163  29.568  0.00  0.00    -0.276 OA
BRANCH  51  54
ATOM     54  C   UNL     1       2.824  -6.279  28.122  0.00  0.00    +0.115 C 
BRANCH  54  55
ATOM     55  C   UNL     1       1.959  -6.267  26.863  0.00  0.00    +0.096 C 
BRANCH  55  56
ATOM     56  S   UNL     1       1.080  -7.857  26.673  0.00  0.00    -0.087 S 
BRANCH  56  57
ATOM     57  C   UNL     1       1.556  -8.260  25.026  0.00  0.00    +0.190 C 
ATOM     58  O   UNL     1       2.408  -9.102  24.780  0.00  0.00    -0.285 OA
BRANCH  57  59
ATOM     59  C   UNL     1       0.783  -7.533  23.946  0.00  0.00    +0.097 C 
BRANCH  59  60
ATOM     60  C   UNL     1       1.629  -7.182  22.735  0.00  0.00    +0.129 C 
BRANCH  60  61
ATOM     61  C   UNL     1       2.640  -6.110  23.044  0.00  0.00    +0.305 C 
ATOM     62  O   UNL     1       2.334  -5.003  23.459  0.00  0.00    -0.251 OA
BRANCH  61  63
ATOM     63  O   UNL     1       3.919  -6.481  22.830  0.00  0.00    -0.481 OA
ATOM     64  H   UNL     1       4.172  -7.350  23.191  0.00  0.00    +0.295 HD
ENDBRANCH  61  63
ENDBRANCH  60  61
ENDBRANCH  59  60
ENDBRANCH  57  59
ENDBRANCH  56  57
ENDBRANCH  55  56
ENDBRANCH  54  55
ENDBRANCH  51  54
ENDBRANCH  49  50
ENDBRANCH  48  49
ENDBRANCH  45  48
ENDBRANCH  43  44
BRANCH  43  65
ATOM     65  O   UNL     1       8.695  -5.052  24.119  0.00  0.00    -0.382 OA
ATOM     66  H   UNL     1       8.976  -5.977  24.200  0.00  0.00    +0.210 HD
ENDBRANCH  43  65
ENDBRANCH  41  43
ENDBRANCH  39  41
ENDBRANCH  38  39
ENDBRANCH   1  38
TORSDOF 30
ENDMDL
MODEL 3
REMARK VINA RESULT:      -5.5      2.693      5.458
REMARK  Name = 
REMARK  32 active torsions:
REMARK  status: ('A' for Active; 'I' for Inactive)
REMARK    1  A    between atoms: C_1  and  C_2
REMARK    2  A    between atoms: C_2  and  C_3
REMARK    3  A    between atoms: C_2  and  C_4
REMARK    4  A    between atoms: C_2  and  C_40
REMARK    5  A    between atoms: C_4  and  O_5
REMARK    6  A    between atoms: O_5  and  P_6
REMARK    7  A    between atoms: P_6  and  O_7
REMARK    8  A    between atoms: P_6  and  O_9
REMARK    9  A    between atoms: O_9  and  P_10
REMARK   10  A    between atoms: P_10  and  O_11
REMARK   11  A    between atoms: P_10  and  O_13
REMARK   12  A    between atoms: O_13  and  C_14
REMARK   13  A    between atoms: C_14  and  C_15
REMARK   14  A    between atoms: C_18  and  N_30
REMARK   15  A    between atoms: C_20  and  O_22
REMARK   16  A    between atoms: C_23  and  O_25
REMARK   17  A    between atoms: O_25  and  P_26
REMARK   18  A    between atoms: P_26  and  O_27
REMARK   19  A    between atoms: P_26  and  O_28
REMARK   20  A    between atoms: C_40  and  O_42
REMARK   21  A    between atoms: C_40  and  C_43
REMARK   22  A    between atoms: N_45  and  C_46
REMARK   23  A    between atoms: C_46  and  C_47
REMARK   24  A    between atoms: C_47  and  C_48
REMARK   25  A    between atoms: N_50  and  C_51
REMARK   26  A    between atoms: C_51  and  C_52
REMARK   27  A    between atoms: C_52  and  S_53
REMARK   28  A    between atoms: S_53  and  C_54
REMARK   29  A    between atoms: C_54  and  C_56
REMARK   30  A    between atoms: C_56  and  C_57
REMARK   31  A    between atoms: C_57  and  C_58
REMARK   32  A    between atoms: C_58  and  O_59
REMARK                            x       y       z     vdW  Elec       q    Type
REMARK                         _______ _______ _______ _____ _____    ______ ____
ROOT
ATOM      1  P   UNL     1       8.882  -1.879  22.229  0.00  0.00    +0.483 P 
ATOM      2  O   UNL     1       8.825  -0.396  21.851  0.00  0.00    -0.227 OA
ENDROOT
BRANCH   1   3
ATOM      3  O   UNL     1      10.604  -1.787  22.085  0.00  0.00    -0.302 OA
ATOM      4  H   UNL     1      10.925  -2.244  22.888  0.00  0.00    +0.222 HD
ENDBRANCH   1   3
BRANCH   1   5
ATOM      5  O   UNL     1       7.161  -1.972  22.372  0.00  0.00    -0.186 OA
BRANCH   5   6
ATOM      6  P   UNL     1       6.634  -0.958  23.670  0.00  0.00    +0.483 P 
ATOM      7  O   UNL     1       5.386  -1.804  23.939  0.00  0.00    -0.227 OA
BRANCH   6   8
ATOM      8  O   UNL     1       6.196   0.195  22.607  0.00  0.00    -0.302 OA
ATOM      9  H   UNL     1       5.235   0.364  22.651  0.00  0.00    +0.222 HD
ENDBRANCH   6   8
BRANCH   6  10
ATOM     10  O   UNL     1       6.107   0.056  24.968  0.00  0.00    -0.284 OA
BRANCH  10  11
ATOM     11  C   UNL     1       5.634   1.296  24.454  0.00  0.00    +0.206 C 
BRANCH  11  12
ATOM     12  C   UNL     1       6.301   2.442  25.203  0.00  0.00    +0.179 C 
ATOM     13  C   UNL     1       7.201   1.910  26.312  0.00  0.00    +0.194 C 
ATOM     14  C   UNL     1       8.585   1.823  25.671  0.00  0.00    +0.196 C 
ATOM     15  C   UNL     1       8.417   2.471  24.289  0.00  0.00    +0.253 C 
ATOM     16  O   UNL     1       7.166   3.169  24.312  0.00  0.00    -0.346 OA
BRANCH  15  17
ATOM     17  N   UNL     1       9.464   3.370  23.856  0.00  0.00    -0.286 N 
ATOM     18  C   UNL     1       9.685   4.626  24.355  0.00  0.00    +0.167 A 
ATOM     19  N   UNL     1       8.860   5.363  25.123  0.00  0.00    -0.216 NA
ATOM     20  C   UNL     1       9.446   6.537  25.449  0.00  0.00    +0.225 A 
ATOM     21  N   UNL     1      10.694   6.968  25.154  0.00  0.00    -0.219 NA
ATOM     22  C   UNL     1      11.495   6.159  24.424  0.00  0.00    +0.147 A 
ATOM     23  N   UNL     1      12.804   6.558  24.203  0.00  0.00    -0.341 N 
ATOM     24  H   UNL     1      13.266   6.089  23.434  0.00  0.00    +0.144 HD
ATOM     25  H   UNL     1      12.957   7.548  24.338  0.00  0.00    +0.144 HD
ATOM     26  C   UNL     1      10.971   4.947  23.946  0.00  0.00    +0.147 A 
ATOM     27  N   UNL     1      11.499   3.951  23.155  0.00  0.00    -0.231 NA
ATOM     28  C   UNL     1      10.576   3.016  23.119  0.00  0.00    +0.203 A 
ENDBRANCH  15  17
BRANCH  14  29
ATOM     29  O   UNL     1       8.969   0.447  25.530  0.00  0.00    -0.385 OA
ATOM     30  H   UNL     1       9.897   0.395  25.842  0.00  0.00    +0.210 HD
ENDBRANCH  14  29
BRANCH  13  31
ATOM     31  O   UNL     1       7.263   2.855  27.382  0.00  0.00    -0.278 OA
BRANCH  31  32
ATOM     32  P   UNL     1       6.679   2.383  28.794  0.00  0.00    +0.473 P 
ATOM     33  O   UNL     1       5.435   3.038  29.277  0.00  0.00    -0.228 OA
BRANCH  32  34
ATOM     34  O   UNL     1       7.928   2.573  29.767  0.00  0.00    -0.303 OA
ATOM     35  H   UNL     1       7.639   2.908  30.638  0.00  0.00    +0.222 HD
ENDBRANCH  32  34
BRANCH  32  36
ATOM     36  O   UNL     1       6.632   0.800  28.685  0.00  0.00    -0.303 OA
ATOM     37  H   UNL     1       7.484   0.461  28.359  0.00  0.00    +0.222 HD
ENDBRANCH  32  36
ENDBRANCH  31  32
ENDBRANCH  13  31
ENDBRANCH  11  12
ENDBRANCH  10  11
ENDBRANCH   6  10
ENDBRANCH   5   6
ENDBRANCH   1   5
BRANCH   1  38
ATOM     38  O   UNL     1       9.015  -2.029  23.852  0.00  0.00    -0.286 OA
BRANCH  38  39
ATOM     39  C   UNL     1       9.822  -3.084  24.371  0.00  0.00    +0.181 C 
BRANCH  39  41
ATOM     40  C   UNL     1       7.882  -4.713  24.423  0.00  0.00    +0.016 C 
ATOM     41  C   UNL     1       9.080  -4.154  25.230  0.00  0.00    +0.024 C 
ATOM     42  C   UNL     1       9.971  -5.361  25.593  0.00  0.00    +0.016 C 
BRANCH  41  43
ATOM     43  C   UNL     1       8.634  -3.518  26.584  0.00  0.00    +0.208 C 
BRANCH  43  44
ATOM     44  C   UNL     1       7.249  -4.011  27.044  0.00  0.00    +0.242 C 
ATOM     45  N   UNL     1       6.227  -3.119  26.822  0.00  0.00    -0.313 N 
ATOM     46  H   UNL     1       6.368  -2.373  26.148  0.00  0.00    +0.149 HD
ATOM     47  O   UNL     1       7.070  -5.093  27.599  0.00  0.00    -0.273 OA
BRANCH  45  48
ATOM     48  C   UNL     1       4.865  -3.453  27.193  0.00  0.00    +0.113 C 
BRANCH  48  49
ATOM     49  C   UNL     1       3.953  -2.239  27.173  0.00  0.00    +0.114 C 
BRANCH  49  50
ATOM     50  C   UNL     1       2.675  -2.567  26.441  0.00  0.00    +0.215 C 
ATOM     51  N   UNL     1       2.689  -3.775  25.782  0.00  0.00    -0.314 N 
ATOM     52  H   UNL     1       3.403  -4.455  26.013  0.00  0.00    +0.149 HD
ATOM     53  O   UNL     1       1.740  -1.772  26.383  0.00  0.00    -0.276 OA
BRANCH  51  54
ATOM     54  C   UNL     1       1.494  -4.247  25.099  0.00  0.00    +0.115 C 
BRANCH  54  55
ATOM     55  C   UNL     1       1.205  -5.729  25.332  0.00  0.00    +0.096 C 
BRANCH  55  56
ATOM     56  S   UNL     1       2.546  -6.500  26.304  0.00  0.00    -0.087 S 
BRANCH  56  57
ATOM     57  C   UNL     1       3.402  -7.336  25.013  0.00  0.00    +0.190 C 
ATOM     58  O   UNL     1       3.105  -8.469  24.660  0.00  0.00    -0.285 OA
BRANCH  57  59
ATOM     59  C   UNL     1       4.482  -6.520  24.334  0.00  0.00    +0.097 C 
BRANCH  59  60
ATOM     60  C   UNL     1       4.067  -5.991  22.972  0.00  0.00    +0.129 C 
BRANCH  60  61
ATOM     61  C   UNL     1       5.236  -5.443  22.199  0.00  0.00    +0.305 C 
ATOM     62  O   UNL     1       6.125  -6.147  21.744  0.00  0.00    -0.251 OA
BRANCH  61  63
ATOM     63  O   UNL     1       5.215  -4.104  22.043  0.00  0.00    -0.481 OA
ATOM     64  H   UNL     1       6.011  -3.631  22.349  0.00  0.00    +0.295 HD
ENDBRANCH  61  63
ENDBRANCH  60  61
ENDBRANCH  59  60
ENDBRANCH  57  59
ENDBRANCH  56  57
ENDBRANCH  55  56
ENDBRANCH  54  55
ENDBRANCH  51  54
ENDBRANCH  49  50
ENDBRANCH  48  49
ENDBRANCH  45  48
ENDBRANCH  43  44
BRANCH  43  65
ATOM     65  O   UNL     1       8.626  -2.090  26.511  0.00  0.00    -0.382 OA
ATOM     66  H   UNL     1       8.471  -1.801  25.598  0.00  0.00    +0.210 HD
ENDBRANCH  43  65
ENDBRANCH  41  43
ENDBRANCH  39  41
ENDBRANCH  38  39
ENDBRANCH   1  38
TORSDOF 30
ENDMDL
MODEL 4
REMARK VINA RESULT:      -5.4      1.792      2.372
REMARK  Name = 
REMARK  32 active torsions:
REMARK  status: ('A' for Active; 'I' for Inactive)
REMARK    1  A    between atoms: C_1  and  C_2
REMARK    2  A    between atoms: C_2  and  C_3
REMARK    3  A    between atoms: C_2  and  C_4
REMARK    4  A    between atoms: C_2  and  C_40
REMARK    5  A    between atoms: C_4  and  O_5
REMARK    6  A    between atoms: O_5  and  P_6
REMARK    7  A    between atoms: P_6  and  O_7
REMARK    8  A    between atoms: P_6  and  O_9
REMARK    9  A    between atoms: O_9  and  P_10
REMARK   10  A    between atoms: P_10  and  O_11
REMARK   11  A    between atoms: P_10  and  O_13
REMARK   12  A    between atoms: O_13  and  C_14
REMARK   13  A    between atoms: C_14  and  C_15
REMARK   14  A    between atoms: C_18  and  N_30
REMARK   15  A    between atoms: C_20  and  O_22
REMARK   16  A    between atoms: C_23  and  O_25
REMARK   17  A    between atoms: O_25  and  P_26
REMARK   18  A    between atoms: P_26  and  O_27
REMARK   19  A    between atoms: P_26  and  O_28
REMARK   20  A    between atoms: C_40  and  O_42
REMARK   21  A    between atoms: C_40  and  C_43
REMARK   22  A    between atoms: N_45  and  C_46
REMARK   23  A    between atoms: C_46  and  C_47
REMARK   24  A    between atoms: C_47  and  C_48
REMARK   25  A    between atoms: N_50  and  C_51
REMARK   26  A    between atoms: C_51  and  C_52
REMARK   27  A    between atoms: C_52  and  S_53
REMARK   28  A    between atoms: S_53  and  C_54
REMARK   29  A    between atoms: C_54  and  C_56
REMARK   30  A    between atoms: C_56  and  C_57
REMARK   31  A    between atoms: C_57  and  C_58
REMARK   32  A    between atoms: C_58  and  O_59
REMARK                            x       y       z     vdW  Elec       q    Type
REMARK                         _______ _______ _______ _____ _____    ______ ____
ROOT
ATOM      1  P   UNL     1       4.632  -4.226  23.486  0.00  0.00    +0.483 P 
ATOM      2  O   UNL     1       5.730  -5.227  23.860  0.00  0.00    -0.227 OA
ENDROOT
BRANCH   1   3
ATOM      3  O   UNL     1       5.263  -4.229  21.875  0.00  0.00    -0.302 OA
ATOM      4  H   UNL     1       4.475  -4.053  21.322  0.00  0.00    +0.222 HD
ENDBRANCH   1   3
BRANCH   1   5
ATOM      5  O   UNL     1       4.002  -4.223  25.097  0.00  0.00    -0.186 OA
BRANCH   5   6
ATOM      6  P   UNL     1       4.220  -2.658  25.799  0.00  0.00    +0.483 P 
ATOM      7  O   UNL     1       2.750  -2.271  25.606  0.00  0.00    -0.227 OA
BRANCH   6   8
ATOM      8  O   UNL     1       5.013  -2.157  24.468  0.00  0.00    -0.302 OA
ATOM      9  H   UNL     1       4.388  -1.850  23.784  0.00  0.00    +0.222 HD
ENDBRANCH   6   8
BRANCH   6  10
ATOM     10  O   UNL     1       4.437  -1.092  26.502  0.00  0.00    -0.284 OA
BRANCH  10  11
ATOM     11  C   UNL     1       5.198  -0.269  25.625  0.00  0.00    +0.206 C 
BRANCH  11  12
ATOM     12  C   UNL     1       4.995   1.193  26.000  0.00  0.00    +0.179 C 
ATOM     13  C   UNL     1       5.311   1.422  27.473  0.00  0.00    +0.194 C 
ATOM     14  C   UNL     1       6.776   1.856  27.485  0.00  0.00    +0.196 C 
ATOM     15  C   UNL     1       7.151   2.010  26.004  0.00  0.00    +0.253 C 
ATOM     16  O   UNL     1       5.921   2.017  25.268  0.00  0.00    -0.346 OA
BRANCH  15  17
ATOM     17  N   UNL     1       7.935   3.172  25.645  0.00  0.00    -0.286 N 
ATOM     18  C   UNL     1       9.076   3.153  24.888  0.00  0.00    +0.167 A 
ATOM     19  N   UNL     1       9.827   2.085  24.557  0.00  0.00    -0.216 NA
ATOM     20  C   UNL     1      10.856   2.461  23.765  0.00  0.00    +0.225 A 
ATOM     21  N   UNL     1      11.134   3.688  23.270  0.00  0.00    -0.219 NA
ATOM     22  C   UNL     1      10.312   4.712  23.594  0.00  0.00    +0.147 A 
ATOM     23  N   UNL     1      10.541   5.948  23.011  0.00  0.00    -0.341 N 
ATOM     24  H   UNL     1      10.106   6.729  23.487  0.00  0.00    +0.144 HD
ATOM     25  H   UNL     1      11.475   6.057  22.640  0.00  0.00    +0.144 HD
ATOM     26  C   UNL     1       9.255   4.468  24.486  0.00  0.00    +0.147 A 
ATOM     27  N   UNL     1       8.295   5.287  25.041  0.00  0.00    -0.231 NA
ATOM     28  C   UNL     1       7.515   4.484  25.728  0.00  0.00    +0.203 A 
ENDBRANCH  15  17
BRANCH  14  29
ATOM     29  O   UNL     1       7.579   0.836  28.096  0.00  0.00    -0.385 OA
ATOM     30  H   UNL     1       8.202   0.533  27.401  0.00  0.00    +0.210 HD
ENDBRANCH  14  29
BRANCH  13  31
ATOM     31  O   UNL     1       4.521   2.500  27.977  0.00  0.00    -0.278 OA
BRANCH  31  32
ATOM     32  P   UNL     1       3.112   2.116  28.631  0.00  0.00    +0.473 P 
ATOM     33  O   UNL     1       2.735   2.795  29.898  0.00  0.00    -0.228 OA
BRANCH  32  34
ATOM     34  O   UNL     1       3.208   0.528  28.751  0.00  0.00    -0.303 OA
ATOM     35  H   UNL     1       2.431   0.172  29.226  0.00  0.00    +0.222 HD
ENDBRANCH  32  34
BRANCH  32  36
ATOM     36  O   UNL     1       2.079   2.256  27.433  0.00  0.00    -0.303 OA
ATOM     37  H   UNL     1       2.549   2.452  26.605  0.00  0.00    +0.222 HD
ENDBRANCH  32  36
ENDBRANCH  31  32
ENDBRANCH  13  31
ENDBRANCH  11  12
ENDBRANCH  10  11
ENDBRANCH   6  10
ENDBRANCH   5   6
ENDBRANCH   1   5
BRANCH   1  38
ATOM     38  O   UNL     1       3.303  -5.034  22.979  0.00  0.00    -0.286 OA
BRANCH  38  39
ATOM     39  C   UNL     1       2.286  -5.331  23.934  0.00  0.00    +0.181 C 
BRANCH  39  41
ATOM     40  C   UNL     1       0.517  -6.915  24.813  0.00  0.00    +0.016 C 
ATOM     41  C   UNL     1       1.841  -6.823  24.016  0.00  0.00    +0.024 C 
ATOM     42  C   UNL     1       1.568  -7.449  22.631  0.00  0.00    +0.016 C 
BRANCH  41  43
ATOM     43  C   UNL     1       2.980  -7.673  24.662  0.00  0.00    +0.208 C 
BRANCH  43  44
ATOM     44  C   UNL     1       3.267  -7.269  26.121  0.00  0.00    +0.242 C 
ATOM     45  N   UNL     1       4.598  -7.083  26.405  0.00  0.00    -0.313 N 
ATOM     46  H   UNL     1       5.246  -6.933  25.638  0.00  0.00    +0.149 HD
ATOM     47  O   UNL     1       2.389  -7.159  26.973  0.00  0.00    -0.273 OA
BRANCH  45  48
ATOM     48  C   UNL     1       5.019  -6.688  27.737  0.00  0.00    +0.113 C 
BRANCH  48  49
ATOM     49  C   UNL     1       5.551  -5.267  27.772  0.00  0.00    +0.114 C 
BRANCH  49  50
ATOM     50  C   UNL     1       6.897  -5.204  27.091  0.00  0.00    +0.215 C 
ATOM     51  N   UNL     1       7.082  -4.097  26.295  0.00  0.00    -0.314 N 
ATOM     52  H   UNL     1       6.458  -3.306  26.396  0.00  0.00    +0.149 HD
ATOM     53  O   UNL     1       7.715  -6.116  27.189  0.00  0.00    -0.276 OA
BRANCH  51  54
ATOM     54  C   UNL     1       8.363  -3.875  25.642  0.00  0.00    +0.115 C 
BRANCH  54  55
ATOM     55  C   UNL     1       8.621  -2.410  25.290  0.00  0.00    +0.096 C 
BRANCH  55  56
ATOM     56  S   UNL     1       9.591  -2.282  23.748  0.00  0.00    -0.087 S 
BRANCH  56  57
ATOM     57  C   UNL     1       8.342  -1.675  22.665  0.00  0.00    +0.190 C 
ATOM     58  O   UNL     1       7.345  -2.327  22.388  0.00  0.00    -0.285 OA
BRANCH  57  59
ATOM     59  C   UNL     1       8.567  -0.264  22.164  0.00  0.00    +0.097 C 
BRANCH  59  60
ATOM     60  C   UNL     1       7.386   0.657  22.416  0.00  0.00    +0.129 C 
BRANCH  60  61
ATOM     61  C   UNL     1       7.630   2.046  21.886  0.00  0.00    +0.305 C 
ATOM     62  O   UNL     1       6.785   2.927  21.911  0.00  0.00    -0.251 OA
BRANCH  61  63
ATOM     63  O   UNL     1       8.868   2.235  21.386  0.00  0.00    -0.481 OA
ATOM     64  H   UNL     1       9.575   1.708  21.801  0.00  0.00    +0.295 HD
ENDBRANCH  61  63
ENDBRANCH  60  61
ENDBRANCH  59  60
ENDBRANCH  57  59
ENDBRANCH  56  57
ENDBRANCH  55  56
ENDBRANCH  54  55
ENDBRANCH  51  54
ENDBRANCH  49  50
ENDBRANCH  48  49
ENDBRANCH  45  48
ENDBRANCH  43  44
BRANCH  43  65
ATOM     65  O   UNL     1       4.187  -7.588  23.903  0.00  0.00    -0.382 OA
ATOM     66  H   UNL     1       4.487  -6.667  23.848  0.00  0.00    +0.210 HD
ENDBRANCH  43  65
ENDBRANCH  41  43
ENDBRANCH  39  41
ENDBRANCH  38  39
ENDBRANCH   1  38
TORSDOF 30
ENDMDL
MODEL 5
REMARK VINA RESULT:      -5.4      2.963      8.830
REMARK  Name = 
REMARK  32 active torsions:
REMARK  status: ('A' for Active; 'I' for Inactive)
REMARK    1  A    between atoms: C_1  and  C_2
REMARK    2  A    between atoms: C_2  and  C_3
REMARK    3  A    between atoms: C_2  and  C_4
REMARK    4  A    between atoms: C_2  and  C_40
REMARK    5  A    between atoms: C_4  and  O_5
REMARK    6  A    between atoms: O_5  and  P_6
REMARK    7  A    between atoms: P_6  and  O_7
REMARK    8  A    between atoms: P_6  and  O_9
REMARK    9  A    between atoms: O_9  and  P_10
REMARK   10  A    between atoms: P_10  and  O_11
REMARK   11  A    between atoms: P_10  and  O_13
REMARK   12  A    between atoms: O_13  and  C_14
REMARK   13  A    between atoms: C_14  and  C_15
REMARK   14  A    between atoms: C_18  and  N_30
REMARK   15  A    between atoms: C_20  and  O_22
REMARK   16  A    between atoms: C_23  and  O_25
REMARK   17  A    between atoms: O_25  and  P_26
REMARK   18  A    between atoms: P_26  and  O_27
REMARK   19  A    between atoms: P_26  and  O_28
REMARK   20  A    between atoms: C_40  and  O_42
REMARK   21  A    between atoms: C_40  and  C_43
REMARK   22  A    between atoms: N_45  and  C_46
REMARK   23  A    between atoms: C_46  and  C_47
REMARK   24  A    between atoms: C_47  and  C_48
REMARK   25  A    between atoms: N_50  and  C_51
REMARK   26  A    between atoms: C_51  and  C_52
REMARK   27  A    between atoms: C_52  and  S_53
REMARK   28  A    between atoms: S_53  and  C_54
REMARK   29  A    between atoms: C_54  and  C_56
REMARK   30  A    between atoms: C_56  and  C_57
REMARK   31  A    between atoms: C_57  and  C_58
REMARK   32  A    between atoms: C_58  and  O_59
REMARK                            x       y       z     vdW  Elec       q    Type
REMARK                         _______ _______ _______ _____ _____    ______ ____
ROOT
ATOM      1  P   UNL     1       6.812   2.877  27.754  0.00  0.00    +0.483 P 
ATOM      2  O   UNL     1       7.527   3.764  26.730  0.00  0.00    -0.227 OA
ENDROOT
BRANCH   1   3
ATOM      3  O   UNL     1       7.202   4.057  28.959  0.00  0.00    -0.302 OA
ATOM      4  H   UNL     1       6.374   4.140  29.473  0.00  0.00    +0.222 HD
ENDBRANCH   1   3
BRANCH   1   5
ATOM      5  O   UNL     1       6.423   1.697  26.551  0.00  0.00    -0.186 OA
BRANCH   5   6
ATOM      6  P   UNL     1       7.542   0.382  26.648  0.00  0.00    +0.483 P 
ATOM      7  O   UNL     1       7.767   0.572  28.152  0.00  0.00    -0.227 OA
BRANCH   6   8
ATOM      8  O   UNL     1       8.675   1.273  25.890  0.00  0.00    -0.302 OA
ATOM      9  H   UNL     1       9.553   0.851  25.956  0.00  0.00    +0.222 HD
ENDBRANCH   6   8
BRANCH   6  10
ATOM     10  O   UNL     1       8.661  -0.934  26.747  0.00  0.00    -0.284 OA
BRANCH  10  11
ATOM     11  C   UNL     1       7.999  -2.156  26.442  0.00  0.00    +0.206 C 
BRANCH  11  12
ATOM     12  C   UNL     1       7.526  -2.128  24.994  0.00  0.00    +0.179 C 
ATOM     13  C   UNL     1       8.641  -2.571  24.054  0.00  0.00    +0.194 C 
ATOM     14  C   UNL     1       8.407  -4.070  23.866  0.00  0.00    +0.196 C 
ATOM     15  C   UNL     1       7.074  -4.350  24.576  0.00  0.00    +0.253 C 
ATOM     16  O   UNL     1       6.459  -3.077  24.812  0.00  0.00    -0.346 OA
BRANCH  15  17
ATOM     17  N   UNL     1       6.139  -5.219  23.895  0.00  0.00    -0.286 N 
ATOM     18  C   UNL     1       5.202  -6.008  24.507  0.00  0.00    +0.167 A 
ATOM     19  N   UNL     1       5.127  -6.336  25.810  0.00  0.00    -0.216 NA
ATOM     20  C   UNL     1       4.038  -7.103  26.041  0.00  0.00    +0.225 A 
ATOM     21  N   UNL     1       3.073  -7.480  25.170  0.00  0.00    -0.219 NA
ATOM     22  C   UNL     1       3.175  -7.073  23.884  0.00  0.00    +0.147 A 
ATOM     23  N   UNL     1       2.139  -7.378  23.016  0.00  0.00    -0.341 N 
ATOM     24  H   UNL     1       2.378  -7.320  22.034  0.00  0.00    +0.144 HD
ATOM     25  H   UNL     1       1.549  -8.135  23.333  0.00  0.00    +0.144 HD
ATOM     26  C   UNL     1       4.312  -6.345  23.498  0.00  0.00    +0.147 A 
ATOM     27  N   UNL     1       4.728  -5.841  22.285  0.00  0.00    -0.231 NA
ATOM     28  C   UNL     1       5.825  -5.168  22.552  0.00  0.00    +0.203 A 
ENDBRANCH  15  17
BRANCH  14  29
ATOM     29  O   UNL     1       9.466  -4.809  24.491  0.00  0.00    -0.385 OA
ATOM     30  H   UNL     1       9.108  -5.113  25.352  0.00  0.00    +0.210 HD
ENDBRANCH  14  29
BRANCH  13  31
ATOM     31  O   UNL     1       8.487  -1.932  22.786  0.00  0.00    -0.278 OA
BRANCH  31  32
ATOM     32  P   UNL     1       9.096  -0.460  22.644  0.00  0.00    +0.473 P 
ATOM     33  O   UNL     1       9.764  -0.113  21.363  0.00  0.00    -0.228 OA
BRANCH  32  34
ATOM     34  O   UNL     1      10.049  -0.354  23.919  0.00  0.00    -0.303 OA
ATOM     35  H   UNL     1      10.988  -0.376  23.649  0.00  0.00    +0.222 HD
ENDBRANCH  32  34
BRANCH  32  36
ATOM     36  O   UNL     1       7.908   0.495  23.089  0.00  0.00    -0.303 OA
ATOM     37  H   UNL     1       7.933   0.637  24.051  0.00  0.00    +0.222 HD
ENDBRANCH  32  36
ENDBRANCH  31  32
ENDBRANCH  13  31
ENDBRANCH  11  12
ENDBRANCH  10  11
ENDBRANCH   6  10
ENDBRANCH   5   6
ENDBRANCH   1   5
BRANCH   1  38
ATOM     38  O   UNL     1       5.233   3.297  27.838  0.00  0.00    -0.286 OA
BRANCH  38  39
ATOM     39  C   UNL     1       4.463   2.817  28.938  0.00  0.00    +0.181 C 
BRANCH  39  41
ATOM     40  C   UNL     1       3.418   0.779  27.854  0.00  0.00    +0.016 C 
ATOM     41  C   UNL     1       3.117   2.116  28.575  0.00  0.00    +0.024 C 
ATOM     42  C   UNL     1       2.265   1.768  29.815  0.00  0.00    +0.016 C 
BRANCH  41  43
ATOM     43  C   UNL     1       2.248   3.076  27.703  0.00  0.00    +0.208 C 
BRANCH  43  44
ATOM     44  C   UNL     1       2.306   2.731  26.203  0.00  0.00    +0.242 C 
ATOM     45  N   UNL     1       3.381   3.271  25.539  0.00  0.00    -0.313 N 
ATOM     46  H   UNL     1       4.181   3.587  26.079  0.00  0.00    +0.149 HD
ATOM     47  O   UNL     1       1.447   2.063  25.633  0.00  0.00    -0.273 OA
BRANCH  45  48
ATOM     48  C   UNL     1       3.573   3.021  24.123  0.00  0.00    +0.113 C 
BRANCH  48  49
ATOM     49  C   UNL     1       5.037   3.078  23.725  0.00  0.00    +0.114 C 
BRANCH  49  50
ATOM     50  C   UNL     1       5.550   4.491  23.849  0.00  0.00    +0.215 C 
ATOM     51  N   UNL     1       6.396   4.882  22.836  0.00  0.00    -0.314 N 
ATOM     52  H   UNL     1       6.430   4.336  21.983  0.00  0.00    +0.149 HD
ATOM     53  O   UNL     1       5.287   5.193  24.822  0.00  0.00    -0.276 OA
BRANCH  51  54
ATOM     54  C   UNL     1       6.902   6.244  22.793  0.00  0.00    +0.115 C 
BRANCH  54  55
ATOM     55  C   UNL     1       8.424   6.325  22.672  0.00  0.00    +0.096 C 
BRANCH  55  56
ATOM     56  S   UNL     1       9.221   5.799  24.229  0.00  0.00    -0.087 S 
BRANCH  56  57
ATOM     57  C   UNL     1       9.737   4.182  23.762  0.00  0.00    +0.190 C 
ATOM     58  O   UNL     1       8.950   3.250  23.658  0.00  0.00    -0.285 OA
BRANCH  57  59
ATOM     59  C   UNL     1      11.210   4.054  23.435  0.00  0.00    +0.097 C 
BRANCH  59  60
ATOM     60  C   UNL     1      11.950   5.379  23.475  0.00  0.00    +0.129 C 
BRANCH  60  61
ATOM     61  C   UNL     1      13.221   5.341  22.669  0.00  0.00    +0.305 C 
ATOM     62  O   UNL     1      13.277   5.670  21.494  0.00  0.00    -0.251 OA
BRANCH  61  63
ATOM     63  O   UNL     1      14.299   4.918  23.360  0.00  0.00    -0.481 OA
ATOM     64  H   UNL     1      14.459   5.369  24.210  0.00  0.00    +0.295 HD
ENDBRANCH  61  63
ENDBRANCH  60  61
ENDBRANCH  59  60
ENDBRANCH  57  59
ENDBRANCH  56  57
ENDBRANCH  55  56
ENDBRANCH  54  55
ENDBRANCH  51  54
ENDBRANCH  49  50
ENDBRANCH  48  49
ENDBRANCH  45  48
ENDBRANCH  43  44
BRANCH  43  65
ATOM     65  O   UNL     1       2.632   4.440  27.889  0.00  0.00    -0.382 OA
ATOM     66  H   UNL     1       3.528   4.586  27.548  0.00  0.00    +0.210 HD
ENDBRANCH  43  65
ENDBRANCH  41  43
ENDBRANCH  39  41
ENDBRANCH  38  39
ENDBRANCH   1  38
TORSDOF 30
ENDMDL
MODEL 6
REMARK VINA RESULT:      -5.3      3.317      9.157
REMARK  Name = 
REMARK  32 active torsions:
REMARK  status: ('A' for Active; 'I' for Inactive)
REMARK    1  A    between atoms: C_1  and  C_2
REMARK    2  A    between atoms: C_2  and  C_3
REMARK    3  A    between atoms: C_2  and  C_4
REMARK    4  A    between atoms: C_2  and  C_40
REMARK    5  A    between atoms: C_4  and  O_5
REMARK    6  A    between atoms: O_5  and  P_6
REMARK    7  A    between atoms: P_6  and  O_7
REMARK    8  A    between atoms: P_6  and  O_9
REMARK    9  A    between atoms: O_9  and  P_10
REMARK   10  A    between atoms: P_10  and  O_11
REMARK   11  A    between atoms: P_10  and  O_13
REMARK   12  A    between atoms: O_13  and  C_14
REMARK   13  A    between atoms: C_14  and  C_15
REMARK   14  A    between atoms: C_18  and  N_30
REMARK   15  A    between atoms: C_20  and  O_22
REMARK   16  A    between atoms: C_23  and  O_25
REMARK   17  A    between atoms: O_25  and  P_26
REMARK   18  A    between atoms: P_26  and  O_27
REMARK   19  A    between atoms: P_26  and  O_28
REMARK   20  A    between atoms: C_40  and  O_42
REMARK   21  A    between atoms: C_40  and  C_43
REMARK   22  A    between atoms: N_45  and  C_46
REMARK   23  A    between atoms: C_46  and  C_47
REMARK   24  A    between atoms: C_47  and  C_48
REMARK   25  A    between atoms: N_50  and  C_51
REMARK   26  A    between atoms: C_51  and  C_52
REMARK   27  A    between atoms: C_52  and  S_53
REMARK   28  A    between atoms: S_53  and  C_54
REMARK   29  A    between atoms: C_54  and  C_56
REMARK   30  A    between atoms: C_56  and  C_57
REMARK   31  A    between atoms: C_57  and  C_58
REMARK   32  A    between atoms: C_58  and  O_59
REMARK                            x       y       z     vdW  Elec       q    Type
REMARK                         _______ _______ _______ _____ _____    ______ ____
ROOT
ATOM      1  P   UNL     1       8.428  -2.552  23.899  0.00  0.00    +0.483 P 
ATOM      2  O   UNL     1       9.910  -2.912  23.762  0.00  0.00    -0.227 OA
ENDROOT
BRANCH   1   3
ATOM      3  O   UNL     1       8.674  -2.443  25.608  0.00  0.00    -0.302 OA
ATOM      4  H   UNL     1       9.309  -1.704  25.700  0.00  0.00    +0.222 HD
ENDBRANCH   1   3
BRANCH   1   5
ATOM      5  O   UNL     1       8.180  -2.663  22.191  0.00  0.00    -0.186 OA
BRANCH   5   6
ATOM      6  P   UNL     1       6.900  -3.779  21.864  0.00  0.00    +0.483 P 
ATOM      7  O   UNL     1       5.812  -2.716  22.042  0.00  0.00    -0.227 OA
BRANCH   6   8
ATOM      8  O   UNL     1       7.117  -4.474  23.320  0.00  0.00    -0.302 OA
ATOM      9  H   UNL     1       7.650  -3.902  23.904  0.00  0.00    +0.222 HD
ENDBRANCH   6   8
BRANCH   6  10
ATOM     10  O   UNL     1       5.619  -4.895  21.536  0.00  0.00    -0.284 OA
BRANCH  10  11
ATOM     11  C   UNL     1       5.364  -5.690  22.688  0.00  0.00    +0.206 C 
BRANCH  11  12
ATOM     12  C   UNL     1       3.923  -5.482  23.137  0.00  0.00    +0.179 C 
ATOM     13  C   UNL     1       3.528  -6.519  24.182  0.00  0.00    +0.194 C 
ATOM     14  C   UNL     1       3.807  -5.837  25.520  0.00  0.00    +0.196 C 
ATOM     15  C   UNL     1       4.182  -4.393  25.153  0.00  0.00    +0.253 C 
ATOM     16  O   UNL     1       3.795  -4.204  23.786  0.00  0.00    -0.346 OA
BRANCH  15  17
ATOM     17  N   UNL     1       3.613  -3.342  25.966  0.00  0.00    -0.286 N 
ATOM     18  C   UNL     1       4.308  -2.287  26.496  0.00  0.00    +0.167 A 
ATOM     19  N   UNL     1       5.643  -2.149  26.597  0.00  0.00    -0.216 NA
ATOM     20  C   UNL     1       5.953  -0.950  27.142  0.00  0.00    +0.225 A 
ATOM     21  N   UNL     1       5.119   0.052  27.501  0.00  0.00    -0.219 NA
ATOM     22  C   UNL     1       3.790  -0.125  27.326  0.00  0.00    +0.147 A 
ATOM     23  N   UNL     1       2.944   0.937  27.604  0.00  0.00    -0.341 N 
ATOM     24  H   UNL     1       1.974   0.682  27.740  0.00  0.00    +0.144 HD
ATOM     25  H   UNL     1       3.355   1.641  28.201  0.00  0.00    +0.144 HD
ATOM     26  C   UNL     1       3.334  -1.365  26.850  0.00  0.00    +0.147 A 
ATOM     27  N   UNL     1       2.073  -1.867  26.616  0.00  0.00    -0.231 NA
ATOM     28  C   UNL     1       2.269  -3.052  26.084  0.00  0.00    +0.203 A 
ENDBRANCH  15  17
BRANCH  14  29
ATOM     29  O   UNL     1       4.907  -6.483  26.175  0.00  0.00    -0.385 OA
ATOM     30  H   UNL     1       5.286  -7.102  25.515  0.00  0.00    +0.210 HD
ENDBRANCH  14  29
BRANCH  13  31
ATOM     31  O   UNL     1       2.127  -6.783  24.098  0.00  0.00    -0.278 OA
BRANCH  31  32
ATOM     32  P   UNL     1       1.628  -8.204  24.635  0.00  0.00    +0.473 P 
ATOM     33  O   UNL     1       0.827  -9.047  23.709  0.00  0.00    -0.228 OA
BRANCH  32  34
ATOM     34  O   UNL     1       0.865  -7.818  25.981  0.00  0.00    -0.303 OA
ATOM     35  H   UNL     1       0.328  -8.570  26.300  0.00  0.00    +0.222 HD
ENDBRANCH  32  34
BRANCH  32  36
ATOM     36  O   UNL     1       2.940  -8.876  25.226  0.00  0.00    -0.303 OA
ATOM     37  H   UNL     1       3.082  -8.585  26.143  0.00  0.00    +0.222 HD
ENDBRANCH  32  36
ENDBRANCH  31  32
ENDBRANCH  13  31
ENDBRANCH  11  12
ENDBRANCH  10  11
ENDBRANCH   6  10
ENDBRANCH   5   6
ENDBRANCH   1   5
BRANCH   1  38
ATOM     38  O   UNL     1       8.246  -0.929  23.810  0.00  0.00    -0.286 OA
BRANCH  38  39
ATOM     39  C   UNL     1       9.139  -0.193  22.977  0.00  0.00    +0.181 C 
BRANCH  39  41
ATOM     40  C   UNL     1       9.001   1.611  24.750  0.00  0.00    +0.016 C 
ATOM     41  C   UNL     1       9.906   0.979  23.664  0.00  0.00    +0.024 C 
ATOM     42  C   UNL     1      11.197   0.519  24.375  0.00  0.00    +0.016 C 
BRANCH  41  43
ATOM     43  C   UNL     1      10.347   2.017  22.585  0.00  0.00    +0.208 C 
BRANCH  43  44
ATOM     44  C   UNL     1      10.528   3.433  23.163  0.00  0.00    +0.242 C 
ATOM     45  N   UNL     1       9.419   4.237  23.051  0.00  0.00    -0.313 N 
ATOM     46  H   UNL     1       8.515   3.803  22.887  0.00  0.00    +0.149 HD
ATOM     47  O   UNL     1      11.584   3.831  23.650  0.00  0.00    -0.273 OA
BRANCH  45  48
ATOM     48  C   UNL     1       9.438   5.594  23.563  0.00  0.00    +0.113 C 
BRANCH  48  49
ATOM     49  C   UNL     1       8.096   6.008  24.139  0.00  0.00    +0.114 C 
BRANCH  49  50
ATOM     50  C   UNL     1       7.117   6.277  23.022  0.00  0.00    +0.215 C 
ATOM     51  N   UNL     1       5.812   6.432  23.431  0.00  0.00    -0.314 N 
ATOM     52  H   UNL     1       5.620   6.604  24.411  0.00  0.00    +0.149 HD
ATOM     53  O   UNL     1       7.463   6.274  21.843  0.00  0.00    -0.276 OA
BRANCH  51  54
ATOM     54  C   UNL     1       4.780   6.771  22.465  0.00  0.00    +0.115 C 
BRANCH  54  55
ATOM     55  C   UNL     1       3.641   5.753  22.408  0.00  0.00    +0.096 C 
BRANCH  55  56
ATOM     56  S   UNL     1       3.258   5.125  24.080  0.00  0.00    -0.087 S 
BRANCH  56  57
ATOM     57  C   UNL     1       3.262   3.395  23.751  0.00  0.00    +0.190 C 
ATOM     58  O   UNL     1       2.502   2.883  22.940  0.00  0.00    -0.285 OA
BRANCH  57  59
ATOM     59  C   UNL     1       4.319   2.609  24.497  0.00  0.00    +0.097 C 
BRANCH  59  60
ATOM     60  C   UNL     1       5.736   3.016  24.134  0.00  0.00    +0.129 C 
BRANCH  60  61
ATOM     61  C   UNL     1       6.196   2.379  22.850  0.00  0.00    +0.305 C 
ATOM     62  O   UNL     1       6.718   3.007  21.942  0.00  0.00    -0.251 OA
BRANCH  61  63
ATOM     63  O   UNL     1       5.988   1.048  22.791  0.00  0.00    -0.481 OA
ATOM     64  H   UNL     1       5.139   0.737  23.155  0.00  0.00    +0.295 HD
ENDBRANCH  61  63
ENDBRANCH  60  61
ENDBRANCH  59  60
ENDBRANCH  57  59
ENDBRANCH  56  57
ENDBRANCH  55  56
ENDBRANCH  54  55
ENDBRANCH  51  54
ENDBRANCH  49  50
ENDBRANCH  48  49
ENDBRANCH  45  48
ENDBRANCH  43  44
BRANCH  43  65
ATOM     65  O   UNL     1       9.419   2.066  21.499  0.00  0.00    -0.382 OA
ATOM     66  H   UNL     1       9.747   1.542  20.752  0.00  0.00    +0.210 HD
ENDBRANCH  43  65
ENDBRANCH  41  43
ENDBRANCH  39  41
ENDBRANCH  38  39
ENDBRANCH   1  38
TORSDOF 30
ENDMDL
MODEL 7
REMARK VINA RESULT:      -5.2      2.321      8.812
REMARK  Name = 
REMARK  32 active torsions:
REMARK  status: ('A' for Active; 'I' for Inactive)
REMARK    1  A    between atoms: C_1  and  C_2
REMARK    2  A    between atoms: C_2  and  C_3
REMARK    3  A    between atoms: C_2  and  C_4
REMARK    4  A    between atoms: C_2  and  C_40
REMARK    5  A    between atoms: C_4  and  O_5
REMARK    6  A    between atoms: O_5  and  P_6
REMARK    7  A    between atoms: P_6  and  O_7
REMARK    8  A    between atoms: P_6  and  O_9
REMARK    9  A    between atoms: O_9  and  P_10
REMARK   10  A    between atoms: P_10  and  O_11
REMARK   11  A    between atoms: P_10  and  O_13
REMARK   12  A    between atoms: O_13  and  C_14
REMARK   13  A    between atoms: C_14  and  C_15
REMARK   14  A    between atoms: C_18  and  N_30
REMARK   15  A    between atoms: C_20  and  O_22
REMARK   16  A    between atoms: C_23  and  O_25
REMARK   17  A    between atoms: O_25  and  P_26
REMARK   18  A    between atoms: P_26  and  O_27
REMARK   19  A    between atoms: P_26  and  O_28
REMARK   20  A    between atoms: C_40  and  O_42
REMARK   21  A    between atoms: C_40  and  C_43
REMARK   22  A    between atoms: N_45  and  C_46
REMARK   23  A    between atoms: C_46  and  C_47
REMARK   24  A    between atoms: C_47  and  C_48
REMARK   25  A    between atoms: N_50  and  C_51
REMARK   26  A    between atoms: C_51  and  C_52
REMARK   27  A    between atoms: C_52  and  S_53
REMARK   28  A    between atoms: S_53  and  C_54
REMARK   29  A    between atoms: C_54  and  C_56
REMARK   30  A    between atoms: C_56  and  C_57
REMARK   31  A    between atoms: C_57  and  C_58
REMARK   32  A    between atoms: C_58  and  O_59
REMARK                            x       y       z     vdW  Elec       q    Type
REMARK                         _______ _______ _______ _____ _____    ______ ____
ROOT
ATOM      1  P   UNL     1       3.668   0.762  27.121  0.00  0.00    +0.483 P 
ATOM      2  O   UNL     1       3.064   1.567  25.966  0.00  0.00    -0.227 OA
ENDROOT
BRANCH   1   3
ATOM      3  O   UNL     1       5.231   1.264  26.574  0.00  0.00    -0.302 OA
ATOM      4  H   UNL     1       5.763   1.289  27.395  0.00  0.00    +0.222 HD
ENDBRANCH   1   3
BRANCH   1   5
ATOM      5  O   UNL     1       2.106   0.260  27.668  0.00  0.00    -0.186 OA
BRANCH   5   6
ATOM      6  P   UNL     1       1.806  -1.362  27.146  0.00  0.00    +0.483 P 
ATOM      7  O   UNL     1       2.017  -1.943  28.548  0.00  0.00    -0.227 OA
BRANCH   6   8
ATOM      8  O   UNL     1       3.252  -1.403  26.400  0.00  0.00    -0.302 OA
ATOM      9  H   UNL     1       3.685  -2.270  26.525  0.00  0.00    +0.222 HD
ENDBRANCH   6   8
BRANCH   6  10
ATOM     10  O   UNL     1       1.505  -2.984  26.626  0.00  0.00    -0.284 OA
BRANCH  10  11
ATOM     11  C   UNL     1       1.754  -3.890  27.695  0.00  0.00    +0.206 C 
BRANCH  11  12
ATOM     12  C   UNL     1       2.293  -5.199  27.133  0.00  0.00    +0.179 C 
ATOM     13  C   UNL     1       2.328  -5.158  25.610  0.00  0.00    +0.194 C 
ATOM     14  C   UNL     1       3.745  -4.693  25.274  0.00  0.00    +0.196 C 
ATOM     15  C   UNL     1       4.476  -4.662  26.624  0.00  0.00    +0.253 C 
ATOM     16  O   UNL     1       3.658  -5.384  27.552  0.00  0.00    -0.346 OA
BRANCH  15  17
ATOM     17  N   UNL     1       5.822  -5.193  26.652  0.00  0.00    -0.286 N 
ATOM     18  C   UNL     1       6.668  -5.260  25.578  0.00  0.00    +0.167 A 
ATOM     19  N   UNL     1       6.360  -5.106  24.276  0.00  0.00    -0.216 NA
ATOM     20  C   UNL     1       7.473  -5.204  23.514  0.00  0.00    +0.225 A 
ATOM     21  N   UNL     1       8.756  -5.364  23.913  0.00  0.00    -0.219 NA
ATOM     22  C   UNL     1       9.009  -5.459  25.238  0.00  0.00    +0.147 A 
ATOM     23  N   UNL     1      10.330  -5.527  25.650  0.00  0.00    -0.341 N 
ATOM     24  H   UNL     1      10.463  -5.883  26.589  0.00  0.00    +0.144 HD
ATOM     25  H   UNL     1      10.971  -5.809  24.922  0.00  0.00    +0.144 HD
ATOM     26  C   UNL     1       7.924  -5.462  26.130  0.00  0.00    +0.147 A 
ATOM     27  N   UNL     1       7.845  -5.591  27.500  0.00  0.00    -0.231 NA
ATOM     28  C   UNL     1       6.573  -5.423  27.786  0.00  0.00    +0.203 A 
ENDBRANCH  15  17
BRANCH  14  29
ATOM     29  O   UNL     1       3.701  -3.377  24.704  0.00  0.00    -0.385 OA
ATOM     30  H   UNL     1       4.603  -3.204  24.360  0.00  0.00    +0.210 HD
ENDBRANCH  14  29
BRANCH  13  31
ATOM     31  O   UNL     1       2.155  -6.476  25.086  0.00  0.00    -0.278 OA
BRANCH  31  32
ATOM     32  P   UNL     1       2.867  -6.794  23.689  0.00  0.00    +0.473 P 
ATOM     33  O   UNL     1       2.981  -5.685  22.707  0.00  0.00    -0.228 OA
BRANCH  32  34
ATOM     34  O   UNL     1       2.038  -8.048  23.155  0.00  0.00    -0.303 OA
ATOM     35  H   UNL     1       1.191  -7.758  22.762  0.00  0.00    +0.222 HD
ENDBRANCH  32  34
BRANCH  32  36
ATOM     36  O   UNL     1       4.229  -7.500  24.101  0.00  0.00    -0.303 OA
ATOM     37  H   UNL     1       4.415  -8.245  23.503  0.00  0.00    +0.222 HD
ENDBRANCH  32  36
ENDBRANCH  31  32
ENDBRANCH  13  31
ENDBRANCH  11  12
ENDBRANCH  10  11
ENDBRANCH   6  10
ENDBRANCH   5   6
ENDBRANCH   1   5
BRANCH   1  38
ATOM     38  O   UNL     1       3.811   1.718  28.441  0.00  0.00    -0.286 OA
BRANCH  38  39
ATOM     39  C   UNL     1       5.121   2.064  28.887  0.00  0.00    +0.181 C 
BRANCH  39  41
ATOM     40  C   UNL     1       4.263   4.380  28.322  0.00  0.00    +0.016 C 
ATOM     41  C   UNL     1       5.448   3.588  28.928  0.00  0.00    +0.024 C 
ATOM     42  C   UNL     1       5.652   4.124  30.362  0.00  0.00    +0.016 C 
BRANCH  41  43
ATOM     43  C   UNL     1       6.786   3.855  28.168  0.00  0.00    +0.208 C 
BRANCH  43  44
ATOM     44  C   UNL     1       6.571   4.567  26.819  0.00  0.00    +0.242 C 
ATOM     45  N   UNL     1       6.431   3.719  25.747  0.00  0.00    -0.313 N 
ATOM     46  H   UNL     1       6.190   2.747  25.920  0.00  0.00    +0.149 HD
ATOM     47  O   UNL     1       6.563   5.790  26.697  0.00  0.00    -0.273 OA
BRANCH  45  48
ATOM     48  C   UNL     1       6.210   4.247  24.414  0.00  0.00    +0.113 C 
BRANCH  48  49
ATOM     49  C   UNL     1       5.556   3.229  23.496  0.00  0.00    +0.114 C 
BRANCH  49  50
ATOM     50  C   UNL     1       6.481   2.056  23.286  0.00  0.00    +0.215 C 
ATOM     51  N   UNL     1       7.395   2.224  22.271  0.00  0.00    -0.314 N 
ATOM     52  H   UNL     1       7.564   3.155  21.909  0.00  0.00    +0.149 HD
ATOM     53  O   UNL     1       6.360   1.013  23.925  0.00  0.00    -0.276 OA
BRANCH  51  54
ATOM     54  C   UNL     1       8.395   1.200  22.012  0.00  0.00    +0.115 C 
BRANCH  54  55
ATOM     55  C   UNL     1       9.758   1.509  22.631  0.00  0.00    +0.096 C 
BRANCH  55  56
ATOM     56  S   UNL     1       9.996   0.555  24.170  0.00  0.00    -0.087 S 
BRANCH  56  57
ATOM     57  C   UNL     1       9.717  -1.070  23.553  0.00  0.00    +0.190 C 
ATOM     58  O   UNL     1      10.466  -1.599  22.743  0.00  0.00    -0.285 OA
BRANCH  57  59
ATOM     59  C   UNL     1       8.522  -1.781  24.153  0.00  0.00    +0.097 C 
BRANCH  59  60
ATOM     60  C   UNL     1       8.569  -1.858  25.668  0.00  0.00    +0.129 C 
BRANCH  60  61
ATOM     61  C   UNL     1       7.357  -1.229  26.304  0.00  0.00    +0.305 C 
ATOM     62  O   UNL     1       7.426  -0.415  27.212  0.00  0.00    -0.251 OA
BRANCH  61  63
ATOM     63  O   UNL     1       6.185  -1.637  25.778  0.00  0.00    -0.481 OA
ATOM     64  H   UNL     1       6.220  -2.461  25.258  0.00  0.00    +0.295 HD
ENDBRANCH  61  63
ENDBRANCH  60  61
ENDBRANCH  59  60
ENDBRANCH  57  59
ENDBRANCH  56  57
ENDBRANCH  55  56
ENDBRANCH  54  55
ENDBRANCH  51  54
ENDBRANCH  49  50
ENDBRANCH  48  49
ENDBRANCH  45  48
ENDBRANCH  43  44
BRANCH  43  65
ATOM     65  O   UNL     1       7.512   2.643  27.952  0.00  0.00    -0.382 OA
ATOM     66  H   UNL     1       8.463   2.794  28.076  0.00  0.00    +0.210 HD
ENDBRANCH  43  65
ENDBRANCH  41  43
ENDBRANCH  39  41
ENDBRANCH  38  39
ENDBRANCH   1  38
TORSDOF 30
ENDMDL
MODEL 8
REMARK VINA RESULT:      -5.1      2.218      2.895
REMARK  Name = 
REMARK  32 active torsions:
REMARK  status: ('A' for Active; 'I' for Inactive)
REMARK    1  A    between atoms: C_1  and  C_2
REMARK    2  A    between atoms: C_2  and  C_3
REMARK    3  A    between atoms: C_2  and  C_4
REMARK    4  A    between atoms: C_2  and  C_40
REMARK    5  A    between atoms: C_4  and  O_5
REMARK    6  A    between atoms: O_5  and  P_6
REMARK    7  A    between atoms: P_6  and  O_7
REMARK    8  A    between atoms: P_6  and  O_9
REMARK    9  A    between atoms: O_9  and  P_10
REMARK   10  A    between atoms: P_10  and  O_11
REMARK   11  A    between atoms: P_10  and  O_13
REMARK   12  A    between atoms: O_13  and  C_14
REMARK   13  A    between atoms: C_14  and  C_15
REMARK   14  A    between atoms: C_18  and  N_30
REMARK   15  A    between atoms: C_20  and  O_22
REMARK   16  A    between atoms: C_23  and  O_25
REMARK   17  A    between atoms: O_25  and  P_26
REMARK   18  A    between atoms: P_26  and  O_27
REMARK   19  A    between atoms: P_26  and  O_28
REMARK   20  A    between atoms: C_40  and  O_42
REMARK   21  A    between atoms: C_40  and  C_43
REMARK   22  A    between atoms: N_45  and  C_46
REMARK   23  A    between atoms: C_46  and  C_47
REMARK   24  A    between atoms: C_47  and  C_48
REMARK   25  A    between atoms: N_50  and  C_51
REMARK   26  A    between atoms: C_51  and  C_52
REMARK   27  A    between atoms: C_52  and  S_53
REMARK   28  A    between atoms: S_53  and  C_54
REMARK   29  A    between atoms: C_54  and  C_56
REMARK   30  A    between atoms: C_56  and  C_57
REMARK   31  A    between atoms: C_57  and  C_58
REMARK   32  A    between atoms: C_58  and  O_59
REMARK                            x       y       z     vdW  Elec       q    Type
REMARK                         _______ _______ _______ _____ _____    ______ ____
ROOT
ATOM      1  P   UNL     1       5.423  -4.203  22.603  0.00  0.00    +0.483 P 
ATOM      2  O   UNL     1       6.720  -4.964  22.892  0.00  0.00    -0.227 OA
ENDROOT
BRANCH   1   3
ATOM      3  O   UNL     1       5.693  -4.503  20.921  0.00  0.00    -0.302 OA
ATOM      4  H   UNL     1       6.511  -5.038  20.913  0.00  0.00    +0.222 HD
ENDBRANCH   1   3
BRANCH   1   5
ATOM      5  O   UNL     1       5.153  -3.903  24.285  0.00  0.00    -0.186 OA
BRANCH   5   6
ATOM      6  P   UNL     1       5.590  -2.272  24.658  0.00  0.00    +0.483 P 
ATOM      7  O   UNL     1       4.175  -1.904  25.113  0.00  0.00    -0.227 OA
BRANCH   6   8
ATOM      8  O   UNL     1       5.677  -1.919  23.071  0.00  0.00    -0.302 OA
ATOM      9  H   UNL     1       5.685  -0.953  22.928  0.00  0.00    +0.222 HD
ENDBRANCH   6   8
BRANCH   6  10
ATOM     10  O   UNL     1       6.028  -0.640  25.032  0.00  0.00    -0.284 OA
BRANCH  10  11
ATOM     11  C   UNL     1       6.051   0.140  23.842  0.00  0.00    +0.206 C 
BRANCH  11  12
ATOM     12  C   UNL     1       6.211   1.611  24.204  0.00  0.00    +0.179 C 
ATOM     13  C   UNL     1       6.611   1.765  25.666  0.00  0.00    +0.194 C 
ATOM     14  C   UNL     1       8.137   1.838  25.639  0.00  0.00    +0.196 C 
ATOM     15  C   UNL     1       8.499   1.889  24.147  0.00  0.00    +0.253 C 
ATOM     16  O   UNL     1       7.289   2.185  23.441  0.00  0.00    -0.346 OA
BRANCH  15  17
ATOM     17  N   UNL     1       9.528   2.828  23.756  0.00  0.00    -0.286 N 
ATOM     18  C   UNL     1       9.524   4.169  24.034  0.00  0.00    +0.167 A 
ATOM     19  N   UNL     1       8.492   4.915  24.472  0.00  0.00    -0.216 NA
ATOM     20  C   UNL     1       8.886   6.193  24.669  0.00  0.00    +0.225 A 
ATOM     21  N   UNL     1      10.124   6.723  24.539  0.00  0.00    -0.219 NA
ATOM     22  C   UNL     1      11.132   5.910  24.148  0.00  0.00    +0.147 A 
ATOM     23  N   UNL     1      12.415   6.431  24.108  0.00  0.00    -0.341 N 
ATOM     24  H   UNL     1      13.071   5.899  23.548  0.00  0.00    +0.144 HD
ATOM     25  H   UNL     1      12.446   7.440  24.074  0.00  0.00    +0.144 HD
ATOM     26  C   UNL     1      10.832   4.577  23.824  0.00  0.00    +0.147 A 
ATOM     27  N   UNL     1      11.604   3.536  23.358  0.00  0.00    -0.231 NA
ATOM     28  C   UNL     1      10.799   2.498  23.329  0.00  0.00    +0.203 A 
ENDBRANCH  15  17
BRANCH  14  29
ATOM     29  O   UNL     1       8.690   0.659  26.242  0.00  0.00    -0.385 OA
ATOM     30  H   UNL     1       9.627   0.872  26.437  0.00  0.00    +0.210 HD
ENDBRANCH  14  29
BRANCH  13  31
ATOM     31  O   UNL     1       6.114   3.004  26.176  0.00  0.00    -0.278 OA
BRANCH  31  32
ATOM     32  P   UNL     1       6.556   3.401  27.661  0.00  0.00    +0.473 P 
ATOM     33  O   UNL     1       7.053   2.313  28.544  0.00  0.00    -0.228 OA
BRANCH  32  34
ATOM     34  O   UNL     1       5.262   4.147  28.220  0.00  0.00    -0.303 OA
ATOM     35  H   UNL     1       4.890   4.745  27.543  0.00  0.00    +0.222 HD
ENDBRANCH  32  34
BRANCH  32  36
ATOM     36  O   UNL     1       7.537   4.633  27.457  0.00  0.00    -0.303 OA
ATOM     37  H   UNL     1       8.443   4.387  27.713  0.00  0.00    +0.222 HD
ENDBRANCH  32  36
ENDBRANCH  31  32
ENDBRANCH  13  31
ENDBRANCH  11  12
ENDBRANCH  10  11
ENDBRANCH   6  10
ENDBRANCH   5   6
ENDBRANCH   1   5
BRANCH   1  38
ATOM     38  O   UNL     1       4.162  -5.246  22.598  0.00  0.00    -0.286 OA
BRANCH  38  39
ATOM     39  C   UNL     1       3.100  -5.028  23.524  0.00  0.00    +0.181 C 
BRANCH  39  41
ATOM     40  C   UNL     1       1.050  -5.960  24.685  0.00  0.00    +0.016 C 
ATOM     41  C   UNL     1       2.457  -6.309  24.141  0.00  0.00    +0.024 C 
ATOM     42  C   UNL     1       2.264  -7.443  23.110  0.00  0.00    +0.016 C 
BRANCH  41  43
ATOM     43  C   UNL     1       3.395  -6.882  25.250  0.00  0.00    +0.208 C 
BRANCH  43  44
ATOM     44  C   UNL     1       3.175  -6.209  26.618  0.00  0.00    +0.242 C 
ATOM     45  N   UNL     1       3.266  -7.063  27.690  0.00  0.00    -0.313 N 
ATOM     46  H   UNL     1       3.736  -7.955  27.567  0.00  0.00    +0.149 HD
ATOM     47  O   UNL     1       2.901  -5.018  26.746  0.00  0.00    -0.273 OA
BRANCH  45  48
ATOM     48  C   UNL     1       3.093  -6.568  29.043  0.00  0.00    +0.113 C 
BRANCH  48  49
ATOM     49  C   UNL     1       4.348  -5.897  29.572  0.00  0.00    +0.114 C 
BRANCH  49  50
ATOM     50  C   UNL     1       5.562  -6.440  28.860  0.00  0.00    +0.215 C 
ATOM     51  N   UNL     1       6.274  -5.501  28.149  0.00  0.00    -0.314 N 
ATOM     52  H   UNL     1       6.113  -4.518  28.331  0.00  0.00    +0.149 HD
ATOM     53  O   UNL     1       5.831  -7.639  28.861  0.00  0.00    -0.276 OA
BRANCH  51  54
ATOM     54  C   UNL     1       7.509  -5.876  27.478  0.00  0.00    +0.115 C 
BRANCH  54  55
ATOM     55  C   UNL     1       7.747  -5.118  26.172  0.00  0.00    +0.096 C 
BRANCH  55  56
ATOM     56  S   UNL     1       8.667  -3.572  26.486  0.00  0.00    -0.087 S 
BRANCH  56  57
ATOM     57  C   UNL     1       9.333  -3.296  24.880  0.00  0.00    +0.190 C 
ATOM     58  O   UNL     1       9.641  -4.216  24.134  0.00  0.00    -0.285 OA
BRANCH  57  59
ATOM     59  C   UNL     1       9.429  -1.841  24.472  0.00  0.00    +0.097 C 
BRANCH  59  60
ATOM     60  C   UNL     1      10.191  -1.630  23.176  0.00  0.00    +0.129 C 
BRANCH  60  61
ATOM     61  C   UNL     1       9.267  -1.400  22.009  0.00  0.00    +0.305 C 
ATOM     62  O   UNL     1       9.417  -0.490  21.209  0.00  0.00    -0.251 OA
BRANCH  61  63
ATOM     63  O   UNL     1       8.261  -2.293  21.919  0.00  0.00    -0.481 OA
ATOM     64  H   UNL     1       7.553  -2.199  22.583  0.00  0.00    +0.295 HD
ENDBRANCH  61  63
ENDBRANCH  60  61
ENDBRANCH  59  60
ENDBRANCH  57  59
ENDBRANCH  56  57
ENDBRANCH  55  56
ENDBRANCH  54  55
ENDBRANCH  51  54
ENDBRANCH  49  50
ENDBRANCH  48  49
ENDBRANCH  45  48
ENDBRANCH  43  44
BRANCH  43  65
ATOM     65  O   UNL     1       4.770  -6.763  24.881  0.00  0.00    -0.382 OA
ATOM     66  H   UNL     1       5.094  -5.869  25.074  0.00  0.00    +0.210 HD
ENDBRANCH  43  65
ENDBRANCH  41  43
ENDBRANCH  39  41
ENDBRANCH  38  39
ENDBRANCH   1  38
TORSDOF 30
ENDMDL
MODEL 9
REMARK VINA RESULT:      -5.1      3.687      7.309
REMARK  Name = 
REMARK  32 active torsions:
REMARK  status: ('A' for Active; 'I' for Inactive)
REMARK    1  A    between atoms: C_1  and  C_2
REMARK    2  A    between atoms: C_2  and  C_3
REMARK    3  A    between atoms: C_2  and  C_4
REMARK    4  A    between atoms: C_2  and  C_40
REMARK    5  A    between atoms: C_4  and  O_5
REMARK    6  A    between atoms: O_5  and  P_6
REMARK    7  A    between atoms: P_6  and  O_7
REMARK    8  A    between atoms: P_6  and  O_9
REMARK    9  A    between atoms: O_9  and  P_10
REMARK   10  A    between atoms: P_10  and  O_11
REMARK   11  A    between atoms: P_10  and  O_13
REMARK   12  A    between atoms: O_13  and  C_14
REMARK   13  A    between atoms: C_14  and  C_15
REMARK   14  A    between atoms: C_18  and  N_30
REMARK   15  A    between atoms: C_20  and  O_22
REMARK   16  A    between atoms: C_23  and  O_25
REMARK   17  A    between atoms: O_25  and  P_26
REMARK   18  A    between atoms: P_26  and  O_27
REMARK   19  A    between atoms: P_26  and  O_28
REMARK   20  A    between atoms: C_40  and  O_42
REMARK   21  A    between atoms: C_40  and  C_43
REMARK   22  A    between atoms: N_45  and  C_46
REMARK   23  A    between atoms: C_46  and  C_47
REMARK   24  A    between atoms: C_47  and  C_48
REMARK   25  A    between atoms: N_50  and  C_51
REMARK   26  A    between atoms: C_51  and  C_52
REMARK   27  A    between atoms: C_52  and  S_53
REMARK   28  A    between atoms: S_53  and  C_54
REMARK   29  A    between atoms: C_54  and  C_56
REMARK   30  A    between atoms: C_56  and  C_57
REMARK   31  A    between atoms: C_57  and  C_58
REMARK   32  A    between atoms: C_58  and  O_59
REMARK                            x       y       z     vdW  Elec       q    Type
REMARK                         _______ _______ _______ _____ _____    ______ ____
ROOT
ATOM      1  P   UNL     1       9.675  -0.760  22.448  0.00  0.00    +0.483 P 
ATOM      2  O   UNL     1      10.823  -1.773  22.390  0.00  0.00    -0.227 OA
ENDROOT
BRANCH   1   3
ATOM      3  O   UNL     1       9.383  -1.086  20.774  0.00  0.00    -0.302 OA
ATOM      4  H   UNL     1       8.430  -0.894  20.668  0.00  0.00    +0.222 HD
ENDBRANCH   1   3
BRANCH   1   5
ATOM      5  O   UNL     1       9.967  -0.434  24.122  0.00  0.00    -0.186 OA
BRANCH   5   6
ATOM      6  P   UNL     1       8.876   0.791  24.670  0.00  0.00    +0.483 P 
ATOM      7  O   UNL     1       9.934   1.895  24.578  0.00  0.00    -0.227 OA
BRANCH   6   8
ATOM      8  O   UNL     1       8.950   0.198  26.184  0.00  0.00    -0.302 OA
ATOM      9  H   UNL     1       8.313   0.652  26.768  0.00  0.00    +0.222 HD
ENDBRANCH   6   8
BRANCH   6  10
ATOM     10  O   UNL     1       7.786   2.018  25.217  0.00  0.00    -0.284 OA
BRANCH  10  11
ATOM     11  C   UNL     1       7.526   1.850  26.606  0.00  0.00    +0.206 C 
BRANCH  11  12
ATOM     12  C   UNL     1       6.062   2.166  26.888  0.00  0.00    +0.179 C 
ATOM     13  C   UNL     1       5.230   2.044  25.617  0.00  0.00    +0.194 C 
ATOM     14  C   UNL     1       4.693   0.614  25.648  0.00  0.00    +0.196 C 
ATOM     15  C   UNL     1       5.117   0.067  27.020  0.00  0.00    +0.253 C 
ATOM     16  O   UNL     1       5.522   1.195  27.804  0.00  0.00    -0.346 OA
BRANCH  15  17
ATOM     17  N   UNL     1       4.133  -0.701  27.751  0.00  0.00    -0.286 N 
ATOM     18  C   UNL     1       3.441  -1.775  27.257  0.00  0.00    +0.167 A 
ATOM     19  N   UNL     1       3.333  -2.165  25.973  0.00  0.00    -0.216 NA
ATOM     20  C   UNL     1       2.598  -3.297  25.885  0.00  0.00    +0.225 A 
ATOM     21  N   UNL     1       2.067  -4.037  26.885  0.00  0.00    -0.219 NA
ATOM     22  C   UNL     1       2.256  -3.623  28.159  0.00  0.00    +0.147 A 
ATOM     23  N   UNL     1       1.795  -4.431  29.186  0.00  0.00    -0.341 N 
ATOM     24  H   UNL     1       1.693  -3.964  30.080  0.00  0.00    +0.144 HD
ATOM     25  H   UNL     1       1.093  -5.097  28.898  0.00  0.00    +0.144 HD
ATOM     26  C   UNL     1       2.928  -2.410  28.379  0.00  0.00    +0.147 A 
ATOM     27  N   UNL     1       3.230  -1.705  29.524  0.00  0.00    -0.231 NA
ATOM     28  C   UNL     1       3.955  -0.687  29.119  0.00  0.00    +0.203 A 
ENDBRANCH  15  17
BRANCH  14  29
ATOM     29  O   UNL     1       5.300  -0.155  24.600  0.00  0.00    -0.385 OA
ATOM     30  H   UNL     1       5.784  -0.882  25.046  0.00  0.00    +0.210 HD
ENDBRANCH  14  29
BRANCH  13  31
ATOM     31  O   UNL     1       4.118   2.940  25.680  0.00  0.00    -0.278 OA
BRANCH  31  32
ATOM     32  P   UNL     1       3.504   3.423  24.284  0.00  0.00    +0.473 P 
ATOM     33  O   UNL     1       3.522   4.880  23.992  0.00  0.00    -0.228 OA
BRANCH  32  34
ATOM     34  O   UNL     1       2.042   2.787  24.309  0.00  0.00    -0.303 OA
ATOM     35  H   UNL     1       1.899   2.221  23.526  0.00  0.00    +0.222 HD
ENDBRANCH  32  34
BRANCH  32  36
ATOM     36  O   UNL     1       4.208   2.491  23.208  0.00  0.00    -0.303 OA
ATOM     37  H   UNL     1       4.584   1.704  23.640  0.00  0.00    +0.222 HD
ENDBRANCH  32  36
ENDBRANCH  31  32
ENDBRANCH  13  31
ENDBRANCH  11  12
ENDBRANCH  10  11
ENDBRANCH   6  10
ENDBRANCH   5   6
ENDBRANCH   1   5
BRANCH   1  38
ATOM     38  O   UNL     1       8.286  -1.526  22.850  0.00  0.00    -0.286 OA
BRANCH  38  39
ATOM     39  C   UNL     1       8.225  -2.942  22.694  0.00  0.00    +0.181 C 
BRANCH  39  41
ATOM     40  C   UNL     1       7.780  -5.222  23.704  0.00  0.00    +0.016 C 
ATOM     41  C   UNL     1       8.243  -3.777  24.011  0.00  0.00    +0.024 C 
ATOM     42  C   UNL     1       9.651  -3.887  24.636  0.00  0.00    +0.016 C 
BRANCH  41  43
ATOM     43  C   UNL     1       7.343  -3.083  25.081  0.00  0.00    +0.208 C 
BRANCH  43  44
ATOM     44  C   UNL     1       7.162  -3.939  26.349  0.00  0.00    +0.242 C 
ATOM     45  N   UNL     1       5.864  -4.318  26.595  0.00  0.00    -0.313 N 
ATOM     46  H   UNL     1       5.191  -4.281  25.835  0.00  0.00    +0.149 HD
ATOM     47  O   UNL     1       8.087  -4.228  27.104  0.00  0.00    -0.273 OA
BRANCH  45  48
ATOM     48  C   UNL     1       5.543  -5.138  27.748  0.00  0.00    +0.113 C 
BRANCH  48  49
ATOM     49  C   UNL     1       5.201  -6.564  27.360  0.00  0.00    +0.114 C 
BRANCH  49  50
ATOM     50  C   UNL     1       3.854  -6.944  27.926  0.00  0.00    +0.215 C 
ATOM     51  N   UNL     1       2.884  -7.184  26.979  0.00  0.00    -0.314 N 
ATOM     52  H   UNL     1       3.161  -7.336  26.017  0.00  0.00    +0.149 HD
ATOM     53  O   UNL     1       3.640  -6.954  29.136  0.00  0.00    -0.276 OA
BRANCH  51  54
ATOM     54  C   UNL     1       1.562  -7.633  27.387  0.00  0.00    +0.115 C 
BRANCH  54  55
ATOM     55  C   UNL     1       0.573  -7.745  26.228  0.00  0.00    +0.096 C 
BRANCH  55  56
ATOM     56  S   UNL     1       1.043  -9.113  25.113  0.00  0.00    -0.087 S 
BRANCH  56  57
ATOM     57  C   UNL     1       1.186  -8.223  23.601  0.00  0.00    +0.190 C 
ATOM     58  O   UNL     1       1.043  -8.760  22.511  0.00  0.00    -0.285 OA
BRANCH  57  59
ATOM     59  C   UNL     1       1.431  -6.737  23.759  0.00  0.00    +0.097 C 
BRANCH  59  60
ATOM     60  C   UNL     1       2.621  -6.237  22.960  0.00  0.00    +0.129 C 
BRANCH  60  61
ATOM     61  C   UNL     1       3.898  -6.287  23.756  0.00  0.00    +0.305 C 
ATOM     62  O   UNL     1       4.529  -5.290  24.071  0.00  0.00    -0.251 OA
BRANCH  61  63
ATOM     63  O   UNL     1       4.284  -7.533  24.100  0.00  0.00    -0.481 OA
ATOM     64  H   UNL     1       4.817  -7.600  24.913  0.00  0.00    +0.295 HD
ENDBRANCH  61  63
ENDBRANCH  60  61
ENDBRANCH  59  60
ENDBRANCH  57  59
ENDBRANCH  56  57
ENDBRANCH  55  56
ENDBRANCH  54  55
ENDBRANCH  51  54
ENDBRANCH  49  50
ENDBRANCH  48  49
ENDBRANCH  45  48
ENDBRANCH  43  44
BRANCH  43  65
ATOM     65  O   UNL     1       6.060  -2.752  24.547  0.00  0.00    -0.382 OA
ATOM     66  H   UNL     1       5.473  -2.435  25.252  0.00  0.00    +0.210 HD
ENDBRANCH  43  65
ENDBRANCH  41  43
ENDBRANCH  39  41
ENDBRANCH  38  39
ENDBRANCH   1  38
TORSDOF 30
ENDMDL
