MODEL 1
REMARK VINA RESULT:      -5.9      0.000      0.000
REMARK  Name = 
REMARK  13 active torsions:
REMARK  status: ('A' for Active; 'I' for Inactive)
REMARK    1  A    between atoms: C_1  and  C_2
REMARK    2  A    between atoms: C_2  and  C_3
REMARK    3  A    between atoms: C_3  and  C_4
REMARK    4  A    between atoms: C_4  and  O_5
REMARK    5  A    between atoms: O_5  and  C_6
REMARK    6  A    between atoms: C_14  and  C_16
REMARK    7  A    between atoms: N_18  and  C_19
REMARK    8  A    between atoms: C_19  and  C_20
REMARK    9  A    between atoms: C_20  and  N_21
REMARK   10  A    between atoms: N_21  and  C_22
REMARK   11  A    between atoms: N_21  and  C_24
REMARK   12  A    between atoms: C_22  and  C_23
REMARK   13  A    between atoms: C_24  and  C_25
REMARK                            x       y       z     vdW  Elec       q    Type
REMARK                         _______ _______ _______ _____ _____    ______ ____
ROOT
ATOM      1  C   UNL     1       7.058  -5.610  27.044  0.00  0.00    +0.216 A 
ATOM      2  C   UNL     1       8.017  -4.715  26.623  0.00  0.00    +0.081 A 
ATOM      3  C   UNL     1       7.960  -4.289  25.294  0.00  0.00    +0.051 A 
ATOM      4  C   UNL     1       6.921  -4.752  24.430  0.00  0.00    +0.013 A 
ATOM      5  C   UNL     1       5.990  -5.643  24.996  0.00  0.00    +0.076 A 
ATOM      6  C   UNL     1       4.955  -6.148  24.218  0.00  0.00    +0.028 A 
ATOM      7  C   UNL     1       4.809  -5.812  22.874  0.00  0.00    +0.002 A 
ATOM      8  C   UNL     1       5.707  -4.931  22.294  0.00  0.00    +0.001 A 
ATOM      9  C   UNL     1       6.744  -4.398  23.064  0.00  0.00    +0.011 A 
ATOM     10  N   UNL     1       6.053  -6.056  26.267  0.00  0.00    -0.213 NA
ENDROOT
BRANCH   3  11
ATOM     11  C   UNL     1       9.067  -3.436  24.770  0.00  0.00    +0.245 C 
ATOM     12  N   UNL     1       8.868  -2.067  24.734  0.00  0.00    -0.310 N 
ATOM     13  H   UNL     1       7.975  -1.653  24.974  0.00  0.00    +0.149 HD
ATOM     14  O   UNL     1      10.114  -3.948  24.386  0.00  0.00    -0.270 OA
BRANCH  12  15
ATOM     15  C   UNL     1       9.870  -1.227  24.098  0.00  0.00    +0.120 C 
BRANCH  15  16
ATOM     16  C   UNL     1       9.482  -0.697  22.705  0.00  0.00    +0.103 C 
BRANCH  16  17
ATOM     17  N   UNL     1       9.873   0.695  22.378  0.00  0.00    -0.301 NA
BRANCH  17  18
ATOM     18  C   UNL     1      10.429   1.333  23.587  0.00  0.00    +0.081 C 
ATOM     19  C   UNL     1      10.627   2.842  23.479  0.00  0.00    +0.020 C 
ENDBRANCH  17  18
BRANCH  17  20
ATOM     20  C   UNL     1       8.788   1.469  21.748  0.00  0.00    +0.081 C 
ATOM     21  C   UNL     1       7.384   1.274  22.319  0.00  0.00    +0.020 C 
ENDBRANCH  17  20
ENDBRANCH  16  17
ENDBRANCH  15  16
ENDBRANCH  12  15
ENDBRANCH   3  11
BRANCH   1  22
ATOM     22  O   UNL     1       7.144  -6.072  28.346  0.00  0.00    -0.476 OA
BRANCH  22  23
ATOM     23  C   UNL     1       5.851  -6.418  28.863  0.00  0.00    +0.231 C 
BRANCH  23  24
ATOM     24  C   UNL     1       5.333  -5.282  29.741  0.00  0.00    +0.041 C 
BRANCH  24  26
ATOM     25  C   UNL     1       4.439  -3.407  28.303  0.00  0.00    +0.004 C 
ATOM     26  C   UNL     1       4.092  -4.637  29.122  0.00  0.00    -0.000 C 
ENDBRANCH  24  26
ENDBRANCH  23  24
ENDBRANCH  22  23
ENDBRANCH   1  22
TORSDOF 10
ENDMDL
MODEL 2
REMARK VINA RESULT:      -5.6      1.673      7.271
REMARK  Name = 
REMARK  13 active torsions:
REMARK  status: ('A' for Active; 'I' for Inactive)
REMARK    1  A    between atoms: C_1  and  C_2
REMARK    2  A    between atoms: C_2  and  C_3
REMARK    3  A    between atoms: C_3  and  C_4
REMARK    4  A    between atoms: C_4  and  O_5
REMARK    5  A    between atoms: O_5  and  C_6
REMARK    6  A    between atoms: C_14  and  C_16
REMARK    7  A    between atoms: N_18  and  C_19
REMARK    8  A    between atoms: C_19  and  C_20
REMARK    9  A    between atoms: C_20  and  N_21
REMARK   10  A    between atoms: N_21  and  C_22
REMARK   11  A    between atoms: N_21  and  C_24
REMARK   12  A    between atoms: C_22  and  C_23
REMARK   13  A    between atoms: C_24  and  C_25
REMARK                            x       y       z     vdW  Elec       q    Type
REMARK                         _______ _______ _______ _____ _____    ______ ____
ROOT
ATOM      1  C   UNL     1       9.025  -3.070  24.167  0.00  0.00    +0.216 A 
ATOM      2  C   UNL     1       8.547  -3.399  25.416  0.00  0.00    +0.081 A 
ATOM      3  C   UNL     1       7.450  -4.263  25.478  0.00  0.00    +0.051 A 
ATOM      4  C   UNL     1       6.882  -4.797  24.282  0.00  0.00    +0.013 A 
ATOM      5  C   UNL     1       7.485  -4.401  23.073  0.00  0.00    +0.076 A 
ATOM      6  C   UNL     1       6.984  -4.869  21.865  0.00  0.00    +0.028 A 
ATOM      7  C   UNL     1       5.881  -5.718  21.801  0.00  0.00    +0.002 A 
ATOM      8  C   UNL     1       5.274  -6.130  22.975  0.00  0.00    +0.001 A 
ATOM      9  C   UNL     1       5.773  -5.685  24.202  0.00  0.00    +0.011 A 
ATOM     10  N   UNL     1       8.529  -3.566  23.018  0.00  0.00    -0.213 NA
ENDROOT
BRANCH   3  11
ATOM     11  C   UNL     1       6.821  -4.520  26.807  0.00  0.00    +0.245 C 
ATOM     12  N   UNL     1       7.052  -5.747  27.406  0.00  0.00    -0.310 N 
ATOM     13  H   UNL     1       7.561  -6.483  26.931  0.00  0.00    +0.149 HD
ATOM     14  O   UNL     1       6.121  -3.664  27.337  0.00  0.00    -0.270 OA
BRANCH  12  15
ATOM     15  C   UNL     1       6.338  -6.079  28.628  0.00  0.00    +0.120 C 
BRANCH  15  16
ATOM     16  C   UNL     1       5.072  -6.933  28.427  0.00  0.00    +0.103 C 
BRANCH  16  17
ATOM     17  N   UNL     1       3.765  -6.252  28.585  0.00  0.00    -0.301 NA
BRANCH  17  18
ATOM     18  C   UNL     1       3.288  -5.818  27.256  0.00  0.00    +0.081 C 
ATOM     19  C   UNL     1       2.957  -6.954  26.294  0.00  0.00    +0.020 C 
ENDBRANCH  17  18
BRANCH  17  20
ATOM     20  C   UNL     1       3.792  -5.168  29.584  0.00  0.00    +0.081 C 
ATOM     21  C   UNL     1       3.079  -3.870  29.208  0.00  0.00    +0.020 C 
ENDBRANCH  17  20
ENDBRANCH  16  17
ENDBRANCH  15  16
ENDBRANCH  12  15
ENDBRANCH   3  11
BRANCH   1  22
ATOM     22  O   UNL     1      10.078  -2.175  24.102  0.00  0.00    -0.476 OA
BRANCH  22  23
ATOM     23  C   UNL     1      10.301  -1.728  22.757  0.00  0.00    +0.231 C 
BRANCH  23  24
ATOM     24  C   UNL     1      10.113  -0.214  22.686  0.00  0.00    +0.041 C 
BRANCH  24  26
ATOM     25  C   UNL     1       8.739   1.582  21.557  0.00  0.00    +0.004 C 
ATOM     26  C   UNL     1       9.306   0.177  21.447  0.00  0.00    -0.000 C 
ENDBRANCH  24  26
ENDBRANCH  23  24
ENDBRANCH  22  23
ENDBRANCH   1  22
TORSDOF 10
ENDMDL
MODEL 3
REMARK VINA RESULT:      -5.6      2.670      4.484
REMARK  Name = 
REMARK  13 active torsions:
REMARK  status: ('A' for Active; 'I' for Inactive)
REMARK    1  A    between atoms: C_1  and  C_2
REMARK    2  A    between atoms: C_2  and  C_3
REMARK    3  A    between atoms: C_3  and  C_4
REMARK    4  A    between atoms: C_4  and  O_5
REMARK    5  A    between atoms: O_5  and  C_6
REMARK    6  A    between atoms: C_14  and  C_16
REMARK    7  A    between atoms: N_18  and  C_19
REMARK    8  A    between atoms: C_19  and  C_20
REMARK    9  A    between atoms: C_20  and  N_21
REMARK   10  A    between atoms: N_21  and  C_22
REMARK   11  A    between atoms: N_21  and  C_24
REMARK   12  A    between atoms: C_22  and  C_23
REMARK   13  A    between atoms: C_24  and  C_25
REMARK                            x       y       z     vdW  Elec       q    Type
REMARK                         _______ _______ _______ _____ _____    ______ ____
ROOT
ATOM      1  C   UNL     1       4.828  -4.435  23.346  0.00  0.00    +0.216 A 
ATOM      2  C   UNL     1       5.327  -3.214  22.946  0.00  0.00    +0.081 A 
ATOM      3  C   UNL     1       6.432  -2.713  23.639  0.00  0.00    +0.051 A 
ATOM      4  C   UNL     1       7.026  -3.468  24.696  0.00  0.00    +0.013 A 
ATOM      5  C   UNL     1       6.434  -4.712  24.984  0.00  0.00    +0.076 A 
ATOM      6  C   UNL     1       6.946  -5.501  26.007  0.00  0.00    +0.028 A 
ATOM      7  C   UNL     1       8.032  -5.096  26.780  0.00  0.00    +0.002 A 
ATOM      8  C   UNL     1       8.638  -3.880  26.513  0.00  0.00    +0.001 A 
ATOM      9  C   UNL     1       8.150  -3.080  25.477  0.00  0.00    +0.011 A 
ATOM     10  N   UNL     1       5.370  -5.184  24.325  0.00  0.00    -0.213 NA
ENDROOT
BRANCH   3  11
ATOM     11  C   UNL     1       6.902  -1.332  23.327  0.00  0.00    +0.245 C 
ATOM     12  N   UNL     1       6.253  -0.273  23.939  0.00  0.00    -0.310 N 
ATOM     13  H   UNL     1       5.433  -0.414  24.517  0.00  0.00    +0.149 HD
ATOM     14  O   UNL     1       7.833  -1.156  22.548  0.00  0.00    -0.270 OA
BRANCH  12  15
ATOM     15  C   UNL     1       6.594   1.084  23.545  0.00  0.00    +0.120 C 
BRANCH  15  16
ATOM     16  C   UNL     1       7.550   1.816  24.505  0.00  0.00    +0.103 C 
BRANCH  16  17
ATOM     17  N   UNL     1       8.831   2.305  23.941  0.00  0.00    -0.301 NA
BRANCH  17  18
ATOM     18  C   UNL     1       8.739   2.300  22.467  0.00  0.00    +0.081 C 
ATOM     19  C   UNL     1       9.890   1.595  21.758  0.00  0.00    +0.020 C 
ENDBRANCH  17  18
BRANCH  17  20
ATOM     20  C   UNL     1      10.007   1.583  24.460  0.00  0.00    +0.081 C 
ATOM     21  C   UNL     1       9.739   0.259  25.176  0.00  0.00    +0.020 C 
ENDBRANCH  17  20
ENDBRANCH  16  17
ENDBRANCH  15  16
ENDBRANCH  12  15
ENDBRANCH   3  11
BRANCH   1  22
ATOM     22  O   UNL     1       3.703  -4.909  22.695  0.00  0.00    -0.476 OA
BRANCH  22  23
ATOM     23  C   UNL     1       3.358  -6.228  23.141  0.00  0.00    +0.231 C 
BRANCH  23  24
ATOM     24  C   UNL     1       1.838  -6.371  23.179  0.00  0.00    +0.041 C 
BRANCH  24  26
ATOM     25  C   UNL     1       0.962  -8.520  22.179  0.00  0.00    +0.004 C 
ATOM     26  C   UNL     1       1.434  -7.822  23.443  0.00  0.00    -0.000 C 
ENDBRANCH  24  26
ENDBRANCH  23  24
ENDBRANCH  22  23
ENDBRANCH   1  22
TORSDOF 10
ENDMDL
MODEL 4
REMARK VINA RESULT:      -5.5      3.268      8.843
REMARK  Name = 
REMARK  13 active torsions:
REMARK  status: ('A' for Active; 'I' for Inactive)
REMARK    1  A    between atoms: C_1  and  C_2
REMARK    2  A    between atoms: C_2  and  C_3
REMARK    3  A    between atoms: C_3  and  C_4
REMARK    4  A    between atoms: C_4  and  O_5
REMARK    5  A    between atoms: O_5  and  C_6
REMARK    6  A    between atoms: C_14  and  C_16
REMARK    7  A    between atoms: N_18  and  C_19
REMARK    8  A    between atoms: C_19  and  C_20
REMARK    9  A    between atoms: C_20  and  N_21
REMARK   10  A    between atoms: N_21  and  C_22
REMARK   11  A    between atoms: N_21  and  C_24
REMARK   12  A    between atoms: C_22  and  C_23
REMARK   13  A    between atoms: C_24  and  C_25
REMARK                            x       y       z     vdW  Elec       q    Type
REMARK                         _______ _______ _______ _____ _____    ______ ____
ROOT
ATOM      1  C   UNL     1       9.876   3.296  23.803  0.00  0.00    +0.216 A 
ATOM      2  C   UNL     1       9.931   1.975  23.416  0.00  0.00    +0.081 A 
ATOM      3  C   UNL     1       9.066   1.082  24.054  0.00  0.00    +0.051 A 
ATOM      4  C   UNL     1       8.148   1.547  25.044  0.00  0.00    +0.013 A 
ATOM      5  C   UNL     1       8.178   2.926  25.325  0.00  0.00    +0.076 A 
ATOM      6  C   UNL     1       7.323   3.455  26.284  0.00  0.00    +0.028 A 
ATOM      7  C   UNL     1       6.433   2.658  27.001  0.00  0.00    +0.002 A 
ATOM      8  C   UNL     1       6.377   1.299  26.739  0.00  0.00    +0.001 A 
ATOM      9  C   UNL     1       7.216   0.750  25.766  0.00  0.00    +0.011 A 
ATOM     10  N   UNL     1       9.013   3.776  24.718  0.00  0.00    -0.213 NA
ENDROOT
BRANCH   3  11
ATOM     11  C   UNL     1       9.204  -0.375  23.762  0.00  0.00    +0.245 C 
ATOM     12  N   UNL     1       8.534  -0.881  22.661  0.00  0.00    -0.310 N 
ATOM     13  H   UNL     1       7.903  -0.308  22.114  0.00  0.00    +0.149 HD
ATOM     14  O   UNL     1       9.891  -1.090  24.484  0.00  0.00    -0.270 OA
BRANCH  12  15
ATOM     15  C   UNL     1       8.534  -2.317  22.435  0.00  0.00    +0.120 C 
BRANCH  15  16
ATOM     16  C   UNL     1       7.165  -3.001  22.612  0.00  0.00    +0.103 C 
BRANCH  16  17
ATOM     17  N   UNL     1       7.083  -4.103  23.600  0.00  0.00    -0.301 NA
BRANCH  17  18
ATOM     18  C   UNL     1       8.437  -4.385  24.118  0.00  0.00    +0.081 C 
ATOM     19  C   UNL     1       8.469  -5.137  25.444  0.00  0.00    +0.020 C 
ENDBRANCH  17  18
BRANCH  17  20
ATOM     20  C   UNL     1       6.390  -5.297  23.081  0.00  0.00    +0.081 C 
ATOM     21  C   UNL     1       7.071  -6.042  21.934  0.00  0.00    +0.020 C 
ENDBRANCH  17  20
ENDBRANCH  16  17
ENDBRANCH  15  16
ENDBRANCH  12  15
ENDBRANCH   3  11
BRANCH   1  22
ATOM     22  O   UNL     1      10.767   4.172  23.208  0.00  0.00    -0.476 OA
BRANCH  22  23
ATOM     23  C   UNL     1      10.739   5.457  23.845  0.00  0.00    +0.231 C 
BRANCH  23  24
ATOM     24  C   UNL     1      12.165   5.982  23.996  0.00  0.00    +0.041 C 
BRANCH  24  26
ATOM     25  C   UNL     1      13.543   5.828  21.883  0.00  0.00    +0.004 C 
ATOM     26  C   UNL     1      13.144   5.140  23.176  0.00  0.00    -0.000 C 
ENDBRANCH  24  26
ENDBRANCH  23  24
ENDBRANCH  22  23
ENDBRANCH   1  22
TORSDOF 10
ENDMDL
MODEL 5
REMARK VINA RESULT:      -5.5      2.903      8.667
REMARK  Name = 
REMARK  13 active torsions:
REMARK  status: ('A' for Active; 'I' for Inactive)
REMARK    1  A    between atoms: C_1  and  C_2
REMARK    2  A    between atoms: C_2  and  C_3
REMARK    3  A    between atoms: C_3  and  C_4
REMARK    4  A    between atoms: C_4  and  O_5
REMARK    5  A    between atoms: O_5  and  C_6
REMARK    6  A    between atoms: C_14  and  C_16
REMARK    7  A    between atoms: N_18  and  C_19
REMARK    8  A    between atoms: C_19  and  C_20
REMARK    9  A    between atoms: C_20  and  N_21
REMARK   10  A    between atoms: N_21  and  C_22
REMARK   11  A    between atoms: N_21  and  C_24
REMARK   12  A    between atoms: C_22  and  C_23
REMARK   13  A    between atoms: C_24  and  C_25
REMARK                            x       y       z     vdW  Elec       q    Type
REMARK                         _______ _______ _______ _____ _____    ______ ____
ROOT
ATOM      1  C   UNL     1       9.928   3.059  23.750  0.00  0.00    +0.216 A 
ATOM      2  C   UNL     1      10.145   1.727  24.027  0.00  0.00    +0.081 A 
ATOM      3  C   UNL     1       9.033   0.951  24.363  0.00  0.00    +0.051 A 
ATOM      4  C   UNL     1       7.727   1.528  24.383  0.00  0.00    +0.013 A 
ATOM      5  C   UNL     1       7.643   2.894  24.053  0.00  0.00    +0.076 A 
ATOM      6  C   UNL     1       6.409   3.533  24.059  0.00  0.00    +0.028 A 
ATOM      7  C   UNL     1       5.234   2.866  24.400  0.00  0.00    +0.002 A 
ATOM      8  C   UNL     1       5.287   1.521  24.721  0.00  0.00    +0.001 A 
ATOM      9  C   UNL     1       6.515   0.855  24.702  0.00  0.00    +0.011 A 
ATOM     10  N   UNL     1       8.712   3.636  23.741  0.00  0.00    -0.213 NA
ENDROOT
BRANCH   3  11
ATOM     11  C   UNL     1       9.255  -0.456  24.810  0.00  0.00    +0.245 C 
ATOM     12  N   UNL     1       9.410  -1.428  23.835  0.00  0.00    -0.310 N 
ATOM     13  H   UNL     1       9.297  -1.217  22.851  0.00  0.00    +0.149 HD
ATOM     14  O   UNL     1       9.293  -0.728  26.005  0.00  0.00    -0.270 OA
BRANCH  12  15
ATOM     15  C   UNL     1       9.484  -2.823  24.238  0.00  0.00    +0.120 C 
BRANCH  15  16
ATOM     16  C   UNL     1       8.294  -3.690  23.789  0.00  0.00    +0.103 C 
BRANCH  16  17
ATOM     17  N   UNL     1       7.184  -3.868  24.756  0.00  0.00    -0.301 NA
BRANCH  17  18
ATOM     18  C   UNL     1       6.121  -2.889  24.451  0.00  0.00    +0.081 C 
ATOM     19  C   UNL     1       6.014  -2.501  22.980  0.00  0.00    +0.020 C 
ENDBRANCH  17  18
BRANCH  17  20
ATOM     20  C   UNL     1       7.629  -3.836  26.162  0.00  0.00    +0.081 C 
ATOM     21  C   UNL     1       7.842  -5.186  26.846  0.00  0.00    +0.020 C 
ENDBRANCH  17  20
ENDBRANCH  16  17
ENDBRANCH  15  16
ENDBRANCH  12  15
ENDBRANCH   3  11
BRANCH   1  22
ATOM     22  O   UNL     1      11.035   3.840  23.467  0.00  0.00    -0.476 OA
BRANCH  22  23
ATOM     23  C   UNL     1      10.819   5.207  23.845  0.00  0.00    +0.231 C 
BRANCH  23  24
ATOM     24  C   UNL     1      12.160   5.937  23.900  0.00  0.00    +0.041 C 
BRANCH  24  26
ATOM     25  C   UNL     1      13.558   5.823  21.799  0.00  0.00    +0.004 C 
ATOM     26  C   UNL     1      13.231   5.166  23.128  0.00  0.00    -0.000 C 
ENDBRANCH  24  26
ENDBRANCH  23  24
ENDBRANCH  22  23
ENDBRANCH   1  22
TORSDOF 10
ENDMDL
MODEL 6
REMARK VINA RESULT:      -5.4      2.348      6.224
REMARK  Name = 
REMARK  13 active torsions:
REMARK  status: ('A' for Active; 'I' for Inactive)
REMARK    1  A    between atoms: C_1  and  C_2
REMARK    2  A    between atoms: C_2  and  C_3
REMARK    3  A    between atoms: C_3  and  C_4
REMARK    4  A    between atoms: C_4  and  O_5
REMARK    5  A    between atoms: O_5  and  C_6
REMARK    6  A    between atoms: C_14  and  C_16
REMARK    7  A    between atoms: N_18  and  C_19
REMARK    8  A    between atoms: C_19  and  C_20
REMARK    9  A    between atoms: C_20  and  N_21
REMARK   10  A    between atoms: N_21  and  C_22
REMARK   11  A    between atoms: N_21  and  C_24
REMARK   12  A    between atoms: C_22  and  C_23
REMARK   13  A    between atoms: C_24  and  C_25
REMARK                            x       y       z     vdW  Elec       q    Type
REMARK                         _______ _______ _______ _____ _____    ______ ____
ROOT
ATOM      1  C   UNL     1       8.320  -0.290  26.302  0.00  0.00    +0.216 A 
ATOM      2  C   UNL     1       8.382  -1.616  25.933  0.00  0.00    +0.081 A 
ATOM      3  C   UNL     1       8.736  -1.900  24.612  0.00  0.00    +0.051 A 
ATOM      4  C   UNL     1       9.050  -0.843  23.704  0.00  0.00    +0.013 A 
ATOM      5  C   UNL     1       8.975   0.464  24.218  0.00  0.00    +0.076 A 
ATOM      6  C   UNL     1       9.255   1.548  23.394  0.00  0.00    +0.028 A 
ATOM      7  C   UNL     1       9.598   1.389  22.054  0.00  0.00    +0.002 A 
ATOM      8  C   UNL     1       9.687   0.113  21.524  0.00  0.00    +0.001 A 
ATOM      9  C   UNL     1       9.428  -0.992  22.340  0.00  0.00    +0.011 A 
ATOM     10  N   UNL     1       8.626   0.733  25.481  0.00  0.00    -0.213 NA
ENDROOT
BRANCH   3  11
ATOM     11  C   UNL     1       8.669  -3.316  24.145  0.00  0.00    +0.245 C 
ATOM     12  N   UNL     1       7.520  -3.729  23.491  0.00  0.00    -0.310 N 
ATOM     13  H   UNL     1       6.714  -3.122  23.400  0.00  0.00    +0.149 HD
ATOM     14  O   UNL     1       9.608  -4.080  24.344  0.00  0.00    -0.270 OA
BRANCH  12  15
ATOM     15  C   UNL     1       7.368  -5.134  23.154  0.00  0.00    +0.120 C 
BRANCH  15  16
ATOM     16  C   UNL     1       6.052  -5.777  23.631  0.00  0.00    +0.103 C 
BRANCH  16  17
ATOM     17  N   UNL     1       5.406  -5.185  24.827  0.00  0.00    -0.301 NA
BRANCH  17  18
ATOM     18  C   UNL     1       5.938  -5.846  26.035  0.00  0.00    +0.081 C 
ATOM     19  C   UNL     1       6.836  -4.968  26.901  0.00  0.00    +0.020 C 
ENDBRANCH  17  18
BRANCH  17  20
ATOM     20  C   UNL     1       3.934  -5.189  24.753  0.00  0.00    +0.081 C 
ATOM     21  C   UNL     1       3.317  -5.276  23.358  0.00  0.00    +0.020 C 
ENDBRANCH  17  20
ENDBRANCH  16  17
ENDBRANCH  15  16
ENDBRANCH  12  15
ENDBRANCH   3  11
BRANCH   1  22
ATOM     22  O   UNL     1       7.920  -0.005  27.595  0.00  0.00    -0.476 OA
BRANCH  22  23
ATOM     23  C   UNL     1       6.707   0.760  27.609  0.00  0.00    +0.231 C 
BRANCH  23  24
ATOM     24  C   UNL     1       5.519  -0.173  27.839  0.00  0.00    +0.041 C 
BRANCH  24  26
ATOM     25  C   UNL     1       4.724  -1.762  26.042  0.00  0.00    +0.004 C 
ATOM     26  C   UNL     1       4.698  -0.335  26.559  0.00  0.00    -0.000 C 
ENDBRANCH  24  26
ENDBRANCH  23  24
ENDBRANCH  22  23
ENDBRANCH   1  22
TORSDOF 10
ENDMDL
MODEL 7
REMARK VINA RESULT:      -5.3      1.702      7.419
REMARK  Name = 
REMARK  13 active torsions:
REMARK  status: ('A' for Active; 'I' for Inactive)
REMARK    1  A    between atoms: C_1  and  C_2
REMARK    2  A    between atoms: C_2  and  C_3
REMARK    3  A    between atoms: C_3  and  C_4
REMARK    4  A    between atoms: C_4  and  O_5
REMARK    5  A    between atoms: O_5  and  C_6
REMARK    6  A    between atoms: C_14  and  C_16
REMARK    7  A    between atoms: N_18  and  C_19
REMARK    8  A    between atoms: C_19  and  C_20
REMARK    9  A    between atoms: C_20  and  N_21
REMARK   10  A    between atoms: N_21  and  C_22
REMARK   11  A    between atoms: N_21  and  C_24
REMARK   12  A    between atoms: C_22  and  C_23
REMARK   13  A    between atoms: C_24  and  C_25
REMARK                            x       y       z     vdW  Elec       q    Type
REMARK                         _______ _______ _______ _____ _____    ______ ____
ROOT
ATOM      1  C   UNL     1       9.014  -3.439  24.291  0.00  0.00    +0.216 A 
ATOM      2  C   UNL     1       8.579  -3.784  25.552  0.00  0.00    +0.081 A 
ATOM      3  C   UNL     1       7.442  -4.591  25.642  0.00  0.00    +0.051 A 
ATOM      4  C   UNL     1       6.789  -5.055  24.460  0.00  0.00    +0.013 A 
ATOM      5  C   UNL     1       7.353  -4.652  23.235  0.00  0.00    +0.076 A 
ATOM      6  C   UNL     1       6.770  -5.053  22.039  0.00  0.00    +0.028 A 
ATOM      7  C   UNL     1       5.621  -5.840  22.005  0.00  0.00    +0.002 A 
ATOM      8  C   UNL     1       5.050  -6.258  23.195  0.00  0.00    +0.001 A 
ATOM      9  C   UNL     1       5.631  -5.881  24.408  0.00  0.00    +0.011 A 
ATOM     10  N   UNL     1       8.437  -3.871  23.153  0.00  0.00    -0.213 NA
ENDROOT
BRANCH   3  11
ATOM     11  C   UNL     1       6.864  -4.859  26.992  0.00  0.00    +0.245 C 
ATOM     12  N   UNL     1       5.791  -4.086  27.402  0.00  0.00    -0.310 N 
ATOM     13  H   UNL     1       5.454  -3.308  26.848  0.00  0.00    +0.149 HD
ATOM     14  O   UNL     1       7.337  -5.737  27.705  0.00  0.00    -0.270 OA
BRANCH  12  15
ATOM     15  C   UNL     1       5.301  -4.228  28.763  0.00  0.00    +0.120 C 
BRANCH  15  16
ATOM     16  C   UNL     1       3.863  -4.766  28.881  0.00  0.00    +0.103 C 
BRANCH  16  17
ATOM     17  N   UNL     1       3.575  -6.070  28.236  0.00  0.00    -0.301 NA
BRANCH  17  18
ATOM     18  C   UNL     1       2.309  -5.962  27.483  0.00  0.00    +0.081 C 
ATOM     19  C   UNL     1       2.417  -5.216  26.157  0.00  0.00    +0.020 C 
ENDBRANCH  17  18
BRANCH  17  20
ATOM     20  C   UNL     1       3.604  -7.203  29.179  0.00  0.00    +0.081 C 
ATOM     21  C   UNL     1       2.489  -7.257  30.223  0.00  0.00    +0.020 C 
ENDBRANCH  17  20
ENDBRANCH  16  17
ENDBRANCH  15  16
ENDBRANCH  12  15
ENDBRANCH   3  11
BRANCH   1  22
ATOM     22  O   UNL     1      10.109  -2.599  24.201  0.00  0.00    -0.476 OA
BRANCH  22  23
ATOM     23  C   UNL     1      10.154  -1.935  22.930  0.00  0.00    +0.231 C 
BRANCH  23  24
ATOM     24  C   UNL     1      10.287  -0.429  23.147  0.00  0.00    +0.041 C 
BRANCH  24  26
ATOM     25  C   UNL     1      10.047   1.826  22.033  0.00  0.00    +0.004 C 
ATOM     26  C   UNL     1       9.723   0.345  21.955  0.00  0.00    -0.000 C 
ENDBRANCH  24  26
ENDBRANCH  23  24
ENDBRANCH  22  23
ENDBRANCH   1  22
TORSDOF 10
ENDMDL
MODEL 8
REMARK VINA RESULT:      -5.3      3.182      8.472
REMARK  Name = 
REMARK  13 active torsions:
REMARK  status: ('A' for Active; 'I' for Inactive)
REMARK    1  A    between atoms: C_1  and  C_2
REMARK    2  A    between atoms: C_2  and  C_3
REMARK    3  A    between atoms: C_3  and  C_4
REMARK    4  A    between atoms: C_4  and  O_5
REMARK    5  A    between atoms: O_5  and  C_6
REMARK    6  A    between atoms: C_14  and  C_16
REMARK    7  A    between atoms: N_18  and  C_19
REMARK    8  A    between atoms: C_19  and  C_20
REMARK    9  A    between atoms: C_20  and  N_21
REMARK   10  A    between atoms: N_21  and  C_22
REMARK   11  A    between atoms: N_21  and  C_24
REMARK   12  A    between atoms: C_22  and  C_23
REMARK   13  A    between atoms: C_24  and  C_25
REMARK                            x       y       z     vdW  Elec       q    Type
REMARK                         _______ _______ _______ _____ _____    ______ ____
ROOT
ATOM      1  C   UNL     1       7.043   2.832  22.753  0.00  0.00    +0.216 A 
ATOM      2  C   UNL     1       6.253   1.777  23.155  0.00  0.00    +0.081 A 
ATOM      3  C   UNL     1       6.884   0.708  23.795  0.00  0.00    +0.051 A 
ATOM      4  C   UNL     1       8.290   0.742  24.042  0.00  0.00    +0.013 A 
ATOM      5  C   UNL     1       8.974   1.891  23.605  0.00  0.00    +0.076 A 
ATOM      6  C   UNL     1      10.346   1.996  23.799  0.00  0.00    +0.028 A 
ATOM      7  C   UNL     1      11.086   0.984  24.406  0.00  0.00    +0.002 A 
ATOM      8  C   UNL     1      10.437  -0.155  24.853  0.00  0.00    +0.001 A 
ATOM      9  C   UNL     1       9.055  -0.272  24.684  0.00  0.00    +0.011 A 
ATOM     10  N   UNL     1       8.367   2.909  22.984  0.00  0.00    -0.213 NA
ENDROOT
BRANCH   3  11
ATOM     11  C   UNL     1       6.080  -0.510  24.109  0.00  0.00    +0.245 C 
ATOM     12  N   UNL     1       6.245  -1.621  23.300  0.00  0.00    -0.310 N 
ATOM     13  H   UNL     1       6.828  -1.594  22.472  0.00  0.00    +0.149 HD
ATOM     14  O   UNL     1       5.300  -0.510  25.055  0.00  0.00    -0.270 OA
BRANCH  12  15
ATOM     15  C   UNL     1       5.374  -2.769  23.494  0.00  0.00    +0.120 C 
BRANCH  15  16
ATOM     16  C   UNL     1       5.954  -3.877  24.392  0.00  0.00    +0.103 C 
BRANCH  16  17
ATOM     17  N   UNL     1       6.341  -5.148  23.733  0.00  0.00    -0.301 NA
BRANCH  17  18
ATOM     18  C   UNL     1       7.801  -5.147  23.511  0.00  0.00    +0.081 C 
ATOM     19  C   UNL     1       8.585  -4.214  24.428  0.00  0.00    +0.020 C 
ENDBRANCH  17  18
BRANCH  17  20
ATOM     20  C   UNL     1       5.560  -5.431  22.514  0.00  0.00    +0.081 C 
ATOM     21  C   UNL     1       6.354  -5.714  21.240  0.00  0.00    +0.020 C 
ENDBRANCH  17  20
ENDBRANCH  16  17
ENDBRANCH  15  16
ENDBRANCH  12  15
ENDBRANCH   3  11
BRANCH   1  22
ATOM     22  O   UNL     1       6.427   3.868  22.074  0.00  0.00    -0.476 OA
BRANCH  22  23
ATOM     23  C   UNL     1       7.196   5.076  22.157  0.00  0.00    +0.231 C 
BRANCH  23  24
ATOM     24  C   UNL     1       6.672   5.934  23.306  0.00  0.00    +0.041 C 
BRANCH  24  26
ATOM     25  C   UNL     1       9.140   6.459  23.449  0.00  0.00    +0.004 C 
ATOM     26  C   UNL     1       7.820   6.408  24.198  0.00  0.00    -0.000 C 
ENDBRANCH  24  26
ENDBRANCH  23  24
ENDBRANCH  22  23
ENDBRANCH   1  22
TORSDOF 10
ENDMDL
MODEL 9
REMARK VINA RESULT:      -5.2      2.938      7.980
REMARK  Name = 
REMARK  13 active torsions:
REMARK  status: ('A' for Active; 'I' for Inactive)
REMARK    1  A    between atoms: C_1  and  C_2
REMARK    2  A    between atoms: C_2  and  C_3
REMARK    3  A    between atoms: C_3  and  C_4
REMARK    4  A    between atoms: C_4  and  O_5
REMARK    5  A    between atoms: O_5  and  C_6
REMARK    6  A    between atoms: C_14  and  C_16
REMARK    7  A    between atoms: N_18  and  C_19
REMARK    8  A    between atoms: C_19  and  C_20
REMARK    9  A    between atoms: C_20  and  N_21
REMARK   10  A    between atoms: N_21  and  C_22
REMARK   11  A    between atoms: N_21  and  C_24
REMARK   12  A    between atoms: C_22  and  C_23
REMARK   13  A    between atoms: C_24  and  C_25
REMARK                            x       y       z     vdW  Elec       q    Type
REMARK                         _______ _______ _______ _____ _____    ______ ____
ROOT
ATOM      1  C   UNL     1       8.304   2.269  24.940  0.00  0.00    +0.216 A 
ATOM      2  C   UNL     1       7.455   1.369  25.546  0.00  0.00    +0.081 A 
ATOM      3  C   UNL     1       7.359   0.095  24.980  0.00  0.00    +0.051 A 
ATOM      4  C   UNL     1       8.142  -0.249  23.836  0.00  0.00    +0.013 A 
ATOM      5  C   UNL     1       8.989   0.756  23.334  0.00  0.00    +0.076 A 
ATOM      6  C   UNL     1       9.776   0.503  22.217  0.00  0.00    +0.028 A 
ATOM      7  C   UNL     1       9.747  -0.723  21.555  0.00  0.00    +0.002 A 
ATOM      8  C   UNL     1       8.929  -1.732  22.033  0.00  0.00    +0.001 A 
ATOM      9  C   UNL     1       8.143  -1.504  23.166  0.00  0.00    +0.011 A 
ATOM     10  N   UNL     1       9.072   1.977  23.873  0.00  0.00    -0.213 NA
ENDROOT
BRANCH   3  11
ATOM     11  C   UNL     1       6.341  -0.851  25.524  0.00  0.00    +0.245 C 
ATOM     12  N   UNL     1       6.728  -1.699  26.548  0.00  0.00    -0.310 N 
ATOM     13  H   UNL     1       7.688  -1.742  26.869  0.00  0.00    +0.149 HD
ATOM     14  O   UNL     1       5.203  -0.867  25.067  0.00  0.00    -0.270 OA
BRANCH  12  15
ATOM     15  C   UNL     1       5.802  -2.726  26.999  0.00  0.00    +0.120 C 
BRANCH  15  16
ATOM     16  C   UNL     1       6.289  -4.172  26.791  0.00  0.00    +0.103 C 
BRANCH  16  17
ATOM     17  N   UNL     1       7.029  -4.464  25.540  0.00  0.00    -0.301 NA
BRANCH  17  18
ATOM     18  C   UNL     1       6.119  -5.137  24.591  0.00  0.00    +0.081 C 
ATOM     19  C   UNL     1       6.428  -4.881  23.120  0.00  0.00    +0.020 C 
ENDBRANCH  17  18
BRANCH  17  20
ATOM     20  C   UNL     1       8.289  -5.195  25.768  0.00  0.00    +0.081 C 
ATOM     21  C   UNL     1       9.556  -4.580  25.176  0.00  0.00    +0.020 C 
ENDBRANCH  17  20
ENDBRANCH  16  17
ENDBRANCH  15  16
ENDBRANCH  12  15
ENDBRANCH   3  11
BRANCH   1  22
ATOM     22  O   UNL     1       8.363   3.546  25.469  0.00  0.00    -0.476 OA
BRANCH  22  23
ATOM     23  C   UNL     1       8.352   4.540  24.435  0.00  0.00    +0.231 C 
BRANCH  23  24
ATOM     24  C   UNL     1       9.249   5.708  24.842  0.00  0.00    +0.041 C 
BRANCH  24  26
ATOM     25  C   UNL     1      11.458   5.550  23.626  0.00  0.00    +0.004 C 
ATOM     26  C   UNL     1      10.083   6.193  23.656  0.00  0.00    -0.000 C 
ENDBRANCH  24  26
ENDBRANCH  23  24
ENDBRANCH  22  23
ENDBRANCH   1  22
TORSDOF 10
ENDMDL
