MODEL 1
REMARK VINA RESULT:      -8.2      0.000      0.000
REMARK  Name = 
REMARK  5 active torsions:
REMARK  status: ('A' for Active; 'I' for Inactive)
REMARK    1  A    between atoms: C_1  and  C_2
REMARK    2  A    between atoms: C_5  and  N_6
REMARK    3  A    between atoms: C_7  and  C_9
REMARK    4  A    between atoms: C_16  and  N_17
REMARK    5  A    between atoms: C_22  and  C_24
REMARK                            x       y       z     vdW  Elec       q    Type
REMARK                         _______ _______ _______ _____ _____    ______ ____
ROOT
ATOM      1  C   UNL     1       9.378   0.556  21.456  0.00  0.00    +0.045 C 
ATOM      2  C   UNL     1       8.894  -0.454  22.461  0.00  0.00    -0.029 A 
ATOM      3  C   UNL     1       7.629  -0.386  23.090  0.00  0.00    +0.038 A 
ATOM      4  C   UNL     1       7.304  -1.403  24.015  0.00  0.00    +0.047 A 
ATOM      5  C   UNL     1       8.182  -2.455  24.317  0.00  0.00    +0.035 A 
ATOM      6  C   UNL     1       9.411  -2.500  23.669  0.00  0.00    +0.024 A 
ATOM      7  C   UNL     1       9.765  -1.512  22.760  0.00  0.00    +0.007 A 
ENDROOT
BRANCH   3   8
ATOM      8  N   UNL     1       6.742   0.667  22.785  0.00  0.00    -0.283 N 
ATOM      9  H   UNL     1       5.807   0.417  22.504  0.00  0.00    +0.155 HD
ATOM     10  C   UNL     1       6.850   2.059  22.814  0.00  0.00    +0.220 A 
ATOM     11  N   UNL     1       7.984   2.661  23.191  0.00  0.00    -0.214 NA
ATOM     12  C   UNL     1       8.057   4.010  23.208  0.00  0.00    +0.077 A 
ATOM     13  C   UNL     1       6.974   4.784  22.864  0.00  0.00    +0.048 A 
ATOM     14  C   UNL     1       5.845   4.096  22.490  0.00  0.00    +0.116 A 
ATOM     15  N   UNL     1       5.760   2.749  22.454  0.00  0.00    -0.223 NA
BRANCH  12  16
ATOM     16  C   UNL     1       9.386   4.536  23.572  0.00  0.00    +0.019 A 
ATOM     17  C   UNL     1      10.540   3.785  23.321  0.00  0.00    +0.120 A 
ATOM     18  N   UNL     1      11.817   4.210  23.499  0.00  0.00    -0.263 NA
ATOM     19  C   UNL     1      11.965   5.460  23.977  0.00  0.00    +0.111 A 
ATOM     20  C   UNL     1      10.902   6.284  24.307  0.00  0.00    +0.020 A 
ATOM     21  C   UNL     1       9.602   5.814  24.103  0.00  0.00    +0.013 A 
ENDBRANCH  12  16
ENDBRANCH   3   8
BRANCH   5  22
ATOM     22  N   UNL     1       7.769  -3.451  25.244  0.00  0.00    -0.281 N 
ATOM     23  H   UNL     1       8.107  -3.342  26.188  0.00  0.00    +0.155 HD
ATOM     24  C   UNL     1       6.943  -4.518  24.934  0.00  0.00    +0.250 C 
ATOM     25  O   UNL     1       6.575  -4.846  23.813  0.00  0.00    -0.270 OA
BRANCH  24  26
ATOM     26  C   UNL     1       6.449  -5.354  26.049  0.00  0.00    +0.055 A 
ATOM     27  C   UNL     1       7.190  -5.335  27.230  0.00  0.00    +0.123 A 
ATOM     28  N   UNL     1       6.851  -6.016  28.351  0.00  0.00    -0.263 NA
ATOM     29  C   UNL     1       5.714  -6.733  28.296  0.00  0.00    +0.111 A 
ATOM     30  C   UNL     1       4.907  -6.813  27.169  0.00  0.00    +0.020 A 
ATOM     31  C   UNL     1       5.282  -6.115  26.022  0.00  0.00    +0.016 A 
ENDBRANCH  24  26
ENDBRANCH   5  22
TORSDOF 4
ENDMDL
MODEL 2
REMARK VINA RESULT:      -8.1      3.048      9.435
REMARK  Name = 
REMARK  5 active torsions:
REMARK  status: ('A' for Active; 'I' for Inactive)
REMARK    1  A    between atoms: C_1  and  C_2
REMARK    2  A    between atoms: C_5  and  N_6
REMARK    3  A    between atoms: C_7  and  C_9
REMARK    4  A    between atoms: C_16  and  N_17
REMARK    5  A    between atoms: C_22  and  C_24
REMARK                            x       y       z     vdW  Elec       q    Type
REMARK                         _______ _______ _______ _____ _____    ______ ____
ROOT
ATOM      1  C   UNL     1       8.591  -4.017  26.259  0.00  0.00    +0.045 C 
ATOM      2  C   UNL     1       8.608  -2.623  25.694  0.00  0.00    -0.029 A 
ATOM      3  C   UNL     1       8.524  -2.341  24.310  0.00  0.00    +0.038 A 
ATOM      4  C   UNL     1       8.551  -0.984  23.919  0.00  0.00    +0.047 A 
ATOM      5  C   UNL     1       8.654   0.066  24.844  0.00  0.00    +0.035 A 
ATOM      6  C   UNL     1       8.719  -0.248  26.197  0.00  0.00    +0.024 A 
ATOM      7  C   UNL     1       8.703  -1.571  26.615  0.00  0.00    +0.007 A 
ENDROOT
BRANCH   3   8
ATOM      8  N   UNL     1       8.415  -3.393  23.377  0.00  0.00    -0.283 N 
ATOM      9  H   UNL     1       9.249  -3.654  22.875  0.00  0.00    +0.155 HD
ATOM     10  C   UNL     1       7.368  -4.230  22.986  0.00  0.00    +0.220 A 
ATOM     11  N   UNL     1       6.150  -4.121  23.530  0.00  0.00    -0.214 NA
ATOM     12  C   UNL     1       5.158  -4.946  23.128  0.00  0.00    +0.077 A 
ATOM     13  C   UNL     1       5.380  -5.918  22.182  0.00  0.00    +0.048 A 
ATOM     14  C   UNL     1       6.656  -5.971  21.673  0.00  0.00    +0.116 A 
ATOM     15  N   UNL     1       7.654  -5.145  22.051  0.00  0.00    -0.223 NA
BRANCH  12  16
ATOM     16  C   UNL     1       3.852  -4.666  23.755  0.00  0.00    +0.019 A 
ATOM     17  C   UNL     1       3.728  -3.656  24.717  0.00  0.00    +0.120 A 
ATOM     18  N   UNL     1       2.565  -3.228  25.271  0.00  0.00    -0.263 NA
ATOM     19  C   UNL     1       1.446  -3.855  24.862  0.00  0.00    +0.111 A 
ATOM     20  C   UNL     1       1.443  -4.898  23.951  0.00  0.00    +0.020 A 
ATOM     21  C   UNL     1       2.659  -5.307  23.396  0.00  0.00    +0.013 A 
ENDBRANCH  12  16
ENDBRANCH   3   8
BRANCH   5  22
ATOM     22  N   UNL     1       8.652   1.406  24.368  0.00  0.00    -0.281 N 
ATOM     23  H   UNL     1       7.743   1.821  24.226  0.00  0.00    +0.155 HD
ATOM     24  C   UNL     1       9.790   2.150  24.112  0.00  0.00    +0.250 C 
ATOM     25  O   UNL     1      10.942   1.733  24.110  0.00  0.00    -0.270 OA
BRANCH  24  26
ATOM     26  C   UNL     1       9.621   3.588  23.809  0.00  0.00    +0.055 A 
ATOM     27  C   UNL     1       8.317   4.047  23.634  0.00  0.00    +0.123 A 
ATOM     28  N   UNL     1       7.992   5.339  23.388  0.00  0.00    -0.263 NA
ATOM     29  C   UNL     1       9.014   6.213  23.332  0.00  0.00    +0.111 A 
ATOM     30  C   UNL     1      10.344   5.854  23.496  0.00  0.00    +0.020 A 
ATOM     31  C   UNL     1      10.656   4.517  23.735  0.00  0.00    +0.016 A 
ENDBRANCH  24  26
ENDBRANCH   5  22
TORSDOF 4
ENDMDL
MODEL 3
REMARK VINA RESULT:      -7.8      3.088      4.920
REMARK  Name = 
REMARK  5 active torsions:
REMARK  status: ('A' for Active; 'I' for Inactive)
REMARK    1  A    between atoms: C_1  and  C_2
REMARK    2  A    between atoms: C_5  and  N_6
REMARK    3  A    between atoms: C_7  and  C_9
REMARK    4  A    between atoms: C_16  and  N_17
REMARK    5  A    between atoms: C_22  and  C_24
REMARK                            x       y       z     vdW  Elec       q    Type
REMARK                         _______ _______ _______ _____ _____    ______ ____
ROOT
ATOM      1  C   UNL     1      10.767   3.422  23.344  0.00  0.00    +0.045 C 
ATOM      2  C   UNL     1       9.963   2.158  23.210  0.00  0.00    -0.029 A 
ATOM      3  C   UNL     1       8.957   1.772  24.127  0.00  0.00    +0.038 A 
ATOM      4  C   UNL     1       8.281   0.557  23.878  0.00  0.00    +0.047 A 
ATOM      5  C   UNL     1       8.571  -0.256  22.772  0.00  0.00    +0.035 A 
ATOM      6  C   UNL     1       9.556   0.162  21.883  0.00  0.00    +0.024 A 
ATOM      7  C   UNL     1      10.245   1.347  22.102  0.00  0.00    +0.007 A 
ENDROOT
BRANCH   3   8
ATOM      8  N   UNL     1       8.658   2.588  25.237  0.00  0.00    -0.283 N 
ATOM      9  H   UNL     1       9.283   2.542  26.027  0.00  0.00    +0.155 HD
ATOM     10  C   UNL     1       7.659   3.527  25.502  0.00  0.00    +0.220 A 
ATOM     11  N   UNL     1       6.715   3.812  24.598  0.00  0.00    -0.214 NA
ATOM     12  C   UNL     1       5.761   4.725  24.887  0.00  0.00    +0.077 A 
ATOM     13  C   UNL     1       5.754   5.390  26.089  0.00  0.00    +0.048 A 
ATOM     14  C   UNL     1       6.757   5.047  26.965  0.00  0.00    +0.116 A 
ATOM     15  N   UNL     1       7.707   4.126  26.699  0.00  0.00    -0.223 NA
BRANCH  12  16
ATOM     16  C   UNL     1       4.743   4.885  23.831  0.00  0.00    +0.019 A 
ATOM     17  C   UNL     1       4.427   3.818  22.982  0.00  0.00    +0.120 A 
ATOM     18  N   UNL     1       3.431   3.808  22.059  0.00  0.00    -0.263 NA
ATOM     19  C   UNL     1       2.707   4.938  21.954  0.00  0.00    +0.111 A 
ATOM     20  C   UNL     1       2.951   6.076  22.705  0.00  0.00    +0.020 A 
ATOM     21  C   UNL     1       3.981   6.046  23.650  0.00  0.00    +0.013 A 
ENDBRANCH  12  16
ENDBRANCH   3   8
BRANCH   5  22
ATOM     22  N   UNL     1       7.828  -1.452  22.583  0.00  0.00    -0.281 N 
ATOM     23  H   UNL     1       6.945  -1.352  22.103  0.00  0.00    +0.155 HD
ATOM     24  C   UNL     1       8.241  -2.708  22.994  0.00  0.00    +0.250 C 
ATOM     25  O   UNL     1       9.211  -2.955  23.700  0.00  0.00    -0.270 OA
BRANCH  24  26
ATOM     26  C   UNL     1       7.447  -3.875  22.551  0.00  0.00    +0.055 A 
ATOM     27  C   UNL     1       6.461  -3.642  21.595  0.00  0.00    +0.123 A 
ATOM     28  N   UNL     1       5.675  -4.609  21.061  0.00  0.00    -0.263 NA
ATOM     29  C   UNL     1       5.898  -5.865  21.490  0.00  0.00    +0.111 A 
ATOM     30  C   UNL     1       6.857  -6.198  22.436  0.00  0.00    +0.020 A 
ATOM     31  C   UNL     1       7.644  -5.185  22.981  0.00  0.00    +0.016 A 
ENDBRANCH  24  26
ENDBRANCH   5  22
TORSDOF 4
ENDMDL
MODEL 4
REMARK VINA RESULT:      -7.7      2.319      9.364
REMARK  Name = 
REMARK  5 active torsions:
REMARK  status: ('A' for Active; 'I' for Inactive)
REMARK    1  A    between atoms: C_1  and  C_2
REMARK    2  A    between atoms: C_5  and  N_6
REMARK    3  A    between atoms: C_7  and  C_9
REMARK    4  A    between atoms: C_16  and  N_17
REMARK    5  A    between atoms: C_22  and  C_24
REMARK                            x       y       z     vdW  Elec       q    Type
REMARK                         _______ _______ _______ _____ _____    ______ ____
ROOT
ATOM      1  C   UNL     1       8.198  -5.098  23.737  0.00  0.00    +0.045 C 
ATOM      2  C   UNL     1       8.303  -3.597  23.746  0.00  0.00    -0.029 A 
ATOM      3  C   UNL     1       7.232  -2.738  23.407  0.00  0.00    +0.038 A 
ATOM      4  C   UNL     1       7.471  -1.347  23.459  0.00  0.00    +0.047 A 
ATOM      5  C   UNL     1       8.712  -0.808  23.830  0.00  0.00    +0.035 A 
ATOM      6  C   UNL     1       9.738  -1.682  24.172  0.00  0.00    +0.024 A 
ATOM      7  C   UNL     1       9.539  -3.054  24.125  0.00  0.00    +0.007 A 
ENDROOT
BRANCH   3   8
ATOM      8  N   UNL     1       5.982  -3.275  23.039  0.00  0.00    -0.283 N 
ATOM      9  H   UNL     1       5.663  -3.103  22.098  0.00  0.00    +0.155 HD
ATOM     10  C   UNL     1       5.039  -4.066  23.700  0.00  0.00    +0.220 A 
ATOM     11  N   UNL     1       5.233  -4.472  24.959  0.00  0.00    -0.214 NA
ATOM     12  C   UNL     1       4.300  -5.236  25.571  0.00  0.00    +0.077 A 
ATOM     13  C   UNL     1       3.157  -5.625  24.914  0.00  0.00    +0.048 A 
ATOM     14  C   UNL     1       3.030  -5.171  23.623  0.00  0.00    +0.116 A 
ATOM     15  N   UNL     1       3.944  -4.395  23.002  0.00  0.00    -0.223 NA
BRANCH  12  16
ATOM     16  C   UNL     1       4.609  -5.548  26.979  0.00  0.00    +0.019 A 
ATOM     17  C   UNL     1       5.017  -6.835  27.348  0.00  0.00    +0.120 A 
ATOM     18  N   UNL     1       5.442  -7.209  28.583  0.00  0.00    -0.263 NA
ATOM     19  C   UNL     1       5.445  -6.248  29.525  0.00  0.00    +0.111 A 
ATOM     20  C   UNL     1       5.021  -4.949  29.296  0.00  0.00    +0.020 A 
ATOM     21  C   UNL     1       4.598  -4.600  28.010  0.00  0.00    +0.013 A 
ENDBRANCH  12  16
ENDBRANCH   3   8
BRANCH   5  22
ATOM     22  N   UNL     1       8.863   0.605  23.878  0.00  0.00    -0.281 N 
ATOM     23  H   UNL     1       8.483   1.061  24.694  0.00  0.00    +0.155 HD
ATOM     24  C   UNL     1       9.494   1.361  22.906  0.00  0.00    +0.250 C 
ATOM     25  O   UNL     1       9.875   0.961  21.813  0.00  0.00    -0.270 OA
BRANCH  24  26
ATOM     26  C   UNL     1       9.740   2.791  23.195  0.00  0.00    +0.055 A 
ATOM     27  C   UNL     1       8.620   3.603  23.362  0.00  0.00    +0.123 A 
ATOM     28  N   UNL     1       8.675   4.922  23.666  0.00  0.00    -0.263 NA
ATOM     29  C   UNL     1       9.903   5.448  23.828  0.00  0.00    +0.111 A 
ATOM     30  C   UNL     1      11.077   4.722  23.686  0.00  0.00    +0.020 A 
ATOM     31  C   UNL     1      10.996   3.369  23.359  0.00  0.00    +0.016 A 
ENDBRANCH  24  26
ENDBRANCH   5  22
TORSDOF 4
ENDMDL
MODEL 5
REMARK VINA RESULT:      -7.7      2.595      9.360
REMARK  Name = 
REMARK  5 active torsions:
REMARK  status: ('A' for Active; 'I' for Inactive)
REMARK    1  A    between atoms: C_1  and  C_2
REMARK    2  A    between atoms: C_5  and  N_6
REMARK    3  A    between atoms: C_7  and  C_9
REMARK    4  A    between atoms: C_16  and  N_17
REMARK    5  A    between atoms: C_22  and  C_24
REMARK                            x       y       z     vdW  Elec       q    Type
REMARK                         _______ _______ _______ _____ _____    ______ ____
ROOT
ATOM      1  C   UNL     1       9.817  -3.013  24.101  0.00  0.00    +0.045 C 
ATOM      2  C   UNL     1       9.134  -1.677  23.984  0.00  0.00    -0.029 A 
ATOM      3  C   UNL     1       8.015  -1.443  23.151  0.00  0.00    +0.038 A 
ATOM      4  C   UNL     1       7.473  -0.139  23.139  0.00  0.00    +0.047 A 
ATOM      5  C   UNL     1       8.001   0.905  23.914  0.00  0.00    +0.035 A 
ATOM      6  C   UNL     1       9.092   0.635  24.733  0.00  0.00    +0.024 A 
ATOM      7  C   UNL     1       9.653  -0.634  24.763  0.00  0.00    +0.007 A 
ENDROOT
BRANCH   3   8
ATOM      8  N   UNL     1       7.478  -2.491  22.374  0.00  0.00    -0.283 N 
ATOM      9  H   UNL     1       7.503  -2.384  21.372  0.00  0.00    +0.155 HD
ATOM     10  C   UNL     1       6.916  -3.731  22.685  0.00  0.00    +0.220 A 
ATOM     11  N   UNL     1       6.796  -4.143  23.952  0.00  0.00    -0.214 NA
ATOM     12  C   UNL     1       6.246  -5.348  24.219  0.00  0.00    +0.077 A 
ATOM     13  C   UNL     1       5.824  -6.177  23.206  0.00  0.00    +0.048 A 
ATOM     14  C   UNL     1       5.982  -5.687  21.932  0.00  0.00    +0.116 A 
ATOM     15  N   UNL     1       6.515  -4.479  21.648  0.00  0.00    -0.223 NA
BRANCH  12  16
ATOM     16  C   UNL     1       6.109  -5.641  25.658  0.00  0.00    +0.019 A 
ATOM     17  C   UNL     1       6.995  -5.079  26.585  0.00  0.00    +0.120 A 
ATOM     18  N   UNL     1       6.896  -5.177  27.935  0.00  0.00    -0.263 NA
ATOM     19  C   UNL     1       5.860  -5.897  28.405  0.00  0.00    +0.111 A 
ATOM     20  C   UNL     1       4.942  -6.539  27.589  0.00  0.00    +0.020 A 
ATOM     21  C   UNL     1       5.072  -6.409  26.203  0.00  0.00    +0.013 A 
ENDBRANCH  12  16
ENDBRANCH   3   8
BRANCH   5  22
ATOM     22  N   UNL     1       7.382   2.183  23.860  0.00  0.00    -0.281 N 
ATOM     23  H   UNL     1       6.826   2.437  24.663  0.00  0.00    +0.155 HD
ATOM     24  C   UNL     1       7.508   3.074  22.808  0.00  0.00    +0.250 C 
ATOM     25  O   UNL     1       8.031   2.844  21.725  0.00  0.00    -0.270 OA
BRANCH  24  26
ATOM     26  C   UNL     1       6.962   4.436  22.989  0.00  0.00    +0.055 A 
ATOM     27  C   UNL     1       6.119   4.640  24.080  0.00  0.00    +0.123 A 
ATOM     28  N   UNL     1       5.569   5.836  24.404  0.00  0.00    -0.263 NA
ATOM     29  C   UNL     1       5.890   6.876  23.612  0.00  0.00    +0.111 A 
ATOM     30  C   UNL     1       6.722   6.775  22.506  0.00  0.00    +0.020 A 
ATOM     31  C   UNL     1       7.266   5.532  22.184  0.00  0.00    +0.016 A 
ENDBRANCH  24  26
ENDBRANCH   5  22
TORSDOF 4
ENDMDL
MODEL 6
REMARK VINA RESULT:      -7.6      2.559      9.704
REMARK  Name = 
REMARK  5 active torsions:
REMARK  status: ('A' for Active; 'I' for Inactive)
REMARK    1  A    between atoms: C_1  and  C_2
REMARK    2  A    between atoms: C_5  and  N_6
REMARK    3  A    between atoms: C_7  and  C_9
REMARK    4  A    between atoms: C_16  and  N_17
REMARK    5  A    between atoms: C_22  and  C_24
REMARK                            x       y       z     vdW  Elec       q    Type
REMARK                         _______ _______ _______ _____ _____    ______ ____
ROOT
ATOM      1  C   UNL     1       9.304  -5.515  24.741  0.00  0.00    +0.045 C 
ATOM      2  C   UNL     1       9.108  -4.051  25.026  0.00  0.00    -0.029 A 
ATOM      3  C   UNL     1       8.498  -3.559  26.203  0.00  0.00    +0.038 A 
ATOM      4  C   UNL     1       8.380  -2.158  26.340  0.00  0.00    +0.047 A 
ATOM      5  C   UNL     1       8.842  -1.263  25.363  0.00  0.00    +0.035 A 
ATOM      6  C   UNL     1       9.451  -1.781  24.225  0.00  0.00    +0.024 A 
ATOM      7  C   UNL     1       9.576  -3.153  24.056  0.00  0.00    +0.007 A 
ENDROOT
BRANCH   3   8
ATOM      8  N   UNL     1       8.038  -4.455  27.190  0.00  0.00    -0.283 N 
ATOM      9  H   UNL     1       8.581  -4.530  28.036  0.00  0.00    +0.155 HD
ATOM     10  C   UNL     1       6.921  -5.287  27.292  0.00  0.00    +0.220 A 
ATOM     11  N   UNL     1       6.009  -5.350  26.314  0.00  0.00    -0.214 NA
ATOM     12  C   UNL     1       4.940  -6.167  26.443  0.00  0.00    +0.077 A 
ATOM     13  C   UNL     1       4.756  -6.923  27.576  0.00  0.00    +0.048 A 
ATOM     14  C   UNL     1       5.732  -6.804  28.536  0.00  0.00    +0.116 A 
ATOM     15  N   UNL     1       6.813  -6.005  28.418  0.00  0.00    -0.223 NA
BRANCH  12  16
ATOM     16  C   UNL     1       4.058  -6.192  25.261  0.00  0.00    +0.019 A 
ATOM     17  C   UNL     1       4.156  -5.199  24.280  0.00  0.00    +0.120 A 
ATOM     18  N   UNL     1       3.487  -5.183  23.098  0.00  0.00    -0.263 NA
ATOM     19  C   UNL     1       2.647  -6.212  22.878  0.00  0.00    +0.111 A 
ATOM     20  C   UNL     1       2.429  -7.231  23.790  0.00  0.00    +0.020 A 
ATOM     21  C   UNL     1       3.141  -7.217  24.993  0.00  0.00    +0.013 A 
ENDBRANCH  12  16
ENDBRANCH   3   8
BRANCH   5  22
ATOM     22  N   UNL     1       8.704   0.133  25.589  0.00  0.00    -0.281 N 
ATOM     23  H   UNL     1       8.989   0.463  26.499  0.00  0.00    +0.155 HD
ATOM     24  C   UNL     1       8.231   1.037  24.654  0.00  0.00    +0.250 C 
ATOM     25  O   UNL     1       7.727   0.762  23.572  0.00  0.00    -0.270 OA
BRANCH  24  26
ATOM     26  C   UNL     1       8.331   2.478  24.975  0.00  0.00    +0.055 A 
ATOM     27  C   UNL     1       9.224   3.233  24.217  0.00  0.00    +0.123 A 
ATOM     28  N   UNL     1       9.405   4.568  24.362  0.00  0.00    -0.263 NA
ATOM     29  C   UNL     1       8.647   5.177  25.293  0.00  0.00    +0.111 A 
ATOM     30  C   UNL     1       7.729   4.513  26.094  0.00  0.00    +0.020 A 
ATOM     31  C   UNL     1       7.569   3.138  25.937  0.00  0.00    +0.016 A 
ENDBRANCH  24  26
ENDBRANCH   5  22
TORSDOF 4
ENDMDL
MODEL 7
REMARK VINA RESULT:      -7.6      3.423      8.988
REMARK  Name = 
REMARK  5 active torsions:
REMARK  status: ('A' for Active; 'I' for Inactive)
REMARK    1  A    between atoms: C_1  and  C_2
REMARK    2  A    between atoms: C_5  and  N_6
REMARK    3  A    between atoms: C_7  and  C_9
REMARK    4  A    between atoms: C_16  and  N_17
REMARK    5  A    between atoms: C_22  and  C_24
REMARK                            x       y       z     vdW  Elec       q    Type
REMARK                         _______ _______ _______ _____ _____    ______ ____
ROOT
ATOM      1  C   UNL     1      10.568   0.447  23.258  0.00  0.00    +0.045 C 
ATOM      2  C   UNL     1       9.169   0.971  23.077  0.00  0.00    -0.029 A 
ATOM      3  C   UNL     1       8.090   0.624  23.924  0.00  0.00    +0.038 A 
ATOM      4  C   UNL     1       6.828   1.191  23.637  0.00  0.00    +0.047 A 
ATOM      5  C   UNL     1       6.622   2.068  22.562  0.00  0.00    +0.035 A 
ATOM      6  C   UNL     1       7.708   2.399  21.759  0.00  0.00    +0.024 A 
ATOM      7  C   UNL     1       8.960   1.855  22.009  0.00  0.00    +0.007 A 
ENDROOT
BRANCH   3   8
ATOM      8  N   UNL     1       8.294  -0.253  25.009  0.00  0.00    -0.283 N 
ATOM      9  H   UNL     1       8.638   0.147  25.868  0.00  0.00    +0.155 HD
ATOM     10  C   UNL     1       8.088  -1.621  25.195  0.00  0.00    +0.220 A 
ATOM     11  N   UNL     1       7.597  -2.390  24.216  0.00  0.00    -0.214 NA
ATOM     12  C   UNL     1       7.410  -3.712  24.428  0.00  0.00    +0.077 A 
ATOM     13  C   UNL     1       7.695  -4.284  25.645  0.00  0.00    +0.048 A 
ATOM     14  C   UNL     1       8.192  -3.431  26.602  0.00  0.00    +0.116 A 
ATOM     15  N   UNL     1       8.399  -2.112  26.402  0.00  0.00    -0.223 NA
BRANCH  12  16
ATOM     16  C   UNL     1       6.936  -4.449  23.242  0.00  0.00    +0.019 A 
ATOM     17  C   UNL     1       6.149  -3.811  22.276  0.00  0.00    +0.120 A 
ATOM     18  N   UNL     1       5.757  -4.347  21.092  0.00  0.00    -0.263 NA
ATOM     19  C   UNL     1       6.153  -5.611  20.853  0.00  0.00    +0.111 A 
ATOM     20  C   UNL     1       6.895  -6.364  21.749  0.00  0.00    +0.020 A 
ATOM     21  C   UNL     1       7.286  -5.775  22.955  0.00  0.00    +0.013 A 
ENDBRANCH  12  16
ENDBRANCH   3   8
BRANCH   5  22
ATOM     22  N   UNL     1       5.325   2.612  22.357  0.00  0.00    -0.281 N 
ATOM     23  H   UNL     1       4.658   2.003  21.904  0.00  0.00    +0.155 HD
ATOM     24  C   UNL     1       4.934   3.882  22.744  0.00  0.00    +0.250 C 
ATOM     25  O   UNL     1       5.668   4.764  23.173  0.00  0.00    -0.270 OA
BRANCH  24  26
ATOM     26  C   UNL     1       3.501   4.227  22.635  0.00  0.00    +0.055 A 
ATOM     27  C   UNL     1       3.165   5.576  22.731  0.00  0.00    +0.123 A 
ATOM     28  N   UNL     1       1.904   6.057  22.615  0.00  0.00    -0.263 NA
ATOM     29  C   UNL     1       0.938   5.151  22.376  0.00  0.00    +0.111 A 
ATOM     30  C   UNL     1       1.171   3.788  22.261  0.00  0.00    +0.020 A 
ATOM     31  C   UNL     1       2.475   3.314  22.396  0.00  0.00    +0.016 A 
ENDBRANCH  24  26
ENDBRANCH   5  22
TORSDOF 4
ENDMDL
MODEL 8
REMARK VINA RESULT:      -7.3      2.139      4.009
REMARK  Name = 
REMARK  5 active torsions:
REMARK  status: ('A' for Active; 'I' for Inactive)
REMARK    1  A    between atoms: C_1  and  C_2
REMARK    2  A    between atoms: C_5  and  N_6
REMARK    3  A    between atoms: C_7  and  C_9
REMARK    4  A    between atoms: C_16  and  N_17
REMARK    5  A    between atoms: C_22  and  C_24
REMARK                            x       y       z     vdW  Elec       q    Type
REMARK                         _______ _______ _______ _____ _____    ______ ____
ROOT
ATOM      1  C   UNL     1      10.167   1.771  21.886  0.00  0.00    +0.045 C 
ATOM      2  C   UNL     1       9.344   0.670  22.496  0.00  0.00    -0.029 A 
ATOM      3  C   UNL     1       8.701   0.780  23.751  0.00  0.00    +0.038 A 
ATOM      4  C   UNL     1       7.958  -0.334  24.203  0.00  0.00    +0.047 A 
ATOM      5  C   UNL     1       7.843  -1.517  23.457  0.00  0.00    +0.035 A 
ATOM      6  C   UNL     1       8.476  -1.584  22.220  0.00  0.00    +0.024 A 
ATOM      7  C   UNL     1       9.219  -0.511  21.750  0.00  0.00    +0.007 A 
ENDROOT
BRANCH   3   8
ATOM      8  N   UNL     1       8.809   1.969  24.501  0.00  0.00    -0.283 N 
ATOM      9  H   UNL     1       9.652   2.101  25.039  0.00  0.00    +0.155 HD
ATOM     10  C   UNL     1       7.990   3.088  24.658  0.00  0.00    +0.220 A 
ATOM     11  N   UNL     1       6.818   3.187  24.020  0.00  0.00    -0.214 NA
ATOM     12  C   UNL     1       6.047   4.284  24.194  0.00  0.00    +0.077 A 
ATOM     13  C   UNL     1       6.456   5.319  25.002  0.00  0.00    +0.048 A 
ATOM     14  C   UNL     1       7.671   5.146  25.621  0.00  0.00    +0.116 A 
ATOM     15  N   UNL     1       8.445   4.051  25.471  0.00  0.00    -0.223 NA
BRANCH  12  16
ATOM     16  C   UNL     1       4.752   4.227  23.491  0.00  0.00    +0.019 A 
ATOM     17  C   UNL     1       3.950   3.082  23.571  0.00  0.00    +0.120 A 
ATOM     18  N   UNL     1       2.695   2.958  23.070  0.00  0.00    -0.263 NA
ATOM     19  C   UNL     1       2.202   4.033  22.427  0.00  0.00    +0.111 A 
ATOM     20  C   UNL     1       2.914   5.207  22.243  0.00  0.00    +0.020 A 
ATOM     21  C   UNL     1       4.202   5.300  22.779  0.00  0.00    +0.013 A 
ENDBRANCH  12  16
ENDBRANCH   3   8
BRANCH   5  22
ATOM     22  N   UNL     1       7.058  -2.583  23.974  0.00  0.00    -0.281 N 
ATOM     23  H   UNL     1       6.063  -2.421  24.008  0.00  0.00    +0.155 HD
ATOM     24  C   UNL     1       7.567  -3.796  24.405  0.00  0.00    +0.250 C 
ATOM     25  O   UNL     1       8.751  -4.074  24.547  0.00  0.00    -0.270 OA
BRANCH  24  26
ATOM     26  C   UNL     1       6.605  -4.870  24.733  0.00  0.00    +0.055 A 
ATOM     27  C   UNL     1       6.634  -5.370  26.033  0.00  0.00    +0.123 A 
ATOM     28  N   UNL     1       5.796  -6.327  26.500  0.00  0.00    -0.263 NA
ATOM     29  C   UNL     1       4.877  -6.792  25.633  0.00  0.00    +0.111 A 
ATOM     30  C   UNL     1       4.766  -6.356  24.320  0.00  0.00    +0.020 A 
ATOM     31  C   UNL     1       5.648  -5.381  23.858  0.00  0.00    +0.016 A 
ENDBRANCH  24  26
ENDBRANCH   5  22
TORSDOF 4
ENDMDL
MODEL 9
REMARK VINA RESULT:      -7.3      3.016      4.262
REMARK  Name = 
REMARK  5 active torsions:
REMARK  status: ('A' for Active; 'I' for Inactive)
REMARK    1  A    between atoms: C_1  and  C_2
REMARK    2  A    between atoms: C_5  and  N_6
REMARK    3  A    between atoms: C_7  and  C_9
REMARK    4  A    between atoms: C_16  and  N_17
REMARK    5  A    between atoms: C_22  and  C_24
REMARK                            x       y       z     vdW  Elec       q    Type
REMARK                         _______ _______ _______ _____ _____    ______ ____
ROOT
ATOM      1  C   UNL     1      11.219   3.540  23.372  0.00  0.00    +0.045 C 
ATOM      2  C   UNL     1      10.322   2.340  23.502  0.00  0.00    -0.029 A 
ATOM      3  C   UNL     1       8.990   2.305  23.026  0.00  0.00    +0.038 A 
ATOM      4  C   UNL     1       8.261   1.110  23.215  0.00  0.00    +0.047 A 
ATOM      5  C   UNL     1       8.810  -0.017  23.846  0.00  0.00    +0.035 A 
ATOM      6  C   UNL     1      10.127   0.047  24.287  0.00  0.00    +0.024 A 
ATOM      7  C   UNL     1      10.869   1.208  24.123  0.00  0.00    +0.007 A 
ENDROOT
BRANCH   3   8
ATOM      8  N   UNL     1       8.436   3.433  22.387  0.00  0.00    -0.283 N 
ATOM      9  H   UNL     1       8.546   3.499  21.388  0.00  0.00    +0.155 HD
ATOM     10  C   UNL     1       7.697   4.530  22.837  0.00  0.00    +0.220 A 
ATOM     11  N   UNL     1       7.375   4.670  24.128  0.00  0.00    -0.214 NA
ATOM     12  C   UNL     1       6.660   5.744  24.530  0.00  0.00    +0.077 A 
ATOM     13  C   UNL     1       6.234   6.692  23.630  0.00  0.00    +0.048 A 
ATOM     14  C   UNL     1       6.600   6.479  22.323  0.00  0.00    +0.116 A 
ATOM     15  N   UNL     1       7.327   5.420  21.906  0.00  0.00    -0.223 NA
BRANCH  12  16
ATOM     16  C   UNL     1       6.441   5.809  25.987  0.00  0.00    +0.019 A 
ATOM     17  C   UNL     1       5.348   6.507  26.512  0.00  0.00    +0.120 A 
ATOM     18  N   UNL     1       4.978   6.536  27.818  0.00  0.00    -0.263 NA
ATOM     19  C   UNL     1       5.753   5.841  28.670  0.00  0.00    +0.111 A 
ATOM     20  C   UNL     1       6.887   5.147  28.281  0.00  0.00    +0.020 A 
ATOM     21  C   UNL     1       7.233   5.135  26.926  0.00  0.00    +0.013 A 
ENDBRANCH  12  16
ENDBRANCH   3   8
BRANCH   5  22
ATOM     22  N   UNL     1       8.015  -1.188  23.976  0.00  0.00    -0.281 N 
ATOM     23  H   UNL     1       7.557  -1.313  24.867  0.00  0.00    +0.155 HD
ATOM     24  C   UNL     1       7.830  -2.127  22.976  0.00  0.00    +0.250 C 
ATOM     25  O   UNL     1       8.427  -2.173  21.908  0.00  0.00    -0.270 OA
BRANCH  24  26
ATOM     26  C   UNL     1       6.822  -3.185  23.202  0.00  0.00    +0.055 A 
ATOM     27  C   UNL     1       5.775  -3.268  22.285  0.00  0.00    +0.123 A 
ATOM     28  N   UNL     1       4.795  -4.201  22.331  0.00  0.00    -0.263 NA
ATOM     29  C   UNL     1       4.873  -5.103  23.327  0.00  0.00    +0.111 A 
ATOM     30  C   UNL     1       5.876  -5.106  24.286  0.00  0.00    +0.020 A 
ATOM     31  C   UNL     1       6.867  -4.128  24.227  0.00  0.00    +0.016 A 
ENDBRANCH  24  26
ENDBRANCH   5  22
TORSDOF 4
ENDMDL
