MODEL 1
REMARK VINA RESULT:      -5.6      0.000      0.000
REMARK  Name = 
REMARK  4 active torsions:
REMARK  status: ('A' for Active; 'I' for Inactive)
REMARK    1  A    between atoms: O_1  and  C_2
REMARK    2  A    between atoms: C_8  and  O_10
REMARK    3  A    between atoms: C_11  and  O_13
REMARK    4  A    between atoms: C_14  and  O_16
REMARK                            x       y       z     vdW  Elec       q    Type
REMARK                         _______ _______ _______ _____ _____    ______ ____
ROOT
ATOM      1  C   UNL     1       9.859   1.372  22.045  0.00  0.00    +0.135 C 
ATOM      2  C   UNL     1       9.140   0.170  22.664  0.00  0.00    +0.116 C 
ATOM      3  N   UNL     1       9.920  -0.096  23.894  0.00  0.00    -0.292 NA
ATOM      4  C   UNL     1       9.188  -1.028  24.759  0.00  0.00    +0.118 C 
ATOM      5  C   UNL     1       8.939  -2.380  24.038  0.00  0.00    +0.159 C 
ATOM      6  C   UNL     1       8.374  -2.207  22.604  0.00  0.00    +0.174 C 
ATOM      7  C   UNL     1      10.134   1.232  24.459  0.00  0.00    +0.087 C 
ATOM      8  C   UNL     1       9.109  -1.102  21.812  0.00  0.00    +0.165 C 
ATOM      9  C   UNL     1      10.563   2.039  23.233  0.00  0.00    +0.048 C 
ENDROOT
BRANCH   1  10
ATOM     10  O   UNL     1       8.914   2.277  21.478  0.00  0.00    -0.390 OA
ATOM     11  H   UNL     1       9.356   2.722  20.734  0.00  0.00    +0.210 HD
ENDBRANCH   1  10
BRANCH   6  12
ATOM     12  O   UNL     1       6.976  -1.896  22.676  0.00  0.00    -0.387 OA
ATOM     13  H   UNL     1       6.882  -0.954  22.451  0.00  0.00    +0.210 HD
ENDBRANCH   6  12
BRANCH   5  14
ATOM     14  O   UNL     1      10.153  -3.141  23.977  0.00  0.00    -0.388 OA
ATOM     15  H   UNL     1      10.588  -2.925  23.134  0.00  0.00    +0.210 HD
ENDBRANCH   5  14
BRANCH   8  16
ATOM     16  O   UNL     1      10.444  -1.522  21.493  0.00  0.00    -0.388 OA
ATOM     17  H   UNL     1      10.537  -2.404  21.913  0.00  0.00    +0.210 HD
ENDBRANCH   8  16
TORSDOF 4
ENDMDL
MODEL 2
REMARK VINA RESULT:      -4.8      4.803      6.620
REMARK  Name = 
REMARK  4 active torsions:
REMARK  status: ('A' for Active; 'I' for Inactive)
REMARK    1  A    between atoms: O_1  and  C_2
REMARK    2  A    between atoms: C_8  and  O_10
REMARK    3  A    between atoms: C_11  and  O_13
REMARK    4  A    between atoms: C_14  and  O_16
REMARK                            x       y       z     vdW  Elec       q    Type
REMARK                         _______ _______ _______ _____ _____    ______ ____
ROOT
ATOM      1  C   UNL     1       5.356  -5.642  25.869  0.00  0.00    +0.135 C 
ATOM      2  C   UNL     1       6.577  -4.741  25.662  0.00  0.00    +0.116 C 
ATOM      3  N   UNL     1       7.186  -5.273  24.421  0.00  0.00    -0.292 NA
ATOM      4  C   UNL     1       8.196  -4.336  23.917  0.00  0.00    +0.118 C 
ATOM      5  C   UNL     1       9.325  -4.118  24.961  0.00  0.00    +0.159 C 
ATOM      6  C   UNL     1       8.786  -3.826  26.385  0.00  0.00    +0.174 C 
ATOM      7  C   UNL     1       6.042  -5.481  23.539  0.00  0.00    +0.087 C 
ATOM      8  C   UNL     1       7.625  -4.767  26.779  0.00  0.00    +0.165 C 
ATOM      9  C   UNL     1       5.043  -6.175  24.465  0.00  0.00    +0.048 C 
ENDROOT
BRANCH   1  10
ATOM     10  O   UNL     1       4.252  -4.879  26.350  0.00  0.00    -0.390 OA
ATOM     11  H   UNL     1       4.536  -3.950  26.375  0.00  0.00    +0.210 HD
ENDBRANCH   1  10
BRANCH   6  12
ATOM     12  O   UNL     1       8.346  -2.463  26.459  0.00  0.00    -0.387 OA
ATOM     13  H   UNL     1       7.392  -2.462  26.268  0.00  0.00    +0.210 HD
ENDBRANCH   6  12
BRANCH   5  14
ATOM     14  O   UNL     1      10.183  -5.266  25.009  0.00  0.00    -0.388 OA
ATOM     15  H   UNL     1       9.764  -5.918  25.596  0.00  0.00    +0.210 HD
ENDBRANCH   5  14
BRANCH   8  16
ATOM     16  O   UNL     1       8.110  -6.102  26.977  0.00  0.00    -0.388 OA
ATOM     17  H   UNL     1       8.767  -6.026  27.703  0.00  0.00    +0.210 HD
ENDBRANCH   8  16
TORSDOF 4
ENDMDL
MODEL 3
REMARK VINA RESULT:      -4.8      1.761      4.194
REMARK  Name = 
REMARK  4 active torsions:
REMARK  status: ('A' for Active; 'I' for Inactive)
REMARK    1  A    between atoms: O_1  and  C_2
REMARK    2  A    between atoms: C_8  and  O_10
REMARK    3  A    between atoms: C_11  and  O_13
REMARK    4  A    between atoms: C_14  and  O_16
REMARK                            x       y       z     vdW  Elec       q    Type
REMARK                         _______ _______ _______ _____ _____    ______ ____
ROOT
ATOM      1  C   UNL     1       8.475  -3.142  23.334  0.00  0.00    +0.135 C 
ATOM      2  C   UNL     1       8.833  -1.660  23.478  0.00  0.00    +0.116 C 
ATOM      3  N   UNL     1       7.746  -0.975  22.742  0.00  0.00    -0.292 NA
ATOM      4  C   UNL     1       7.772   0.463  23.034  0.00  0.00    +0.118 C 
ATOM      5  C   UNL     1       9.124   1.095  22.607  0.00  0.00    +0.159 C 
ATOM      6  C   UNL     1      10.353   0.286  23.098  0.00  0.00    +0.174 C 
ATOM      7  C   UNL     1       6.541  -1.672  23.180  0.00  0.00    +0.087 C 
ATOM      8  C   UNL     1      10.179  -1.236  22.883  0.00  0.00    +0.165 C 
ATOM      9  C   UNL     1       6.963  -3.138  23.079  0.00  0.00    +0.048 C 
ENDROOT
BRANCH   1  10
ATOM     10  O   UNL     1       8.756  -3.841  24.544  0.00  0.00    -0.390 OA
ATOM     11  H   UNL     1       9.633  -3.550  24.845  0.00  0.00    +0.210 HD
ENDBRANCH   1  10
BRANCH   6  12
ATOM     12  O   UNL     1      10.576   0.552  24.489  0.00  0.00    -0.387 OA
ATOM     13  H   UNL     1       9.773   0.273  24.964  0.00  0.00    +0.210 HD
ENDBRANCH   6  12
BRANCH   5  14
ATOM     14  O   UNL     1       9.183   1.222  21.181  0.00  0.00    -0.388 OA
ATOM     15  H   UNL     1      10.002   1.701  20.966  0.00  0.00    +0.210 HD
ENDBRANCH   5  14
BRANCH   8  16
ATOM     16  O   UNL     1      10.228  -1.551  21.485  0.00  0.00    -0.388 OA
ATOM     17  H   UNL     1      10.402  -0.694  21.039  0.00  0.00    +0.210 HD
ENDBRANCH   8  16
TORSDOF 4
ENDMDL
MODEL 4
REMARK VINA RESULT:      -4.8      5.430      6.804
REMARK  Name = 
REMARK  4 active torsions:
REMARK  status: ('A' for Active; 'I' for Inactive)
REMARK    1  A    between atoms: O_1  and  C_2
REMARK    2  A    between atoms: C_8  and  O_10
REMARK    3  A    between atoms: C_11  and  O_13
REMARK    4  A    between atoms: C_14  and  O_16
REMARK                            x       y       z     vdW  Elec       q    Type
REMARK                         _______ _______ _______ _____ _____    ______ ____
ROOT
ATOM      1  C   UNL     1       7.346  -4.968  26.575  0.00  0.00    +0.135 C 
ATOM      2  C   UNL     1       6.588  -5.558  25.383  0.00  0.00    +0.116 C 
ATOM      3  N   UNL     1       7.143  -4.817  24.227  0.00  0.00    -0.292 NA
ATOM      4  C   UNL     1       6.741  -5.468  22.975  0.00  0.00    +0.118 C 
ATOM      5  C   UNL     1       5.195  -5.504  22.835  0.00  0.00    +0.159 C 
ATOM      6  C   UNL     1       4.482  -6.010  24.116  0.00  0.00    +0.174 C 
ATOM      7  C   UNL     1       8.579  -4.805  24.483  0.00  0.00    +0.087 C 
ATOM      8  C   UNL     1       5.067  -5.381  25.402  0.00  0.00    +0.165 C 
ATOM      9  C   UNL     1       8.640  -4.419  25.961  0.00  0.00    +0.048 C 
ENDROOT
BRANCH   1  10
ATOM     10  O   UNL     1       7.659  -5.989  27.519  0.00  0.00    -0.390 OA
ATOM     11  H   UNL     1       7.695  -6.829  27.030  0.00  0.00    +0.210 HD
ENDBRANCH   1  10
BRANCH   6  12
ATOM     12  O   UNL     1       4.589  -7.438  24.189  0.00  0.00    -0.387 OA
ATOM     13  H   UNL     1       3.723  -7.801  23.933  0.00  0.00    +0.210 HD
ENDBRANCH   6  12
BRANCH   5  14
ATOM     14  O   UNL     1       4.697  -4.201  22.503  0.00  0.00    -0.388 OA
ATOM     15  H   UNL     1       5.317  -3.550  22.874  0.00  0.00    +0.210 HD
ENDBRANCH   5  14
BRANCH   8  16
ATOM     16  O   UNL     1       4.727  -3.989  25.475  0.00  0.00    -0.388 OA
ATOM     17  H   UNL     1       5.559  -3.540  25.738  0.00  0.00    +0.210 HD
ENDBRANCH   8  16
TORSDOF 4
ENDMDL
MODEL 5
REMARK VINA RESULT:      -4.8      2.398      4.635
REMARK  Name = 
REMARK  4 active torsions:
REMARK  status: ('A' for Active; 'I' for Inactive)
REMARK    1  A    between atoms: O_1  and  C_2
REMARK    2  A    between atoms: C_8  and  O_10
REMARK    3  A    between atoms: C_11  and  O_13
REMARK    4  A    between atoms: C_14  and  O_16
REMARK                            x       y       z     vdW  Elec       q    Type
REMARK                         _______ _______ _______ _____ _____    ______ ____
ROOT
ATOM      1  C   UNL     1       8.668  -4.709  24.866  0.00  0.00    +0.135 C 
ATOM      2  C   UNL     1       8.805  -3.394  24.093  0.00  0.00    +0.116 C 
ATOM      3  N   UNL     1       8.072  -2.425  24.939  0.00  0.00    -0.292 NA
ATOM      4  C   UNL     1       8.358  -1.056  24.496  0.00  0.00    +0.118 C 
ATOM      5  C   UNL     1       7.923  -0.844  23.020  0.00  0.00    +0.159 C 
ATOM      6  C   UNL     1       8.410  -1.973  22.076  0.00  0.00    +0.174 C 
ATOM      7  C   UNL     1       8.518  -2.742  26.291  0.00  0.00    +0.087 C 
ATOM      8  C   UNL     1       8.202  -3.379  22.685  0.00  0.00    +0.165 C 
ATOM      9  C   UNL     1       8.420  -4.267  26.314  0.00  0.00    +0.048 C 
ENDROOT
BRANCH   1  10
ATOM     10  O   UNL     1       9.879  -5.457  24.793  0.00  0.00    -0.390 OA
ATOM     11  H   UNL     1      10.075  -5.592  23.851  0.00  0.00    +0.210 HD
ENDBRANCH   1  10
BRANCH   6  12
ATOM     12  O   UNL     1       9.799  -1.781  21.778  0.00  0.00    -0.387 OA
ATOM     13  H   UNL     1      10.015  -0.861  22.012  0.00  0.00    +0.210 HD
ENDBRANCH   6  12
BRANCH   5  14
ATOM     14  O   UNL     1       6.496  -0.742  22.935  0.00  0.00    -0.388 OA
ATOM     15  H   UNL     1       6.187  -0.299  23.745  0.00  0.00    +0.210 HD
ENDBRANCH   5  14
BRANCH   8  16
ATOM     16  O   UNL     1       6.804  -3.698  22.737  0.00  0.00    -0.388 OA
ATOM     17  H   UNL     1       6.756  -4.536  23.246  0.00  0.00    +0.210 HD
ENDBRANCH   8  16
TORSDOF 4
ENDMDL
MODEL 6
REMARK VINA RESULT:      -4.8      2.701      3.919
REMARK  Name = 
REMARK  4 active torsions:
REMARK  status: ('A' for Active; 'I' for Inactive)
REMARK    1  A    between atoms: O_1  and  C_2
REMARK    2  A    between atoms: C_8  and  O_10
REMARK    3  A    between atoms: C_11  and  O_13
REMARK    4  A    between atoms: C_14  and  O_16
REMARK                            x       y       z     vdW  Elec       q    Type
REMARK                         _______ _______ _______ _____ _____    ______ ____
ROOT
ATOM      1  C   UNL     1       9.552  -2.422  23.497  0.00  0.00    +0.135 C 
ATOM      2  C   UNL     1       8.475  -3.187  24.270  0.00  0.00    +0.116 C 
ATOM      3  N   UNL     1       8.662  -2.724  25.664  0.00  0.00    -0.292 NA
ATOM      4  C   UNL     1       7.517  -3.133  26.486  0.00  0.00    +0.118 C 
ATOM      5  C   UNL     1       7.365  -4.678  26.501  0.00  0.00    +0.159 C 
ATOM      6  C   UNL     1       7.437  -5.308  25.087  0.00  0.00    +0.174 C 
ATOM      7  C   UNL     1       8.839  -1.282  25.525  0.00  0.00    +0.087 C 
ATOM      8  C   UNL     1       8.584  -4.715  24.236  0.00  0.00    +0.165 C 
ATOM      9  C   UNL     1       9.830  -1.189  24.365  0.00  0.00    +0.048 C 
ENDROOT
BRANCH   1  10
ATOM     10  O   UNL     1       9.055  -2.012  22.226  0.00  0.00    -0.390 OA
ATOM     11  H   UNL     1       9.638  -1.302  21.906  0.00  0.00    +0.210 HD
ENDBRANCH   1  10
BRANCH   6  12
ATOM     12  O   UNL     1       6.188  -5.112  24.411  0.00  0.00    -0.387 OA
ATOM     13  H   UNL     1       5.511  -5.594  24.919  0.00  0.00    +0.210 HD
ENDBRANCH   6  12
BRANCH   5  14
ATOM     14  O   UNL     1       8.374  -5.267  27.332  0.00  0.00    -0.388 OA
ATOM     15  H   UNL     1       9.171  -4.714  27.256  0.00  0.00    +0.210 HD
ENDBRANCH   5  14
BRANCH   8  16
ATOM     16  O   UNL     1       9.855  -5.136  24.750  0.00  0.00    -0.388 OA
ATOM     17  H   UNL     1       9.640  -5.711  25.515  0.00  0.00    +0.210 HD
ENDBRANCH   8  16
TORSDOF 4
ENDMDL
MODEL 7
REMARK VINA RESULT:      -4.7      1.627      4.154
REMARK  Name = 
REMARK  4 active torsions:
REMARK  status: ('A' for Active; 'I' for Inactive)
REMARK    1  A    between atoms: O_1  and  C_2
REMARK    2  A    between atoms: C_8  and  O_10
REMARK    3  A    between atoms: C_11  and  O_13
REMARK    4  A    between atoms: C_14  and  O_16
REMARK                            x       y       z     vdW  Elec       q    Type
REMARK                         _______ _______ _______ _____ _____    ______ ____
ROOT
ATOM      1  C   UNL     1       9.392  -1.096  21.876  0.00  0.00    +0.135 C 
ATOM      2  C   UNL     1       9.508   0.155  22.751  0.00  0.00    +0.116 C 
ATOM      3  N   UNL     1       8.184   0.235  23.408  0.00  0.00    -0.292 NA
ATOM      4  C   UNL     1       8.227   1.206  24.507  0.00  0.00    +0.118 C 
ATOM      5  C   UNL     1       8.600   2.621  23.987  0.00  0.00    +0.159 C 
ATOM      6  C   UNL     1       9.831   2.615  23.044  0.00  0.00    +0.174 C 
ATOM      7  C   UNL     1       7.916  -1.142  23.811  0.00  0.00    +0.087 C 
ATOM      8  C   UNL     1       9.774   1.468  22.009  0.00  0.00    +0.165 C 
ATOM      9  C   UNL     1       8.293  -1.925  22.553  0.00  0.00    +0.048 C 
ENDROOT
BRANCH   1  10
ATOM     10  O   UNL     1      10.617  -1.824  21.886  0.00  0.00    -0.390 OA
ATOM     11  H   UNL     1      10.798  -2.067  22.810  0.00  0.00    +0.210 HD
ENDBRANCH   1  10
BRANCH   6  12
ATOM     12  O   UNL     1      11.029   2.498  23.824  0.00  0.00    -0.387 OA
ATOM     13  H   UNL     1      11.195   1.547  23.949  0.00  0.00    +0.210 HD
ENDBRANCH   6  12
BRANCH   5  14
ATOM     14  O   UNL     1       7.485   3.207  23.302  0.00  0.00    -0.388 OA
ATOM     15  H   UNL     1       7.826   3.950  22.774  0.00  0.00    +0.210 HD
ENDBRANCH   5  14
BRANCH   8  16
ATOM     16  O   UNL     1       8.738   1.717  21.047  0.00  0.00    -0.388 OA
ATOM     17  H   UNL     1       9.115   2.388  20.439  0.00  0.00    +0.210 HD
ENDBRANCH   8  16
TORSDOF 4
ENDMDL
MODEL 8
REMARK VINA RESULT:      -4.7      2.375      4.452
REMARK  Name = 
REMARK  4 active torsions:
REMARK  status: ('A' for Active; 'I' for Inactive)
REMARK    1  A    between atoms: O_1  and  C_2
REMARK    2  A    between atoms: C_8  and  O_10
REMARK    3  A    between atoms: C_11  and  O_13
REMARK    4  A    between atoms: C_14  and  O_16
REMARK                            x       y       z     vdW  Elec       q    Type
REMARK                         _______ _______ _______ _____ _____    ______ ____
ROOT
ATOM      1  C   UNL     1       5.990  -3.194  22.399  0.00  0.00    +0.135 C 
ATOM      2  C   UNL     1       7.467  -2.822  22.552  0.00  0.00    +0.116 C 
ATOM      3  N   UNL     1       7.790  -3.267  23.927  0.00  0.00    -0.292 NA
ATOM      4  C   UNL     1       9.243  -3.256  24.129  0.00  0.00    +0.118 C 
ATOM      5  C   UNL     1       9.824  -1.830  23.928  0.00  0.00    +0.159 C 
ATOM      6  C   UNL     1       9.319  -1.147  22.630  0.00  0.00    +0.174 C 
ATOM      7  C   UNL     1       7.163  -4.581  24.018  0.00  0.00    +0.087 C 
ATOM      8  C   UNL     1       7.799  -1.332  22.421  0.00  0.00    +0.165 C 
ATOM      9  C   UNL     1       5.782  -4.323  23.417  0.00  0.00    +0.048 C 
ENDROOT
BRANCH   1  10
ATOM     10  O   UNL     1       5.733  -3.680  21.084  0.00  0.00    -0.390 OA
ATOM     11  H   UNL     1       6.593  -3.903  20.689  0.00  0.00    +0.210 HD
ENDBRANCH   1  10
BRANCH   6  12
ATOM     12  O   UNL     1      10.027  -1.681  21.503  0.00  0.00    -0.387 OA
ATOM     13  H   UNL     1       9.478  -2.395  21.135  0.00  0.00    +0.210 HD
ENDBRANCH   6  12
BRANCH   5  14
ATOM     14  O   UNL     1       9.502  -1.001  25.052  0.00  0.00    -0.388 OA
ATOM     15  H   UNL     1      10.246  -1.056  25.676  0.00  0.00    +0.210 HD
ENDBRANCH   5  14
BRANCH   8  16
ATOM     16  O   UNL     1       7.066  -0.571  23.392  0.00  0.00    -0.388 OA
ATOM     17  H   UNL     1       6.439  -1.210  23.793  0.00  0.00    +0.210 HD
ENDBRANCH   8  16
TORSDOF 4
ENDMDL
MODEL 9
REMARK VINA RESULT:      -4.7      4.296      5.953
REMARK  Name = 
REMARK  4 active torsions:
REMARK  status: ('A' for Active; 'I' for Inactive)
REMARK    1  A    between atoms: O_1  and  C_2
REMARK    2  A    between atoms: C_8  and  O_10
REMARK    3  A    between atoms: C_11  and  O_13
REMARK    4  A    between atoms: C_14  and  O_16
REMARK                            x       y       z     vdW  Elec       q    Type
REMARK                         _______ _______ _______ _____ _____    ______ ____
ROOT
ATOM      1  C   UNL     1       7.559  -4.803  25.967  0.00  0.00    +0.135 C 
ATOM      2  C   UNL     1       7.236  -5.037  24.489  0.00  0.00    +0.116 C 
ATOM      3  N   UNL     1       7.528  -3.726  23.865  0.00  0.00    -0.292 NA
ATOM      4  C   UNL     1       7.557  -3.862  22.405  0.00  0.00    +0.118 C 
ATOM      5  C   UNL     1       6.192  -4.366  21.864  0.00  0.00    +0.159 C 
ATOM      6  C   UNL     1       5.647  -5.591  22.643  0.00  0.00    +0.174 C 
ATOM      7  C   UNL     1       8.794  -3.330  24.474  0.00  0.00    +0.087 C 
ATOM      8  C   UNL     1       5.789  -5.425  24.174  0.00  0.00    +0.165 C 
ATOM      9  C   UNL     1       8.549  -3.631  25.952  0.00  0.00    +0.048 C 
ENDROOT
BRANCH   1  10
ATOM     10  O   UNL     1       8.187  -5.954  26.527  0.00  0.00    -0.390 OA
ATOM     11  H   UNL     1       7.784  -6.732  26.106  0.00  0.00    +0.210 HD
ENDBRANCH   1  10
BRANCH   6  12
ATOM     12  O   UNL     1       6.341  -6.773  22.222  0.00  0.00    -0.387 OA
ATOM     13  H   UNL     1       5.765  -7.530  22.430  0.00  0.00    +0.210 HD
ENDBRANCH   6  12
BRANCH   5  14
ATOM     14  O   UNL     1       5.222  -3.312  21.906  0.00  0.00    -0.388 OA
ATOM     15  H   UNL     1       4.820  -3.322  22.792  0.00  0.00    +0.210 HD
ENDBRANCH   5  14
BRANCH   8  16
ATOM     16  O   UNL     1       4.886  -4.417  24.651  0.00  0.00    -0.388 OA
ATOM     17  H   UNL     1       4.636  -4.711  25.554  0.00  0.00    +0.210 HD
ENDBRANCH   8  16
TORSDOF 4
ENDMDL
