MODEL 1
REMARK VINA RESULT:      -7.9      0.000      0.000
REMARK  Name = 
REMARK  20 active torsions:
REMARK  status: ('A' for Active; 'I' for Inactive)
REMARK    1  A    between atoms: C_2  and  C_4
REMARK    2  A    between atoms: N_6  and  C_10
REMARK    3  A    between atoms: C_13  and  C_15
REMARK    4  A    between atoms: C_15  and  O_16
REMARK    5  A    between atoms: O_16  and  P_17
REMARK    6  A    between atoms: P_17  and  O_18
REMARK    7  A    between atoms: P_17  and  O_20
REMARK    8  A    between atoms: O_20  and  P_21
REMARK    9  A    between atoms: P_21  and  O_22
REMARK   10  A    between atoms: P_21  and  O_24
REMARK   11  A    between atoms: O_24  and  C_25
REMARK   12  A    between atoms: C_25  and  C_26
REMARK   13  A    between atoms: C_29  and  N_41
REMARK   14  A    between atoms: C_31  and  O_33
REMARK   15  A    between atoms: O_33  and  P_34
REMARK   16  A    between atoms: P_34  and  O_35
REMARK   17  A    between atoms: P_34  and  O_36
REMARK   18  A    between atoms: C_38  and  O_40
REMARK   19  A    between atoms: C_51  and  O_53
REMARK   20  A    between atoms: C_54  and  O_56
REMARK                            x       y       z     vdW  Elec       q    Type
REMARK                         _______ _______ _______ _____ _____    ______ ____
ROOT
ATOM      1  P   UNL     1       7.630  -3.002  22.421  0.00  0.00    +0.483 P 
ATOM      2  O   UNL     1       6.797  -2.077  23.303  0.00  0.00    -0.227 OA
ENDROOT
BRANCH   1   3
ATOM      3  O   UNL     1       7.945  -4.304  23.357  0.00  0.00    -0.302 OA
ATOM      4  H   UNL     1       8.918  -4.372  23.434  0.00  0.00    +0.222 HD
ENDBRANCH   1   3
BRANCH   1   5
ATOM      5  O   UNL     1       6.180  -3.728  21.817  0.00  0.00    -0.284 OA
BRANCH   5   6
ATOM      6  C   UNL     1       6.117  -5.162  21.795  0.00  0.00    +0.206 C 
BRANCH   6   7
ATOM      7  C   UNL     1       4.856  -5.621  22.522  0.00  0.00    +0.178 C 
ATOM      8  C   UNL     1       5.198  -6.479  23.734  0.00  0.00    +0.179 C 
ATOM      9  C   UNL     1       5.246  -5.512  24.925  0.00  0.00    +0.211 C 
ATOM     10  C   UNL     1       4.790  -4.178  24.321  0.00  0.00    +0.254 C 
ATOM     11  O   UNL     1       4.172  -4.478  23.051  0.00  0.00    -0.346 OA
BRANCH  10  12
ATOM     12  N   UNL     1       3.808  -3.501  25.134  0.00  0.00    -0.285 N 
ATOM     13  C   UNL     1       4.073  -2.431  25.939  0.00  0.00    +0.167 A 
ATOM     14  N   UNL     1       5.253  -1.836  26.153  0.00  0.00    -0.216 NA
ATOM     15  C   UNL     1       5.116  -0.795  26.994  0.00  0.00    +0.225 A 
ATOM     16  N   UNL     1       3.993  -0.350  27.602  0.00  0.00    -0.219 NA
ATOM     17  C   UNL     1       2.826  -0.989  27.341  0.00  0.00    +0.147 A 
ATOM     18  N   UNL     1       1.670  -0.525  27.944  0.00  0.00    -0.341 N 
ATOM     19  H   UNL     1       0.917  -1.202  27.966  0.00  0.00    +0.144 HD
ATOM     20  H   UNL     1       1.849   0.017  28.780  0.00  0.00    +0.144 HD
ATOM     21  C   UNL     1       2.844  -2.086  26.479  0.00  0.00    +0.147 A 
ATOM     22  N   UNL     1       1.859  -2.955  26.045  0.00  0.00    -0.231 NA
ATOM     23  C   UNL     1       2.470  -3.770  25.215  0.00  0.00    +0.203 A 
ENDBRANCH  10  12
BRANCH   8  24
ATOM     24  O   UNL     1       4.191  -7.462  23.996  0.00  0.00    -0.386 OA
ATOM     25  H   UNL     1       3.641  -7.575  23.199  0.00  0.00    +0.210 HD
ENDBRANCH   8  24
BRANCH   9  26
ATOM     26  O   UNL     1       6.537  -5.423  25.544  0.00  0.00    -0.276 OA
BRANCH  26  27
ATOM     27  P   UNL     1       6.423  -5.299  27.266  0.00  0.00    +0.473 P 
ATOM     28  O   UNL     1       6.322  -5.188  28.808  0.00  0.00    -0.228 OA
BRANCH  27  29
ATOM     29  O   UNL     1       7.854  -6.099  27.303  0.00  0.00    -0.303 OA
ATOM     30  H   UNL     1       7.764  -6.847  27.924  0.00  0.00    +0.222 HD
ENDBRANCH  27  29
BRANCH  27  31
ATOM     31  O   UNL     1       7.082  -3.811  27.078  0.00  0.00    -0.303 OA
ATOM     32  H   UNL     1       7.982  -3.857  26.716  0.00  0.00    +0.222 HD
ENDBRANCH  27  31
ENDBRANCH  26  27
ENDBRANCH   9  26
ENDBRANCH   6   7
ENDBRANCH   5   6
ENDBRANCH   1   5
BRANCH   1  33
ATOM     33  O   UNL     1       9.079  -2.275  23.024  0.00  0.00    -0.186 OA
BRANCH  33  34
ATOM     34  P   UNL     1       8.795  -1.656  24.615  0.00  0.00    +0.483 P 
ATOM     35  O   UNL     1       9.269  -2.942  25.285  0.00  0.00    -0.227 OA
BRANCH  34  36
ATOM     36  O   UNL     1       8.510  -1.036  26.205  0.00  0.00    -0.302 OA
ATOM     37  H   UNL     1       7.616  -0.645  26.201  0.00  0.00    +0.222 HD
ENDBRANCH  34  36
BRANCH  34  38
ATOM     38  O   UNL     1      10.132  -0.694  24.478  0.00  0.00    -0.284 OA
BRANCH  38  39
ATOM     39  C   UNL     1      10.404  -0.110  23.210  0.00  0.00    +0.206 C 
BRANCH  39  43
ATOM     40  C   UNL     1       7.966   2.461  24.009  0.00  0.00    +0.241 C 
ATOM     41  C   UNL     1       7.270   1.850  22.774  0.00  0.00    +0.193 C 
ATOM     42  C   UNL     1       8.344   0.959  22.140  0.00  0.00    +0.178 C 
ATOM     43  C   UNL     1       9.582   1.161  23.021  0.00  0.00    +0.178 C 
ATOM     44  O   UNL     1       9.104   1.625  24.289  0.00  0.00    -0.348 OA
BRANCH  40  49
ATOM     45  C   UNL     1      10.215   5.455  23.810  0.00  0.00    +0.032 C 
ATOM     46  C   UNL     1       9.272   6.624  23.882  0.00  0.00    +0.070 C 
ATOM     47  C   UNL     1       7.829   6.222  23.743  0.00  0.00    -0.007 C 
ATOM     48  C   UNL     1       7.471   4.931  23.740  0.00  0.00    +0.073 C 
ATOM     49  N   UNL     1       8.377   3.877  23.853  0.00  0.00    -0.285 N 
ATOM     50  C   UNL     1       9.740   4.194  23.791  0.00  0.00    +0.086 C 
BRANCH  45  54
ATOM     51  N   UNL     1      12.299   5.066  22.660  0.00  0.00    -0.326 N 
ATOM     52  H   UNL     1      11.812   4.623  21.894  0.00  0.00    +0.145 HD
ATOM     53  H   UNL     1      13.289   5.248  22.562  0.00  0.00    +0.145 HD
ATOM     54  C   UNL     1      11.679   5.662  23.712  0.00  0.00    +0.239 C 
ATOM     55  O   UNL     1      12.317   6.331  24.514  0.00  0.00    -0.271 OA
ENDBRANCH  45  54
ENDBRANCH  40  49
BRANCH  42  56
ATOM     56  O   UNL     1       8.602   1.347  20.791  0.00  0.00    -0.386 OA
ATOM     57  H   UNL     1       7.978   2.070  20.580  0.00  0.00    +0.210 HD
ENDBRANCH  42  56
BRANCH  41  58
ATOM     58  O   UNL     1       6.132   1.044  23.157  0.00  0.00    -0.385 OA
ATOM     59  H   UNL     1       6.004   0.353  22.485  0.00  0.00    +0.210 HD
ENDBRANCH  41  58
ENDBRANCH  39  43
ENDBRANCH  38  39
ENDBRANCH  34  38
ENDBRANCH  33  34
ENDBRANCH   1  33
TORSDOF 20
ENDMDL
MODEL 2
REMARK VINA RESULT:      -7.9      2.867      9.258
REMARK  Name = 
REMARK  20 active torsions:
REMARK  status: ('A' for Active; 'I' for Inactive)
REMARK    1  A    between atoms: C_2  and  C_4
REMARK    2  A    between atoms: N_6  and  C_10
REMARK    3  A    between atoms: C_13  and  C_15
REMARK    4  A    between atoms: C_15  and  O_16
REMARK    5  A    between atoms: O_16  and  P_17
REMARK    6  A    between atoms: P_17  and  O_18
REMARK    7  A    between atoms: P_17  and  O_20
REMARK    8  A    between atoms: O_20  and  P_21
REMARK    9  A    between atoms: P_21  and  O_22
REMARK   10  A    between atoms: P_21  and  O_24
REMARK   11  A    between atoms: O_24  and  C_25
REMARK   12  A    between atoms: C_25  and  C_26
REMARK   13  A    between atoms: C_29  and  N_41
REMARK   14  A    between atoms: C_31  and  O_33
REMARK   15  A    between atoms: O_33  and  P_34
REMARK   16  A    between atoms: P_34  and  O_35
REMARK   17  A    between atoms: P_34  and  O_36
REMARK   18  A    between atoms: C_38  and  O_40
REMARK   19  A    between atoms: C_51  and  O_53
REMARK   20  A    between atoms: C_54  and  O_56
REMARK                            x       y       z     vdW  Elec       q    Type
REMARK                         _______ _______ _______ _____ _____    ______ ____
ROOT
ATOM      1  P   UNL     1       8.319  -4.491  24.745  0.00  0.00    +0.483 P 
ATOM      2  O   UNL     1       9.772  -4.937  24.873  0.00  0.00    -0.227 OA
ENDROOT
BRANCH   1   3
ATOM      3  O   UNL     1       7.460  -5.620  25.556  0.00  0.00    -0.302 OA
ATOM      4  H   UNL     1       7.457  -5.355  26.498  0.00  0.00    +0.222 HD
ENDBRANCH   1   3
BRANCH   1   5
ATOM      5  O   UNL     1       8.490  -3.527  26.172  0.00  0.00    -0.284 OA
BRANCH   5   6
ATOM      6  C   UNL     1       8.031  -2.169  26.112  0.00  0.00    +0.206 C 
BRANCH   6   7
ATOM      7  C   UNL     1       8.062  -1.690  24.663  0.00  0.00    +0.178 C 
ATOM      8  C   UNL     1       6.760  -0.994  24.283  0.00  0.00    +0.179 C 
ATOM      9  C   UNL     1       7.003   0.501  24.534  0.00  0.00    +0.211 C 
ATOM     10  C   UNL     1       8.487   0.564  24.915  0.00  0.00    +0.254 C 
ATOM     11  O   UNL     1       9.079  -0.691  24.517  0.00  0.00    -0.346 OA
BRANCH  10  12
ATOM     12  N   UNL     1       9.197   1.618  24.230  0.00  0.00    -0.285 N 
ATOM     13  C   UNL     1       9.093   2.945  24.530  0.00  0.00    +0.167 A 
ATOM     14  N   UNL     1       8.318   3.519  25.460  0.00  0.00    -0.216 NA
ATOM     15  C   UNL     1       8.504   4.851  25.477  0.00  0.00    +0.225 A 
ATOM     16  N   UNL     1       9.317   5.595  24.695  0.00  0.00    -0.219 NA
ATOM     17  C   UNL     1      10.082   4.958  23.775  0.00  0.00    +0.147 A 
ATOM     18  N   UNL     1      10.932   5.712  22.985  0.00  0.00    -0.341 N 
ATOM     19  H   UNL     1      11.230   5.244  22.137  0.00  0.00    +0.144 HD
ATOM     20  H   UNL     1      10.656   6.684  22.922  0.00  0.00    +0.144 HD
ATOM     21  C   UNL     1       9.977   3.571  23.666  0.00  0.00    +0.147 A 
ATOM     22  N   UNL     1      10.576   2.647  22.828  0.00  0.00    -0.231 NA
ATOM     23  C   UNL     1      10.106   1.483  23.218  0.00  0.00    +0.203 A 
ENDBRANCH  10  12
BRANCH   8  24
ATOM     24  O   UNL     1       6.443  -1.170  22.899  0.00  0.00    -0.386 OA
ATOM     25  H   UNL     1       5.558  -1.572  22.824  0.00  0.00    +0.210 HD
ENDBRANCH   8  24
BRANCH   9  26
ATOM     26  O   UNL     1       6.151   1.063  25.543  0.00  0.00    -0.276 OA
BRANCH  26  27
ATOM     27  P   UNL     1       4.787   1.878  24.860  0.00  0.00    +0.473 P 
ATOM     28  O   UNL     1       3.565   2.608  24.248  0.00  0.00    -0.228 OA
BRANCH  27  29
ATOM     29  O   UNL     1       5.467   3.255  25.434  0.00  0.00    -0.303 OA
ATOM     30  H   UNL     1       5.298   3.966  24.787  0.00  0.00    +0.222 HD
ENDBRANCH  27  29
BRANCH  27  31
ATOM     31  O   UNL     1       5.634   1.859  23.458  0.00  0.00    -0.303 OA
ATOM     32  H   UNL     1       6.593   1.892  23.614  0.00  0.00    +0.222 HD
ENDBRANCH  27  31
ENDBRANCH  26  27
ENDBRANCH   9  26
ENDBRANCH   6   7
ENDBRANCH   5   6
ENDBRANCH   1   5
BRANCH   1  33
ATOM     33  O   UNL     1       8.148  -5.454  23.318  0.00  0.00    -0.186 OA
BRANCH  33  34
ATOM     34  P   UNL     1       7.103  -4.648  22.199  0.00  0.00    +0.483 P 
ATOM     35  O   UNL     1       6.584  -5.960  21.619  0.00  0.00    -0.227 OA
BRANCH  34  36
ATOM     36  O   UNL     1       6.059  -3.841  21.081  0.00  0.00    -0.302 OA
ATOM     37  H   UNL     1       5.858  -2.965  21.461  0.00  0.00    +0.222 HD
ENDBRANCH  34  36
BRANCH  34  38
ATOM     38  O   UNL     1       6.079  -4.260  23.437  0.00  0.00    -0.284 OA
BRANCH  38  39
ATOM     39  C   UNL     1       4.686  -4.205  23.155  0.00  0.00    +0.206 C 
BRANCH  39  43
ATOM     40  C   UNL     1       3.740  -7.141  25.074  0.00  0.00    +0.241 C 
ATOM     41  C   UNL     1       2.452  -6.978  24.240  0.00  0.00    +0.193 C 
ATOM     42  C   UNL     1       2.584  -5.586  23.613  0.00  0.00    +0.178 C 
ATOM     43  C   UNL     1       3.903  -5.036  24.168  0.00  0.00    +0.178 C 
ATOM     44  O   UNL     1       4.677  -6.173  24.567  0.00  0.00    -0.348 OA
BRANCH  40  49
ATOM     45  C   UNL     1       4.635  -6.768  28.697  0.00  0.00    +0.032 C 
ATOM     46  C   UNL     1       3.334  -6.991  29.417  0.00  0.00    +0.070 C 
ATOM     47  C   UNL     1       2.148  -7.013  28.493  0.00  0.00    -0.007 C 
ATOM     48  C   UNL     1       2.312  -7.012  27.163  0.00  0.00    +0.073 C 
ATOM     49  N   UNL     1       3.558  -6.982  26.538  0.00  0.00    -0.285 N 
ATOM     50  C   UNL     1       4.678  -6.767  27.350  0.00  0.00    +0.086 C 
BRANCH  45  54
ATOM     51  N   UNL     1       6.850  -7.455  29.360  0.00  0.00    -0.326 N 
ATOM     52  H   UNL     1       6.815  -8.238  28.723  0.00  0.00    +0.145 HD
ATOM     53  H   UNL     1       7.722  -7.252  29.828  0.00  0.00    +0.145 HD
ATOM     54  C   UNL     1       5.885  -6.502  29.446  0.00  0.00    +0.239 C 
ATOM     55  O   UNL     1       6.068  -5.488  30.108  0.00  0.00    -0.271 OA
ENDBRANCH  45  54
ENDBRANCH  40  49
BRANCH  42  56
ATOM     56  O   UNL     1       1.485  -4.752  23.978  0.00  0.00    -0.386 OA
ATOM     57  H   UNL     1       1.539  -3.951  23.419  0.00  0.00    +0.210 HD
ENDBRANCH  42  56
BRANCH  41  58
ATOM     58  O   UNL     1       2.370  -7.976  23.198  0.00  0.00    -0.385 OA
ATOM     59  H   UNL     1       3.274  -8.215  22.929  0.00  0.00    +0.210 HD
ENDBRANCH  41  58
ENDBRANCH  39  43
ENDBRANCH  38  39
ENDBRANCH  34  38
ENDBRANCH  33  34
ENDBRANCH   1  33
TORSDOF 20
ENDMDL
MODEL 3
REMARK VINA RESULT:      -7.8      2.856      4.657
REMARK  Name = 
REMARK  20 active torsions:
REMARK  status: ('A' for Active; 'I' for Inactive)
REMARK    1  A    between atoms: C_2  and  C_4
REMARK    2  A    between atoms: N_6  and  C_10
REMARK    3  A    between atoms: C_13  and  C_15
REMARK    4  A    between atoms: C_15  and  O_16
REMARK    5  A    between atoms: O_16  and  P_17
REMARK    6  A    between atoms: P_17  and  O_18
REMARK    7  A    between atoms: P_17  and  O_20
REMARK    8  A    between atoms: O_20  and  P_21
REMARK    9  A    between atoms: P_21  and  O_22
REMARK   10  A    between atoms: P_21  and  O_24
REMARK   11  A    between atoms: O_24  and  C_25
REMARK   12  A    between atoms: C_25  and  C_26
REMARK   13  A    between atoms: C_29  and  N_41
REMARK   14  A    between atoms: C_31  and  O_33
REMARK   15  A    between atoms: O_33  and  P_34
REMARK   16  A    between atoms: P_34  and  O_35
REMARK   17  A    between atoms: P_34  and  O_36
REMARK   18  A    between atoms: C_38  and  O_40
REMARK   19  A    between atoms: C_51  and  O_53
REMARK   20  A    between atoms: C_54  and  O_56
REMARK                            x       y       z     vdW  Elec       q    Type
REMARK                         _______ _______ _______ _____ _____    ______ ____
ROOT
ATOM      1  P   UNL     1       6.247   0.019  25.403  0.00  0.00    +0.483 P 
ATOM      2  O   UNL     1       6.053   0.674  24.039  0.00  0.00    -0.227 OA
ENDROOT
BRANCH   1   3
ATOM      3  O   UNL     1       4.819  -0.706  25.728  0.00  0.00    -0.302 OA
ATOM      4  H   UNL     1       5.006  -1.656  25.869  0.00  0.00    +0.222 HD
ENDBRANCH   1   3
BRANCH   1   5
ATOM      5  O   UNL     1       6.850  -1.407  24.631  0.00  0.00    -0.284 OA
BRANCH   5   6
ATOM      6  C   UNL     1       6.771  -1.469  23.199  0.00  0.00    +0.206 C 
BRANCH   6   7
ATOM      7  C   UNL     1       5.821  -2.594  22.796  0.00  0.00    +0.178 C 
ATOM      8  C   UNL     1       6.566  -3.720  22.088  0.00  0.00    +0.179 C 
ATOM      9  C   UNL     1       6.922  -4.734  23.184  0.00  0.00    +0.211 C 
ATOM     10  C   UNL     1       6.227  -4.171  24.431  0.00  0.00    +0.254 C 
ATOM     11  O   UNL     1       5.268  -3.193  23.976  0.00  0.00    -0.346 OA
BRANCH  10  12
ATOM     12  N   UNL     1       5.505  -5.177  25.173  0.00  0.00    -0.285 N 
ATOM     13  C   UNL     1       5.275  -5.134  26.517  0.00  0.00    +0.167 A 
ATOM     14  N   UNL     1       5.683  -4.204  27.390  0.00  0.00    -0.216 NA
ATOM     15  C   UNL     1       5.241  -4.489  28.629  0.00  0.00    +0.225 A 
ATOM     16  N   UNL     1       4.505  -5.548  29.034  0.00  0.00    -0.219 NA
ATOM     17  C   UNL     1       4.116  -6.454  28.103  0.00  0.00    +0.147 A 
ATOM     18  N   UNL     1       3.346  -7.529  28.508  0.00  0.00    -0.341 N 
ATOM     19  H   UNL     1       3.352  -8.308  27.860  0.00  0.00    +0.144 HD
ATOM     20  H   UNL     1       3.433  -7.730  29.496  0.00  0.00    +0.144 HD
ATOM     21  C   UNL     1       4.514  -6.261  26.779  0.00  0.00    +0.147 A 
ATOM     22  N   UNL     1       4.321  -6.999  25.624  0.00  0.00    -0.231 NA
ATOM     23  C   UNL     1       4.903  -6.300  24.677  0.00  0.00    +0.203 A 
ENDBRANCH  10  12
BRANCH   8  24
ATOM     24  O   UNL     1       5.745  -4.379  21.118  0.00  0.00    -0.386 OA
ATOM     25  H   UNL     1       5.775  -5.340  21.277  0.00  0.00    +0.210 HD
ENDBRANCH   8  24
BRANCH   9  26
ATOM     26  O   UNL     1       8.333  -4.909  23.373  0.00  0.00    -0.276 OA
BRANCH  26  27
ATOM     27  P   UNL     1       8.850  -4.376  24.936  0.00  0.00    +0.473 P 
ATOM     28  O   UNL     1       9.312  -3.899  26.335  0.00  0.00    -0.228 OA
BRANCH  27  29
ATOM     29  O   UNL     1       9.864  -5.664  24.913  0.00  0.00    -0.303 OA
ATOM     30  H   UNL     1      10.778  -5.329  24.987  0.00  0.00    +0.222 HD
ENDBRANCH  27  29
BRANCH  27  31
ATOM     31  O   UNL     1       9.856  -3.371  24.123  0.00  0.00    -0.303 OA
ATOM     32  H   UNL     1      10.481  -2.925  24.718  0.00  0.00    +0.222 HD
ENDBRANCH  27  31
ENDBRANCH  26  27
ENDBRANCH   9  26
ENDBRANCH   6   7
ENDBRANCH   5   6
ENDBRANCH   1   5
BRANCH   1  33
ATOM     33  O   UNL     1       5.646   1.445  26.175  0.00  0.00    -0.186 OA
BRANCH  33  34
ATOM     34  P   UNL     1       4.417   2.161  25.189  0.00  0.00    +0.483 P 
ATOM     35  O   UNL     1       3.292   1.467  25.951  0.00  0.00    -0.227 OA
BRANCH  34  36
ATOM     36  O   UNL     1       3.190   2.876  24.202  0.00  0.00    -0.302 OA
ATOM     37  H   UNL     1       3.381   3.832  24.159  0.00  0.00    +0.222 HD
ENDBRANCH  34  36
BRANCH  34  38
ATOM     38  O   UNL     1       4.655   3.611  25.947  0.00  0.00    -0.284 OA
BRANCH  38  39
ATOM     39  C   UNL     1       5.271   4.656  25.205  0.00  0.00    +0.206 C 
BRANCH  39  43
ATOM     40  C   UNL     1       8.195   4.198  23.098  0.00  0.00    +0.241 C 
ATOM     41  C   UNL     1       7.239   4.804  22.048  0.00  0.00    +0.193 C 
ATOM     42  C   UNL     1       5.862   4.752  22.720  0.00  0.00    +0.178 C 
ATOM     43  C   UNL     1       6.118   4.080  24.073  0.00  0.00    +0.178 C 
ATOM     44  O   UNL     1       7.508   4.269  24.361  0.00  0.00    -0.348 OA
BRANCH  40  49
ATOM     45  C   UNL     1       9.884   0.886  23.584  0.00  0.00    +0.032 C 
ATOM     46  C   UNL     1       9.801   0.233  22.232  0.00  0.00    +0.070 C 
ATOM     47  C   UNL     1       8.890   0.963  21.283  0.00  0.00    -0.007 C 
ATOM     48  C   UNL     1       8.379   2.160  21.604  0.00  0.00    +0.073 C 
ATOM     49  N   UNL     1       8.631   2.809  22.812  0.00  0.00    -0.285 N 
ATOM     50  C   UNL     1       9.312   2.086  23.799  0.00  0.00    +0.086 C 
BRANCH  45  54
ATOM     51  N   UNL     1       9.819  -0.724  25.379  0.00  0.00    -0.326 N 
ATOM     52  H   UNL     1       8.922  -1.064  25.062  0.00  0.00    +0.145 HD
ATOM     53  H   UNL     1      10.291  -1.225  26.119  0.00  0.00    +0.145 HD
ATOM     54  C   UNL     1      10.555   0.207  24.717  0.00  0.00    +0.239 C 
ATOM     55  O   UNL     1      11.707   0.447  25.056  0.00  0.00    -0.271 OA
ENDBRANCH  45  54
ENDBRANCH  40  49
BRANCH  42  56
ATOM     56  O   UNL     1       4.937   3.999  21.937  0.00  0.00    -0.386 OA
ATOM     57  H   UNL     1       4.246   3.674  22.549  0.00  0.00    +0.210 HD
ENDBRANCH  42  56
BRANCH  41  58
ATOM     58  O   UNL     1       7.585   6.176  21.753  0.00  0.00    -0.385 OA
ATOM     59  H   UNL     1       7.389   6.719  22.535  0.00  0.00    +0.210 HD
ENDBRANCH  41  58
ENDBRANCH  39  43
ENDBRANCH  38  39
ENDBRANCH  34  38
ENDBRANCH  33  34
ENDBRANCH   1  33
TORSDOF 20
ENDMDL
MODEL 4
REMARK VINA RESULT:      -7.8      3.201      9.915
REMARK  Name = 
REMARK  20 active torsions:
REMARK  status: ('A' for Active; 'I' for Inactive)
REMARK    1  A    between atoms: C_2  and  C_4
REMARK    2  A    between atoms: N_6  and  C_10
REMARK    3  A    between atoms: C_13  and  C_15
REMARK    4  A    between atoms: C_15  and  O_16
REMARK    5  A    between atoms: O_16  and  P_17
REMARK    6  A    between atoms: P_17  and  O_18
REMARK    7  A    between atoms: P_17  and  O_20
REMARK    8  A    between atoms: O_20  and  P_21
REMARK    9  A    between atoms: P_21  and  O_22
REMARK   10  A    between atoms: P_21  and  O_24
REMARK   11  A    between atoms: O_24  and  C_25
REMARK   12  A    between atoms: C_25  and  C_26
REMARK   13  A    between atoms: C_29  and  N_41
REMARK   14  A    between atoms: C_31  and  O_33
REMARK   15  A    between atoms: O_33  and  P_34
REMARK   16  A    between atoms: P_34  and  O_35
REMARK   17  A    between atoms: P_34  and  O_36
REMARK   18  A    between atoms: C_38  and  O_40
REMARK   19  A    between atoms: C_51  and  O_53
REMARK   20  A    between atoms: C_54  and  O_56
REMARK                            x       y       z     vdW  Elec       q    Type
REMARK                         _______ _______ _______ _____ _____    ______ ____
ROOT
ATOM      1  P   UNL     1       6.490   3.777  26.957  0.00  0.00    +0.483 P 
ATOM      2  O   UNL     1       6.013   4.075  28.374  0.00  0.00    -0.227 OA
ENDROOT
BRANCH   1   3
ATOM      3  O   UNL     1       5.157   3.259  26.165  0.00  0.00    -0.302 OA
ATOM      4  H   UNL     1       5.157   3.694  25.289  0.00  0.00    +0.222 HD
ENDBRANCH   1   3
BRANCH   1   5
ATOM      5  O   UNL     1       6.177   5.418  26.508  0.00  0.00    -0.284 OA
BRANCH   5   6
ATOM      6  C   UNL     1       7.237   6.144  25.869  0.00  0.00    +0.206 C 
BRANCH   6   7
ATOM      7  C   UNL     1       7.136   5.957  24.358  0.00  0.00    +0.178 C 
ATOM      8  C   UNL     1       8.354   6.536  23.646  0.00  0.00    +0.179 C 
ATOM      9  C   UNL     1       9.334   5.366  23.487  0.00  0.00    +0.211 C 
ATOM     10  C   UNL     1       8.539   4.161  24.003  0.00  0.00    +0.254 C 
ATOM     11  O   UNL     1       7.152   4.557  24.051  0.00  0.00    -0.346 OA
BRANCH  10  12
ATOM     12  N   UNL     1       8.634   3.012  23.134  0.00  0.00    -0.285 N 
ATOM     13  C   UNL     1       9.427   1.926  23.367  0.00  0.00    +0.167 A 
ATOM     14  N   UNL     1      10.268   1.728  24.391  0.00  0.00    -0.216 NA
ATOM     15  C   UNL     1      10.861   0.525  24.293  0.00  0.00    +0.225 A 
ATOM     16  N   UNL     1      10.711  -0.408  23.326  0.00  0.00    -0.219 NA
ATOM     17  C   UNL     1       9.841  -0.154  22.318  0.00  0.00    +0.147 A 
ATOM     18  N   UNL     1       9.667  -1.114  21.337  0.00  0.00    -0.341 N 
ATOM     19  H   UNL     1       9.266  -0.757  20.477  0.00  0.00    +0.144 HD
ATOM     20  H   UNL     1      10.446  -1.757  21.269  0.00  0.00    +0.144 HD
ATOM     21  C   UNL     1       9.163   1.065  22.315  0.00  0.00    +0.147 A 
ATOM     22  N   UNL     1       8.258   1.634  21.435  0.00  0.00    -0.231 NA
ATOM     23  C   UNL     1       7.941   2.788  21.977  0.00  0.00    +0.203 A 
ENDBRANCH  10  12
BRANCH   8  24
ATOM     24  O   UNL     1       8.028   7.029  22.342  0.00  0.00    -0.386 OA
ATOM     25  H   UNL     1       7.667   7.931  22.424  0.00  0.00    +0.210 HD
ENDBRANCH   8  24
BRANCH   9  26
ATOM     26  O   UNL     1      10.572   5.550  24.187  0.00  0.00    -0.276 OA
BRANCH  26  27
ATOM     27  P   UNL     1      11.929   5.566  23.114  0.00  0.00    +0.473 P 
ATOM     28  O   UNL     1      13.143   5.579  22.153  0.00  0.00    -0.228 OA
BRANCH  27  29
ATOM     29  O   UNL     1      12.806   6.044  24.413  0.00  0.00    -0.303 OA
ATOM     30  H   UNL     1      12.203   6.104  25.178  0.00  0.00    +0.222 HD
ENDBRANCH  27  29
BRANCH  27  31
ATOM     31  O   UNL     1      12.041   3.963  23.432  0.00  0.00    -0.303 OA
ATOM     32  H   UNL     1      11.167   3.557  23.560  0.00  0.00    +0.222 HD
ENDBRANCH  27  31
ENDBRANCH  26  27
ENDBRANCH   9  26
ENDBRANCH   6   7
ENDBRANCH   5   6
ENDBRANCH   1   5
BRANCH   1  33
ATOM     33  O   UNL     1       6.803   2.136  27.406  0.00  0.00    -0.186 OA
BRANCH  33  34
ATOM     34  P   UNL     1       5.763   1.083  26.511  0.00  0.00    +0.483 P 
ATOM     35  O   UNL     1       6.619   1.180  25.252  0.00  0.00    -0.227 OA
BRANCH  34  36
ATOM     36  O   UNL     1       4.721   0.031  25.616  0.00  0.00    -0.302 OA
ATOM     37  H   UNL     1       3.915   0.540  25.407  0.00  0.00    +0.222 HD
ENDBRANCH  34  36
BRANCH  34  38
ATOM     38  O   UNL     1       6.344  -0.211  27.358  0.00  0.00    -0.284 OA
BRANCH  38  39
ATOM     39  C   UNL     1       7.544  -0.822  26.898  0.00  0.00    +0.206 C 
BRANCH  39  43
ATOM     40  C   UNL     1       7.943  -4.124  25.437  0.00  0.00    +0.241 C 
ATOM     41  C   UNL     1       8.211  -3.273  24.177  0.00  0.00    +0.193 C 
ATOM     42  C   UNL     1       7.761  -1.863  24.574  0.00  0.00    +0.178 C 
ATOM     43  C   UNL     1       7.225  -2.015  26.002  0.00  0.00    +0.178 C 
ATOM     44  O   UNL     1       7.830  -3.199  26.535  0.00  0.00    -0.348 OA
BRANCH  40  49
ATOM     45  C   UNL     1       5.265  -6.512  26.529  0.00  0.00    +0.032 C 
ATOM     46  C   UNL     1       4.625  -6.954  25.242  0.00  0.00    +0.070 C 
ATOM     47  C   UNL     1       5.064  -6.136  24.058  0.00  0.00    -0.007 C 
ATOM     48  C   UNL     1       6.057  -5.243  24.169  0.00  0.00    +0.073 C 
ATOM     49  N   UNL     1       6.744  -4.994  25.356  0.00  0.00    -0.285 N 
ATOM     50  C   UNL     1       6.245  -5.588  26.522  0.00  0.00    +0.086 C 
BRANCH  45  54
ATOM     51  N   UNL     1       3.461  -7.086  28.022  0.00  0.00    -0.326 N 
ATOM     52  H   UNL     1       2.782  -6.907  27.296  0.00  0.00    +0.145 HD
ATOM     53  H   UNL     1       3.143  -7.498  28.889  0.00  0.00    +0.145 HD
ATOM     54  C   UNL     1       4.805  -7.048  27.832  0.00  0.00    +0.239 C 
ATOM     55  O   UNL     1       5.570  -7.445  28.702  0.00  0.00    -0.271 OA
ENDBRANCH  45  54
ENDBRANCH  40  49
BRANCH  42  56
ATOM     56  O   UNL     1       6.748  -1.380  23.693  0.00  0.00    -0.386 OA
ATOM     57  H   UNL     1       6.100  -2.104  23.581  0.00  0.00    +0.210 HD
ENDBRANCH  42  56
BRANCH  41  58
ATOM     58  O   UNL     1       9.617  -3.260  23.842  0.00  0.00    -0.385 OA
ATOM     59  H   UNL     1      10.130  -3.283  24.668  0.00  0.00    +0.210 HD
ENDBRANCH  41  58
ENDBRANCH  39  43
ENDBRANCH  38  39
ENDBRANCH  34  38
ENDBRANCH  33  34
ENDBRANCH   1  33
TORSDOF 20
ENDMDL
MODEL 5
REMARK VINA RESULT:      -7.8      2.923      8.701
REMARK  Name = 
REMARK  20 active torsions:
REMARK  status: ('A' for Active; 'I' for Inactive)
REMARK    1  A    between atoms: C_2  and  C_4
REMARK    2  A    between atoms: N_6  and  C_10
REMARK    3  A    between atoms: C_13  and  C_15
REMARK    4  A    between atoms: C_15  and  O_16
REMARK    5  A    between atoms: O_16  and  P_17
REMARK    6  A    between atoms: P_17  and  O_18
REMARK    7  A    between atoms: P_17  and  O_20
REMARK    8  A    between atoms: O_20  and  P_21
REMARK    9  A    between atoms: P_21  and  O_22
REMARK   10  A    between atoms: P_21  and  O_24
REMARK   11  A    between atoms: O_24  and  C_25
REMARK   12  A    between atoms: C_25  and  C_26
REMARK   13  A    between atoms: C_29  and  N_41
REMARK   14  A    between atoms: C_31  and  O_33
REMARK   15  A    between atoms: O_33  and  P_34
REMARK   16  A    between atoms: P_34  and  O_35
REMARK   17  A    between atoms: P_34  and  O_36
REMARK   18  A    between atoms: C_38  and  O_40
REMARK   19  A    between atoms: C_51  and  O_53
REMARK   20  A    between atoms: C_54  and  O_56
REMARK                            x       y       z     vdW  Elec       q    Type
REMARK                         _______ _______ _______ _____ _____    ______ ____
ROOT
ATOM      1  P   UNL     1       5.215  -3.599  27.830  0.00  0.00    +0.483 P 
ATOM      2  O   UNL     1       4.289  -3.051  26.751  0.00  0.00    -0.227 OA
ENDROOT
BRANCH   1   3
ATOM      3  O   UNL     1       5.482  -5.155  27.405  0.00  0.00    -0.302 OA
ATOM      4  H   UNL     1       4.940  -5.711  28.000  0.00  0.00    +0.222 HD
ENDBRANCH   1   3
BRANCH   1   5
ATOM      5  O   UNL     1       6.588  -3.066  26.922  0.00  0.00    -0.284 OA
BRANCH   5   6
ATOM      6  C   UNL     1       6.420  -1.912  26.085  0.00  0.00    +0.206 C 
BRANCH   6   7
ATOM      7  C   UNL     1       7.231  -0.753  26.659  0.00  0.00    +0.178 C 
ATOM      8  C   UNL     1       8.724  -1.059  26.639  0.00  0.00    +0.179 C 
ATOM      9  C   UNL     1       9.250  -0.466  25.324  0.00  0.00    +0.211 C 
ATOM     10  C   UNL     1       8.030   0.263  24.748  0.00  0.00    +0.254 C 
ATOM     11  O   UNL     1       7.072   0.398  25.819  0.00  0.00    -0.346 OA
BRANCH  10  12
ATOM     12  N   UNL     1       8.342   1.590  24.272  0.00  0.00    -0.285 N 
ATOM     13  C   UNL     1       7.495   2.373  23.544  0.00  0.00    +0.167 A 
ATOM     14  N   UNL     1       6.263   2.070  23.113  0.00  0.00    -0.216 NA
ATOM     15  C   UNL     1       5.726   3.106  22.445  0.00  0.00    +0.225 A 
ATOM     16  N   UNL     1       6.279   4.310  22.178  0.00  0.00    -0.219 NA
ATOM     17  C   UNL     1       7.526   4.562  22.646  0.00  0.00    +0.147 A 
ATOM     18  N   UNL     1       8.089   5.800  22.393  0.00  0.00    -0.341 N 
ATOM     19  H   UNL     1       9.098   5.821  22.485  0.00  0.00    +0.144 HD
ATOM     20  H   UNL     1       7.672   6.272  21.601  0.00  0.00    +0.144 HD
ATOM     21  C   UNL     1       8.185   3.560  23.358  0.00  0.00    +0.147 A 
ATOM     22  N   UNL     1       9.445   3.485  23.925  0.00  0.00    -0.231 NA
ATOM     23  C   UNL     1       9.490   2.300  24.491  0.00  0.00    +0.203 A 
ENDBRANCH  10  12
BRANCH   8  24
ATOM     24  O   UNL     1       9.416  -0.429  27.722  0.00  0.00    -0.386 OA
ATOM     25  H   UNL     1       8.764  -0.006  28.312  0.00  0.00    +0.210 HD
ENDBRANCH   8  24
BRANCH   9  26
ATOM     26  O   UNL     1       9.784  -1.444  24.421  0.00  0.00    -0.276 OA
BRANCH  26  27
ATOM     27  P   UNL     1       9.490  -1.030  22.767  0.00  0.00    +0.473 P 
ATOM     28  O   UNL     1       9.226  -0.659  21.287  0.00  0.00    -0.228 OA
BRANCH  27  29
ATOM     29  O   UNL     1      10.860  -1.866  22.434  0.00  0.00    -0.303 OA
ATOM     30  H   UNL     1      10.713  -2.797  22.686  0.00  0.00    +0.222 HD
ENDBRANCH  27  29
BRANCH  27  31
ATOM     31  O   UNL     1       8.501  -2.336  22.746  0.00  0.00    -0.303 OA
ATOM     32  H   UNL     1       8.638  -2.881  21.954  0.00  0.00    +0.222 HD
ENDBRANCH  27  31
ENDBRANCH  26  27
ENDBRANCH   9  26
ENDBRANCH   6   7
ENDBRANCH   5   6
ENDBRANCH   1   5
BRANCH   1  33
ATOM     33  O   UNL     1       3.843  -4.132  28.739  0.00  0.00    -0.186 OA
BRANCH  33  34
ATOM     34  P   UNL     1       3.789  -5.861  28.743  0.00  0.00    +0.483 P 
ATOM     35  O   UNL     1       2.980  -5.911  30.035  0.00  0.00    -0.227 OA
BRANCH  34  36
ATOM     36  O   UNL     1       3.736  -7.590  28.745  0.00  0.00    -0.302 OA
ATOM     37  H   UNL     1       2.798  -7.846  28.656  0.00  0.00    +0.222 HD
ENDBRANCH  34  36
BRANCH  34  38
ATOM     38  O   UNL     1       2.683  -5.828  27.514  0.00  0.00    -0.284 OA
BRANCH  38  39
ATOM     39  C   UNL     1       2.528  -7.002  26.727  0.00  0.00    +0.206 C 
BRANCH  39  43
ATOM     40  C   UNL     1       3.693  -5.243  23.770  0.00  0.00    +0.241 C 
ATOM     41  C   UNL     1       2.612  -6.125  23.110  0.00  0.00    +0.193 C 
ATOM     42  C   UNL     1       2.255  -7.153  24.190  0.00  0.00    +0.178 C 
ATOM     43  C   UNL     1       3.186  -6.820  25.362  0.00  0.00    +0.178 C 
ATOM     44  O   UNL     1       3.578  -5.453  25.189  0.00  0.00    -0.348 OA
BRANCH  40  49
ATOM     45  C   UNL     1       7.441  -5.369  23.822  0.00  0.00    +0.032 C 
ATOM     46  C   UNL     1       7.814  -5.680  22.399  0.00  0.00    +0.070 C 
ATOM     47  C   UNL     1       6.633  -6.077  21.556  0.00  0.00    -0.007 C 
ATOM     48  C   UNL     1       5.383  -5.972  22.029  0.00  0.00    +0.073 C 
ATOM     49  N   UNL     1       5.078  -5.508  23.308  0.00  0.00    -0.285 N 
ATOM     50  C   UNL     1       6.146  -5.309  24.191  0.00  0.00    +0.086 C 
BRANCH  45  54
ATOM     51  N   UNL     1       8.193  -5.636  26.097  0.00  0.00    -0.326 N 
ATOM     52  H   UNL     1       7.395  -6.218  26.310  0.00  0.00    +0.145 HD
ATOM     53  H   UNL     1       8.922  -5.546  26.791  0.00  0.00    +0.145 HD
ATOM     54  C   UNL     1       8.483  -5.167  24.856  0.00  0.00    +0.239 C 
ATOM     55  O   UNL     1       9.553  -4.617  24.631  0.00  0.00    -0.271 OA
ENDBRANCH  45  54
ENDBRANCH  40  49
BRANCH  42  56
ATOM     56  O   UNL     1       2.471  -8.484  23.723  0.00  0.00    -0.386 OA
ATOM     57  H   UNL     1       1.801  -8.654  23.031  0.00  0.00    +0.210 HD
ENDBRANCH  42  56
BRANCH  41  58
ATOM     58  O   UNL     1       1.440  -5.352  22.768  0.00  0.00    -0.385 OA
ATOM     59  H   UNL     1       0.670  -5.743  23.217  0.00  0.00    +0.210 HD
ENDBRANCH  41  58
ENDBRANCH  39  43
ENDBRANCH  38  39
ENDBRANCH  34  38
ENDBRANCH  33  34
ENDBRANCH   1  33
TORSDOF 20
ENDMDL
MODEL 6
REMARK VINA RESULT:      -7.7      3.066      6.819
REMARK  Name = 
REMARK  20 active torsions:
REMARK  status: ('A' for Active; 'I' for Inactive)
REMARK    1  A    between atoms: C_2  and  C_4
REMARK    2  A    between atoms: N_6  and  C_10
REMARK    3  A    between atoms: C_13  and  C_15
REMARK    4  A    between atoms: C_15  and  O_16
REMARK    5  A    between atoms: O_16  and  P_17
REMARK    6  A    between atoms: P_17  and  O_18
REMARK    7  A    between atoms: P_17  and  O_20
REMARK    8  A    between atoms: O_20  and  P_21
REMARK    9  A    between atoms: P_21  and  O_22
REMARK   10  A    between atoms: P_21  and  O_24
REMARK   11  A    between atoms: O_24  and  C_25
REMARK   12  A    between atoms: C_25  and  C_26
REMARK   13  A    between atoms: C_29  and  N_41
REMARK   14  A    between atoms: C_31  and  O_33
REMARK   15  A    between atoms: O_33  and  P_34
REMARK   16  A    between atoms: P_34  and  O_35
REMARK   17  A    between atoms: P_34  and  O_36
REMARK   18  A    between atoms: C_38  and  O_40
REMARK   19  A    between atoms: C_51  and  O_53
REMARK   20  A    between atoms: C_54  and  O_56
REMARK                            x       y       z     vdW  Elec       q    Type
REMARK                         _______ _______ _______ _____ _____    ______ ____
ROOT
ATOM      1  P   UNL     1       3.994  -3.635  27.665  0.00  0.00    +0.483 P 
ATOM      2  O   UNL     1       3.655  -3.274  26.223  0.00  0.00    -0.227 OA
ENDROOT
BRANCH   1   3
ATOM      3  O   UNL     1       5.607  -3.400  27.790  0.00  0.00    -0.302 OA
ATOM      4  H   UNL     1       5.949  -4.084  28.401  0.00  0.00    +0.222 HD
ENDBRANCH   1   3
BRANCH   1   5
ATOM      5  O   UNL     1       3.672  -2.004  28.147  0.00  0.00    -0.284 OA
BRANCH   5   6
ATOM      6  C   UNL     1       4.564  -0.985  27.672  0.00  0.00    +0.206 C 
BRANCH   6   7
ATOM      7  C   UNL     1       3.748   0.162  27.081  0.00  0.00    +0.178 C 
ATOM      8  C   UNL     1       3.819   1.403  27.964  0.00  0.00    +0.179 C 
ATOM      9  C   UNL     1       4.972   2.246  27.400  0.00  0.00    +0.211 C 
ATOM     10  C   UNL     1       5.392   1.479  26.139  0.00  0.00    +0.254 C 
ATOM     11  O   UNL     1       4.326   0.557  25.829  0.00  0.00    -0.346 OA
BRANCH  10  12
ATOM     12  N   UNL     1       5.570   2.340  24.994  0.00  0.00    -0.285 N 
ATOM     13  C   UNL     1       6.711   3.034  24.716  0.00  0.00    +0.167 A 
ATOM     14  N   UNL     1       7.839   3.083  25.436  0.00  0.00    -0.216 NA
ATOM     15  C   UNL     1       8.758   3.857  24.830  0.00  0.00    +0.225 A 
ATOM     16  N   UNL     1       8.643   4.544  23.671  0.00  0.00    -0.219 NA
ATOM     17  C   UNL     1       7.479   4.451  22.982  0.00  0.00    +0.147 A 
ATOM     18  N   UNL     1       7.363   5.136  21.786  0.00  0.00    -0.341 N 
ATOM     19  H   UNL     1       6.406   5.283  21.486  0.00  0.00    +0.144 HD
ATOM     20  H   UNL     1       8.012   5.908  21.706  0.00  0.00    +0.144 HD
ATOM     21  C   UNL     1       6.450   3.672  23.514  0.00  0.00    +0.147 A 
ATOM     22  N   UNL     1       5.160   3.405  23.090  0.00  0.00    -0.231 NA
ATOM     23  C   UNL     1       4.675   2.577  23.988  0.00  0.00    +0.203 A 
ENDBRANCH  10  12
BRANCH   8  24
ATOM     24  O   UNL     1       2.619   2.180  27.892  0.00  0.00    -0.386 OA
ATOM     25  H   UNL     1       2.730   2.874  27.216  0.00  0.00    +0.210 HD
ENDBRANCH   8  24
BRANCH   9  26
ATOM     26  O   UNL     1       6.057   2.428  28.320  0.00  0.00    -0.276 OA
BRANCH  26  27
ATOM     27  P   UNL     1       6.059   4.014  29.013  0.00  0.00    +0.473 P 
ATOM     28  O   UNL     1       6.061   5.432  29.634  0.00  0.00    -0.228 OA
BRANCH  27  29
ATOM     29  O   UNL     1       7.372   4.298  28.074  0.00  0.00    -0.303 OA
ATOM     30  H   UNL     1       7.080   4.808  27.295  0.00  0.00    +0.222 HD
ENDBRANCH  27  29
BRANCH  27  31
ATOM     31  O   UNL     1       4.958   4.385  27.859  0.00  0.00    -0.303 OA
ATOM     32  H   UNL     1       5.380   4.715  27.049  0.00  0.00    +0.222 HD
ENDBRANCH  27  31
ENDBRANCH  26  27
ENDBRANCH   9  26
ENDBRANCH   6   7
ENDBRANCH   5   6
ENDBRANCH   1   5
BRANCH   1  33
ATOM     33  O   UNL     1       4.315  -5.265  27.184  0.00  0.00    -0.186 OA
BRANCH  33  34
ATOM     34  P   UNL     1       5.979  -5.637  27.481  0.00  0.00    +0.483 P 
ATOM     35  O   UNL     1       5.693  -7.124  27.668  0.00  0.00    -0.227 OA
BRANCH  34  36
ATOM     36  O   UNL     1       7.642  -6.008  27.779  0.00  0.00    -0.302 OA
ATOM     37  H   UNL     1       8.167  -5.490  27.140  0.00  0.00    +0.222 HD
ENDBRANCH  34  36
BRANCH  34  38
ATOM     38  O   UNL     1       6.309  -5.435  25.874  0.00  0.00    -0.284 OA
BRANCH  38  39
ATOM     39  C   UNL     1       7.649  -5.134  25.504  0.00  0.00    +0.206 C 
BRANCH  39  43
ATOM     40  C   UNL     1       7.074  -1.567  25.125  0.00  0.00    +0.241 C 
ATOM     41  C   UNL     1       6.262  -2.069  23.912  0.00  0.00    +0.193 C 
ATOM     42  C   UNL     1       6.679  -3.536  23.762  0.00  0.00    +0.178 C 
ATOM     43  C   UNL     1       7.727  -3.754  24.858  0.00  0.00    +0.178 C 
ATOM     44  O   UNL     1       7.496  -2.741  25.844  0.00  0.00    -0.348 OA
BRANCH  40  49
ATOM     45  C   UNL     1       9.281   0.711  23.126  0.00  0.00    +0.032 C 
ATOM     46  C   UNL     1      10.580   0.717  23.884  0.00  0.00    +0.070 C 
ATOM     47  C   UNL     1      10.471   0.071  25.239  0.00  0.00    -0.007 C 
ATOM     48  C   UNL     1       9.359  -0.583  25.601  0.00  0.00    +0.073 C 
ATOM     49  N   UNL     1       8.236  -0.711  24.785  0.00  0.00    -0.285 N 
ATOM     50  C   UNL     1       8.218   0.033  23.598  0.00  0.00    +0.086 C 
BRANCH  45  54
ATOM     51  N   UNL     1      10.161   2.303  21.543  0.00  0.00    -0.326 N 
ATOM     52  H   UNL     1      11.053   2.307  22.018  0.00  0.00    +0.145 HD
ATOM     53  H   UNL     1      10.082   2.793  20.662  0.00  0.00    +0.145 HD
ATOM     54  C   UNL     1       9.129   1.484  21.871  0.00  0.00    +0.239 C 
ATOM     55  O   UNL     1       8.143   1.404  21.149  0.00  0.00    -0.271 OA
ENDBRANCH  45  54
ENDBRANCH  40  49
BRANCH  42  56
ATOM     56  O   UNL     1       7.227  -3.784  22.468  0.00  0.00    -0.386 OA
ATOM     57  H   UNL     1       6.598  -3.412  21.817  0.00  0.00    +0.210 HD
ENDBRANCH  42  56
BRANCH  41  58
ATOM     58  O   UNL     1       4.841  -1.989  24.162  0.00  0.00    -0.385 OA
ATOM     59  H   UNL     1       4.533  -1.101  23.910  0.00  0.00    +0.210 HD
ENDBRANCH  41  58
ENDBRANCH  39  43
ENDBRANCH  38  39
ENDBRANCH  34  38
ENDBRANCH  33  34
ENDBRANCH   1  33
TORSDOF 20
ENDMDL
MODEL 7
REMARK VINA RESULT:      -7.6      2.913      4.943
REMARK  Name = 
REMARK  20 active torsions:
REMARK  status: ('A' for Active; 'I' for Inactive)
REMARK    1  A    between atoms: C_2  and  C_4
REMARK    2  A    between atoms: N_6  and  C_10
REMARK    3  A    between atoms: C_13  and  C_15
REMARK    4  A    between atoms: C_15  and  O_16
REMARK    5  A    between atoms: O_16  and  P_17
REMARK    6  A    between atoms: P_17  and  O_18
REMARK    7  A    between atoms: P_17  and  O_20
REMARK    8  A    between atoms: O_20  and  P_21
REMARK    9  A    between atoms: P_21  and  O_22
REMARK   10  A    between atoms: P_21  and  O_24
REMARK   11  A    between atoms: O_24  and  C_25
REMARK   12  A    between atoms: C_25  and  C_26
REMARK   13  A    between atoms: C_29  and  N_41
REMARK   14  A    between atoms: C_31  and  O_33
REMARK   15  A    between atoms: O_33  and  P_34
REMARK   16  A    between atoms: P_34  and  O_35
REMARK   17  A    between atoms: P_34  and  O_36
REMARK   18  A    between atoms: C_38  and  O_40
REMARK   19  A    between atoms: C_51  and  O_53
REMARK   20  A    between atoms: C_54  and  O_56
REMARK                            x       y       z     vdW  Elec       q    Type
REMARK                         _______ _______ _______ _____ _____    ______ ____
ROOT
ATOM      1  P   UNL     1       5.828  -0.163  26.237  0.00  0.00    +0.483 P 
ATOM      2  O   UNL     1       4.365  -0.526  26.011  0.00  0.00    -0.227 OA
ENDROOT
BRANCH   1   3
ATOM      3  O   UNL     1       6.565  -1.580  26.584  0.00  0.00    -0.302 OA
ATOM      4  H   UNL     1       6.060  -2.284  26.127  0.00  0.00    +0.222 HD
ENDBRANCH   1   3
BRANCH   1   5
ATOM      5  O   UNL     1       6.138  -0.360  24.547  0.00  0.00    -0.284 OA
BRANCH   5   6
ATOM      6  C   UNL     1       6.827  -1.550  24.134  0.00  0.00    +0.206 C 
BRANCH   6   7
ATOM      7  C   UNL     1       5.842  -2.489  23.443  0.00  0.00    +0.178 C 
ATOM      8  C   UNL     1       6.562  -3.460  22.515  0.00  0.00    +0.179 C 
ATOM      9  C   UNL     1       6.813  -4.722  23.352  0.00  0.00    +0.211 C 
ATOM     10  C   UNL     1       6.089  -4.426  24.671  0.00  0.00    +0.254 C 
ATOM     11  O   UNL     1       5.204  -3.313  24.428  0.00  0.00    -0.346 OA
BRANCH  10  12
ATOM     12  N   UNL     1       5.282  -5.533  25.129  0.00  0.00    -0.285 N 
ATOM     13  C   UNL     1       4.215  -6.047  24.452  0.00  0.00    +0.167 A 
ATOM     14  N   UNL     1       3.700  -5.626  23.289  0.00  0.00    -0.216 NA
ATOM     15  C   UNL     1       2.661  -6.398  22.923  0.00  0.00    +0.225 A 
ATOM     16  N   UNL     1       2.128  -7.454  23.577  0.00  0.00    -0.219 NA
ATOM     17  C   UNL     1       2.697  -7.838  24.747  0.00  0.00    +0.147 A 
ATOM     18  N   UNL     1       2.169  -8.931  25.411  0.00  0.00    -0.341 N 
ATOM     19  H   UNL     1       2.417  -8.976  26.392  0.00  0.00    +0.144 HD
ATOM     20  H   UNL     1       1.210  -9.128  25.152  0.00  0.00    +0.144 HD
ATOM     21  C   UNL     1       3.786  -7.111  25.228  0.00  0.00    +0.147 A 
ATOM     22  N   UNL     1       4.551  -7.217  26.376  0.00  0.00    -0.231 NA
ATOM     23  C   UNL     1       5.458  -6.272  26.265  0.00  0.00    +0.203 A 
ENDBRANCH  10  12
BRANCH   8  24
ATOM     24  O   UNL     1       5.756  -3.822  21.389  0.00  0.00    -0.386 OA
ATOM     25  H   UNL     1       5.301  -3.027  21.054  0.00  0.00    +0.210 HD
ENDBRANCH   8  24
BRANCH   9  26
ATOM     26  O   UNL     1       8.203  -5.022  23.542  0.00  0.00    -0.276 OA
BRANCH  26  27
ATOM     27  P   UNL     1       8.742  -4.616  25.135  0.00  0.00    +0.473 P 
ATOM     28  O   UNL     1       9.225  -4.252  26.560  0.00  0.00    -0.228 OA
BRANCH  27  29
ATOM     29  O   UNL     1       9.663  -5.970  25.044  0.00  0.00    -0.303 OA
ATOM     30  H   UNL     1       9.602  -6.314  24.133  0.00  0.00    +0.222 HD
ENDBRANCH  27  29
BRANCH  27  31
ATOM     31  O   UNL     1       9.825  -3.641  24.385  0.00  0.00    -0.303 OA
ATOM     32  H   UNL     1       9.400  -2.856  24.001  0.00  0.00    +0.222 HD
ENDBRANCH  27  31
ENDBRANCH  26  27
ENDBRANCH   9  26
ENDBRANCH   6   7
ENDBRANCH   5   6
ENDBRANCH   1   5
BRANCH   1  33
ATOM     33  O   UNL     1       5.519   0.036  27.927  0.00  0.00    -0.186 OA
BRANCH  33  34
ATOM     34  P   UNL     1       6.554   1.267  28.563  0.00  0.00    +0.483 P 
ATOM     35  O   UNL     1       7.728   0.842  27.686  0.00  0.00    -0.227 OA
BRANCH  34  36
ATOM     36  O   UNL     1       7.589   2.498  29.201  0.00  0.00    -0.302 OA
ATOM     37  H   UNL     1       8.086   2.870  28.448  0.00  0.00    +0.222 HD
ENDBRANCH  34  36
BRANCH  34  38
ATOM     38  O   UNL     1       5.729   2.408  27.698  0.00  0.00    -0.284 OA
BRANCH  38  39
ATOM     39  C   UNL     1       6.404   3.619  27.379  0.00  0.00    +0.206 C 
BRANCH  39  43
ATOM     40  C   UNL     1       8.624   3.930  24.521  0.00  0.00    +0.241 C 
ATOM     41  C   UNL     1       7.720   5.152  24.253  0.00  0.00    +0.193 C 
ATOM     42  C   UNL     1       6.536   4.960  25.208  0.00  0.00    +0.178 C 
ATOM     43  C   UNL     1       6.819   3.628  25.911  0.00  0.00    +0.178 C 
ATOM     44  O   UNL     1       8.231   3.407  25.803  0.00  0.00    -0.348 OA
BRANCH  40  49
ATOM     45  C   UNL     1       9.396   0.724  22.735  0.00  0.00    +0.032 C 
ATOM     46  C   UNL     1       8.775   0.905  21.377  0.00  0.00    +0.070 C 
ATOM     47  C   UNL     1       7.883   2.114  21.297  0.00  0.00    -0.007 C 
ATOM     48  C   UNL     1       7.829   2.997  22.304  0.00  0.00    +0.073 C 
ATOM     49  N   UNL     1       8.565   2.873  23.481  0.00  0.00    -0.285 N 
ATOM     50  C   UNL     1       9.258   1.673  23.681  0.00  0.00    +0.086 C 
BRANCH  45  54
ATOM     51  N   UNL     1      10.280  -1.420  22.073  0.00  0.00    -0.326 N 
ATOM     52  H   UNL     1      10.048  -1.235  21.108  0.00  0.00    +0.145 HD
ATOM     53  H   UNL     1      10.826  -2.243  22.289  0.00  0.00    +0.145 HD
ATOM     54  C   UNL     1      10.131  -0.517  23.077  0.00  0.00    +0.239 C 
ATOM     55  O   UNL     1      10.593  -0.738  24.189  0.00  0.00    -0.271 OA
ENDBRANCH  45  54
ENDBRANCH  40  49
BRANCH  42  56
ATOM     56  O   UNL     1       5.302   4.913  24.492  0.00  0.00    -0.386 OA
ATOM     57  H   UNL     1       5.493   4.502  23.625  0.00  0.00    +0.210 HD
ENDBRANCH  42  56
BRANCH  41  58
ATOM     58  O   UNL     1       8.402   6.388  24.564  0.00  0.00    -0.385 OA
ATOM     59  H   UNL     1       7.885   6.863  25.238  0.00  0.00    +0.210 HD
ENDBRANCH  41  58
ENDBRANCH  39  43
ENDBRANCH  38  39
ENDBRANCH  34  38
ENDBRANCH  33  34
ENDBRANCH   1  33
TORSDOF 20
ENDMDL
MODEL 8
REMARK VINA RESULT:      -7.5      2.999      8.916
REMARK  Name = 
REMARK  20 active torsions:
REMARK  status: ('A' for Active; 'I' for Inactive)
REMARK    1  A    between atoms: C_2  and  C_4
REMARK    2  A    between atoms: N_6  and  C_10
REMARK    3  A    between atoms: C_13  and  C_15
REMARK    4  A    between atoms: C_15  and  O_16
REMARK    5  A    between atoms: O_16  and  P_17
REMARK    6  A    between atoms: P_17  and  O_18
REMARK    7  A    between atoms: P_17  and  O_20
REMARK    8  A    between atoms: O_20  and  P_21
REMARK    9  A    between atoms: P_21  and  O_22
REMARK   10  A    between atoms: P_21  and  O_24
REMARK   11  A    between atoms: O_24  and  C_25
REMARK   12  A    between atoms: C_25  and  C_26
REMARK   13  A    between atoms: C_29  and  N_41
REMARK   14  A    between atoms: C_31  and  O_33
REMARK   15  A    between atoms: O_33  and  P_34
REMARK   16  A    between atoms: P_34  and  O_35
REMARK   17  A    between atoms: P_34  and  O_36
REMARK   18  A    between atoms: C_38  and  O_40
REMARK   19  A    between atoms: C_51  and  O_53
REMARK   20  A    between atoms: C_54  and  O_56
REMARK                            x       y       z     vdW  Elec       q    Type
REMARK                         _______ _______ _______ _____ _____    ______ ____
ROOT
ATOM      1  P   UNL     1       5.485  -3.448  27.753  0.00  0.00    +0.483 P 
ATOM      2  O   UNL     1       4.535  -2.861  26.715  0.00  0.00    -0.227 OA
ENDROOT
BRANCH   1   3
ATOM      3  O   UNL     1       5.755  -4.981  27.257  0.00  0.00    -0.302 OA
ATOM      4  H   UNL     1       6.463  -5.346  27.826  0.00  0.00    +0.222 HD
ENDBRANCH   1   3
BRANCH   1   5
ATOM      5  O   UNL     1       6.837  -2.865  26.844  0.00  0.00    -0.284 OA
BRANCH   5   6
ATOM      6  C   UNL     1       6.824  -1.485  26.448  0.00  0.00    +0.206 C 
BRANCH   6   7
ATOM      7  C   UNL     1       7.343  -1.367  25.018  0.00  0.00    +0.178 C 
ATOM      8  C   UNL     1       6.271  -0.817  24.084  0.00  0.00    +0.179 C 
ATOM      9  C   UNL     1       6.499   0.700  24.041  0.00  0.00    +0.211 C 
ATOM     10  C   UNL     1       7.784   0.891  24.855  0.00  0.00    +0.254 C 
ATOM     11  O   UNL     1       8.406  -0.405  24.978  0.00  0.00    -0.346 OA
BRANCH  10  12
ATOM     12  N   UNL     1       8.731   1.770  24.210  0.00  0.00    -0.285 N 
ATOM     13  C   UNL     1       8.872   3.098  24.489  0.00  0.00    +0.167 A 
ATOM     14  N   UNL     1       8.168   3.834  25.359  0.00  0.00    -0.216 NA
ATOM     15  C   UNL     1       8.612   5.103  25.376  0.00  0.00    +0.225 A 
ATOM     16  N   UNL     1       9.605   5.655  24.643  0.00  0.00    -0.219 NA
ATOM     17  C   UNL     1      10.287   4.859  23.783  0.00  0.00    +0.147 A 
ATOM     18  N   UNL     1      11.317   5.413  23.045  0.00  0.00    -0.341 N 
ATOM     19  H   UNL     1      11.571   4.877  22.224  0.00  0.00    +0.144 HD
ATOM     20  H   UNL     1      11.244   6.419  22.954  0.00  0.00    +0.144 HD
ATOM     21  C   UNL     1       9.916   3.518  23.680  0.00  0.00    +0.147 A 
ATOM     22  N   UNL     1      10.373   2.475  22.894  0.00  0.00    -0.231 NA
ATOM     23  C   UNL     1       9.659   1.436  23.263  0.00  0.00    +0.203 A 
ENDBRANCH  10  12
BRANCH   8  24
ATOM     24  O   UNL     1       6.405  -1.329  22.754  0.00  0.00    -0.386 OA
ATOM     25  H   UNL     1       6.085  -2.249  22.733  0.00  0.00    +0.210 HD
ENDBRANCH   8  24
BRANCH   9  26
ATOM     26  O   UNL     1       5.400   1.464  24.557  0.00  0.00    -0.276 OA
BRANCH  26  27
ATOM     27  P   UNL     1       5.072   2.862  23.592  0.00  0.00    +0.473 P 
ATOM     28  O   UNL     1       4.778   4.114  22.728  0.00  0.00    -0.228 OA
BRANCH  27  29
ATOM     29  O   UNL     1       3.488   2.525  23.848  0.00  0.00    -0.303 OA
ATOM     30  H   UNL     1       3.163   3.123  24.547  0.00  0.00    +0.222 HD
ENDBRANCH  27  29
BRANCH  27  31
ATOM     31  O   UNL     1       5.276   3.713  24.977  0.00  0.00    -0.303 OA
ATOM     32  H   UNL     1       5.611   3.155  25.699  0.00  0.00    +0.222 HD
ENDBRANCH  27  31
ENDBRANCH  26  27
ENDBRANCH   9  26
ENDBRANCH   6   7
ENDBRANCH   5   6
ENDBRANCH   1   5
BRANCH   1  33
ATOM     33  O   UNL     1       4.134  -4.030  28.663  0.00  0.00    -0.186 OA
BRANCH  33  34
ATOM     34  P   UNL     1       4.127  -5.760  28.643  0.00  0.00    +0.483 P 
ATOM     35  O   UNL     1       3.427  -5.850  29.995  0.00  0.00    -0.227 OA
BRANCH  34  36
ATOM     36  O   UNL     1       4.121  -7.490  28.622  0.00  0.00    -0.302 OA
ATOM     37  H   UNL     1       4.981  -7.772  28.258  0.00  0.00    +0.222 HD
ENDBRANCH  34  36
BRANCH  34  38
ATOM     38  O   UNL     1       2.925  -5.741  27.508  0.00  0.00    -0.284 OA
BRANCH  38  39
ATOM     39  C   UNL     1       2.740  -6.908  26.716  0.00  0.00    +0.206 C 
BRANCH  39  43
ATOM     40  C   UNL     1       3.786  -5.138  23.721  0.00  0.00    +0.241 C 
ATOM     41  C   UNL     1       2.709  -6.049  23.094  0.00  0.00    +0.193 C 
ATOM     42  C   UNL     1       2.405  -7.078  24.188  0.00  0.00    +0.178 C 
ATOM     43  C   UNL     1       3.357  -6.718  25.334  0.00  0.00    +0.178 C 
ATOM     44  O   UNL     1       3.713  -5.344  25.144  0.00  0.00    -0.348 OA
BRANCH  40  49
ATOM     45  C   UNL     1       7.536  -5.153  23.665  0.00  0.00    +0.032 C 
ATOM     46  C   UNL     1       7.877  -5.487  22.239  0.00  0.00    +0.070 C 
ATOM     47  C   UNL     1       6.685  -5.940  21.442  0.00  0.00    -0.007 C 
ATOM     48  C   UNL     1       5.447  -5.860  21.949  0.00  0.00    +0.073 C 
ATOM     49  N   UNL     1       5.164  -5.373  23.225  0.00  0.00    -0.285 N 
ATOM     50  C   UNL     1       6.252  -5.122  24.071  0.00  0.00    +0.086 C 
BRANCH  45  54
ATOM     51  N   UNL     1       8.434  -5.474  25.880  0.00  0.00    -0.326 N 
ATOM     52  H   UNL     1       7.721  -6.159  26.087  0.00  0.00    +0.145 HD
ATOM     53  H   UNL     1       9.183  -5.343  26.545  0.00  0.00    +0.145 HD
ATOM     54  C   UNL     1       8.601  -4.895  24.663  0.00  0.00    +0.239 C 
ATOM     55  O   UNL     1       9.587  -4.209  24.429  0.00  0.00    -0.271 OA
ENDBRANCH  45  54
ENDBRANCH  40  49
BRANCH  42  56
ATOM     56  O   UNL     1       2.639  -8.407  23.722  0.00  0.00    -0.386 OA
ATOM     57  H   UNL     1       2.277  -9.013  24.399  0.00  0.00    +0.210 HD
ENDBRANCH  42  56
BRANCH  41  58
ATOM     58  O   UNL     1       1.511  -5.304  22.779  0.00  0.00    -0.385 OA
ATOM     59  H   UNL     1       1.325  -5.409  21.830  0.00  0.00    +0.210 HD
ENDBRANCH  41  58
ENDBRANCH  39  43
ENDBRANCH  38  39
ENDBRANCH  34  38
ENDBRANCH  33  34
ENDBRANCH   1  33
TORSDOF 20
ENDMDL
MODEL 9
REMARK VINA RESULT:      -7.4      2.025      3.467
REMARK  Name = 
REMARK  20 active torsions:
REMARK  status: ('A' for Active; 'I' for Inactive)
REMARK    1  A    between atoms: C_2  and  C_4
REMARK    2  A    between atoms: N_6  and  C_10
REMARK    3  A    between atoms: C_13  and  C_15
REMARK    4  A    between atoms: C_15  and  O_16
REMARK    5  A    between atoms: O_16  and  P_17
REMARK    6  A    between atoms: P_17  and  O_18
REMARK    7  A    between atoms: P_17  and  O_20
REMARK    8  A    between atoms: O_20  and  P_21
REMARK    9  A    between atoms: P_21  and  O_22
REMARK   10  A    between atoms: P_21  and  O_24
REMARK   11  A    between atoms: O_24  and  C_25
REMARK   12  A    between atoms: C_25  and  C_26
REMARK   13  A    between atoms: C_29  and  N_41
REMARK   14  A    between atoms: C_31  and  O_33
REMARK   15  A    between atoms: O_33  and  P_34
REMARK   16  A    between atoms: P_34  and  O_35
REMARK   17  A    between atoms: P_34  and  O_36
REMARK   18  A    between atoms: C_38  and  O_40
REMARK   19  A    between atoms: C_51  and  O_53
REMARK   20  A    between atoms: C_54  and  O_56
REMARK                            x       y       z     vdW  Elec       q    Type
REMARK                         _______ _______ _______ _____ _____    ______ ____
ROOT
ATOM      1  P   UNL     1       6.457  -4.132  21.843  0.00  0.00    +0.483 P 
ATOM      2  O   UNL     1       5.253  -3.198  21.903  0.00  0.00    -0.227 OA
ENDROOT
BRANCH   1   3
ATOM      3  O   UNL     1       6.956  -4.275  23.392  0.00  0.00    -0.302 OA
ATOM      4  H   UNL     1       6.432  -3.641  23.922  0.00  0.00    +0.222 HD
ENDBRANCH   1   3
BRANCH   1   5
ATOM      5  O   UNL     1       5.405  -5.496  22.005  0.00  0.00    -0.284 OA
BRANCH   5   6
ATOM      6  C   UNL     1       5.566  -6.322  23.168  0.00  0.00    +0.206 C 
BRANCH   6   7
ATOM      7  C   UNL     1       4.214  -6.494  23.855  0.00  0.00    +0.178 C 
ATOM      8  C   UNL     1       4.336  -7.351  25.109  0.00  0.00    +0.179 C 
ATOM      9  C   UNL     1       4.532  -6.363  26.268  0.00  0.00    +0.211 C 
ATOM     10  C   UNL     1       4.370  -4.992  25.599  0.00  0.00    +0.254 C 
ATOM     11  O   UNL     1       3.751  -5.218  24.315  0.00  0.00    -0.346 OA
BRANCH  10  12
ATOM     12  N   UNL     1       3.513  -4.102  26.347  0.00  0.00    -0.285 N 
ATOM     13  C   UNL     1       3.692  -2.753  26.443  0.00  0.00    +0.167 A 
ATOM     14  N   UNL     1       4.675  -2.015  25.912  0.00  0.00    -0.216 NA
ATOM     15  C   UNL     1       4.502  -0.713  26.203  0.00  0.00    +0.225 A 
ATOM     16  N   UNL     1       3.521  -0.140  26.935  0.00  0.00    -0.219 NA
ATOM     17  C   UNL     1       2.549  -0.938  27.442  0.00  0.00    +0.147 A 
ATOM     18  N   UNL     1       1.531  -0.355  28.176  0.00  0.00    -0.341 N 
ATOM     19  H   UNL     1       1.030  -1.002  28.772  0.00  0.00    +0.144 HD
ATOM     20  H   UNL     1       1.784   0.548  28.557  0.00  0.00    +0.144 HD
ATOM     21  C   UNL     1       2.622  -2.310  27.203  0.00  0.00    +0.147 A 
ATOM     22  N   UNL     1       1.831  -3.375  27.598  0.00  0.00    -0.231 NA
ATOM     23  C   UNL     1       2.380  -4.429  27.038  0.00  0.00    +0.203 A 
ENDBRANCH  10  12
BRANCH   8  24
ATOM     24  O   UNL     1       3.145  -8.106  25.361  0.00  0.00    -0.386 OA
ATOM     25  H   UNL     1       3.392  -9.015  25.612  0.00  0.00    +0.210 HD
ENDBRANCH   8  24
BRANCH   9  26
ATOM     26  O   UNL     1       5.792  -6.503  26.939  0.00  0.00    -0.276 OA
BRANCH  26  27
ATOM     27  P   UNL     1       6.802  -5.116  26.719  0.00  0.00    +0.473 P 
ATOM     28  O   UNL     1       7.706  -3.874  26.521  0.00  0.00    -0.228 OA
BRANCH  27  29
ATOM     29  O   UNL     1       6.446  -4.752  28.277  0.00  0.00    -0.303 OA
ATOM     30  H   UNL     1       6.563  -5.562  28.809  0.00  0.00    +0.222 HD
ENDBRANCH  27  29
BRANCH  27  31
ATOM     31  O   UNL     1       8.046  -6.120  27.074  0.00  0.00    -0.303 OA
ATOM     32  H   UNL     1       8.907  -5.681  26.969  0.00  0.00    +0.222 HD
ENDBRANCH  27  31
ENDBRANCH  26  27
ENDBRANCH   9  26
ENDBRANCH   6   7
ENDBRANCH   5   6
ENDBRANCH   1   5
BRANCH   1  33
ATOM     33  O   UNL     1       7.508  -2.769  21.679  0.00  0.00    -0.186 OA
BRANCH  33  34
ATOM     34  P   UNL     1       8.451  -2.590  23.119  0.00  0.00    +0.483 P 
ATOM     35  O   UNL     1       9.557  -1.830  22.394  0.00  0.00    -0.227 OA
BRANCH  34  36
ATOM     36  O   UNL     1       9.392  -2.413  24.559  0.00  0.00    -0.302 OA
ATOM     37  H   UNL     1       8.897  -1.816  25.151  0.00  0.00    +0.222 HD
ENDBRANCH  34  36
BRANCH  34  38
ATOM     38  O   UNL     1       7.394  -1.443  23.667  0.00  0.00    -0.284 OA
BRANCH  38  39
ATOM     39  C   UNL     1       7.874  -0.494  24.612  0.00  0.00    +0.206 C 
BRANCH  39  43
ATOM     40  C   UNL     1       7.391   2.100  22.116  0.00  0.00    +0.241 C 
ATOM     41  C   UNL     1       8.866   2.384  22.471  0.00  0.00    +0.193 C 
ATOM     42  C   UNL     1       9.110   1.568  23.744  0.00  0.00    +0.178 C 
ATOM     43  C   UNL     1       7.755   0.921  24.054  0.00  0.00    +0.178 C 
ATOM     44  O   UNL     1       7.029   0.898  22.820  0.00  0.00    -0.348 OA
BRANCH  40  49
ATOM     45  C   UNL     1       4.142   3.865  22.740  0.00  0.00    +0.032 C 
ATOM     46  C   UNL     1       4.512   5.322  22.734  0.00  0.00    +0.070 C 
ATOM     47  C   UNL     1       5.999   5.550  22.753  0.00  0.00    -0.007 C 
ATOM     48  C   UNL     1       6.853   4.527  22.606  0.00  0.00    +0.073 C 
ATOM     49  N   UNL     1       6.451   3.203  22.436  0.00  0.00    -0.285 N 
ATOM     50  C   UNL     1       5.090   2.918  22.604  0.00  0.00    +0.086 C 
BRANCH  45  54
ATOM     51  N   UNL     1       2.133   2.852  21.871  0.00  0.00    -0.326 N 
ATOM     52  H   UNL     1       2.617   2.578  21.028  0.00  0.00    +0.145 HD
ATOM     53  H   UNL     1       1.192   2.513  22.019  0.00  0.00    +0.145 HD
ATOM     54  C   UNL     1       2.737   3.437  22.938  0.00  0.00    +0.239 C 
ATOM     55  O   UNL     1       2.133   3.584  23.993  0.00  0.00    -0.271 OA
ENDBRANCH  45  54
ENDBRANCH  40  49
BRANCH  42  56
ATOM     56  O   UNL     1       9.537   2.406  24.818  0.00  0.00    -0.386 OA
ATOM     57  H   UNL     1       8.733   2.811  25.199  0.00  0.00    +0.210 HD
ENDBRANCH  42  56
BRANCH  41  58
ATOM     58  O   UNL     1       9.755   1.932  21.424  0.00  0.00    -0.385 OA
ATOM     59  H   UNL     1       9.220   1.704  20.644  0.00  0.00    +0.210 HD
ENDBRANCH  41  58
ENDBRANCH  39  43
ENDBRANCH  38  39
ENDBRANCH  34  38
ENDBRANCH  33  34
ENDBRANCH   1  33
TORSDOF 20
ENDMDL
