MODEL 1
REMARK VINA RESULT:      -5.6      0.000      0.000
REMARK  Name = 
REMARK  5 active torsions:
REMARK  status: ('A' for Active; 'I' for Inactive)
REMARK    1  A    between atoms: CA_2  and  CB_3
REMARK    2  A    between atoms: CA_2  and  N_10
REMARK    3  A    between atoms: CA_2  and  C_14
REMARK    4  A    between atoms: CB_3  and  CG_4
REMARK    5  A    between atoms: C_14  and  O_15
REMARK                            x       y       z     vdW  Elec       q    Type
REMARK                         _______ _______ _______ _____ _____    ______ ____
ROOT
ATOM      1  CA  PHE A   1       9.256  -2.571  24.133  0.00  0.00    +0.187 C 
ENDROOT
BRANCH   1   2
ATOM      2  N   PHE A   1       9.588  -3.962  24.459  0.00  0.00    -0.286 N 
ATOM      3  H   PHE A   1      10.247  -4.433  23.849  0.00  0.00    +0.151 HD
ATOM      4  C   UNK A   0       9.331  -4.516  25.665  0.00  0.00    +0.298 C 
ATOM      5  O   UNK A   0       8.765  -3.954  26.590  0.00  0.00    -0.253 OA
ATOM      6  N   UNK A   0       9.775  -5.794  25.757  0.00  0.00    -0.313 N 
ATOM      7  H   UNK A   0       9.501  -6.271  26.607  0.00  0.00    +0.146 HD
ATOM      8  H   UNK A   0       9.783  -6.361  24.923  0.00  0.00    +0.146 HD
ENDBRANCH   1   2
BRANCH   1   9
ATOM      9  C   PHE A   1       7.834  -2.636  23.570  0.00  0.00    +0.326 C 
ATOM     10  OXT PHE A   1       7.585  -2.879  22.395  0.00  0.00    -0.249 OA
BRANCH   9  11
ATOM     11  O   PHE A   1       6.854  -2.509  24.495  0.00  0.00    -0.479 OA
ATOM     12  H   PHE A   1       6.649  -3.326  24.987  0.00  0.00    +0.295 HD
ENDBRANCH   9  11
ENDBRANCH   1   9
BRANCH   1  13
ATOM     13  CB  PHE A   1      10.216  -1.942  23.104  0.00  0.00    +0.069 C 
BRANCH  13  14
ATOM     14  CG  PHE A   1      10.218  -0.427  23.020  0.00  0.00    -0.045 A 
ATOM     15  CD2 PHE A   1      10.620   0.316  24.143  0.00  0.00    +0.004 A 
ATOM     16  CE2 PHE A   1      10.644   1.713  24.109  0.00  0.00    +0.000 A 
ATOM     17  CZ  PHE A   1      10.263   2.389  22.953  0.00  0.00    +0.000 A 
ATOM     18  CE1 PHE A   1       9.827   1.669  21.844  0.00  0.00    +0.000 A 
ATOM     19  CD1 PHE A   1       9.782   0.273  21.886  0.00  0.00    +0.004 A 
ENDBRANCH  13  14
ENDBRANCH   1  13
TORSDOF 5
ENDMDL
MODEL 2
REMARK VINA RESULT:      -5.6      0.161      1.253
REMARK  Name = 
REMARK  5 active torsions:
REMARK  status: ('A' for Active; 'I' for Inactive)
REMARK    1  A    between atoms: CA_2  and  CB_3
REMARK    2  A    between atoms: CA_2  and  N_10
REMARK    3  A    between atoms: CA_2  and  C_14
REMARK    4  A    between atoms: CB_3  and  CG_4
REMARK    5  A    between atoms: C_14  and  O_15
REMARK                            x       y       z     vdW  Elec       q    Type
REMARK                         _______ _______ _______ _____ _____    ______ ____
ROOT
ATOM      1  CA  PHE A   1       9.292  -2.582  24.244  0.00  0.00    +0.187 C 
ENDROOT
BRANCH   1   2
ATOM      2  N   PHE A   1       9.594  -3.996  24.490  0.00  0.00    -0.286 N 
ATOM      3  H   PHE A   1      10.224  -4.452  23.840  0.00  0.00    +0.151 HD
ATOM      4  C   UNK A   0       9.352  -4.605  25.673  0.00  0.00    +0.298 C 
ATOM      5  O   UNK A   0       8.825  -4.077  26.639  0.00  0.00    -0.253 OA
ATOM      6  N   UNK A   0       9.764  -5.897  25.688  0.00  0.00    -0.313 N 
ATOM      7  H   UNK A   0       9.498  -6.409  26.520  0.00  0.00    +0.146 HD
ATOM      8  H   UNK A   0       9.735  -6.420  24.826  0.00  0.00    +0.146 HD
ENDBRANCH   1   2
BRANCH   1   9
ATOM      9  C   PHE A   1       7.826  -2.573  23.803  0.00  0.00    +0.326 C 
ATOM     10  OXT PHE A   1       7.460  -2.882  22.675  0.00  0.00    -0.249 OA
BRANCH   9  11
ATOM     11  O   PHE A   1       6.941  -2.297  24.788  0.00  0.00    -0.479 OA
ATOM     12  H   PHE A   1       7.039  -1.413  25.189  0.00  0.00    +0.295 HD
ENDBRANCH   9  11
ENDBRANCH   1   9
BRANCH   1  13
ATOM     13  CB  PHE A   1      10.186  -1.949  23.160  0.00  0.00    +0.069 C 
BRANCH  13  14
ATOM     14  CG  PHE A   1      10.208  -0.433  23.103  0.00  0.00    -0.045 A 
ATOM     15  CD2 PHE A   1       9.804   0.210  21.921  0.00  0.00    +0.004 A 
ATOM     16  CE2 PHE A   1       9.802   1.603  21.825  0.00  0.00    +0.000 A 
ATOM     17  CZ  PHE A   1      10.206   2.378  22.909  0.00  0.00    +0.000 A 
ATOM     18  CE1 PHE A   1      10.645   1.756  24.075  0.00  0.00    +0.000 A 
ATOM     19  CD1 PHE A   1      10.669   0.362  24.162  0.00  0.00    +0.004 A 
ENDBRANCH  13  14
ENDBRANCH   1  13
TORSDOF 5
ENDMDL
MODEL 3
REMARK VINA RESULT:      -5.4      2.302      3.718
REMARK  Name = 
REMARK  5 active torsions:
REMARK  status: ('A' for Active; 'I' for Inactive)
REMARK    1  A    between atoms: CA_2  and  CB_3
REMARK    2  A    between atoms: CA_2  and  N_10
REMARK    3  A    between atoms: CA_2  and  C_14
REMARK    4  A    between atoms: CB_3  and  CG_4
REMARK    5  A    between atoms: C_14  and  O_15
REMARK                            x       y       z     vdW  Elec       q    Type
REMARK                         _______ _______ _______ _____ _____    ______ ____
ROOT
ATOM      1  CA  PHE A   1       8.239  -4.536  24.029  0.00  0.00    +0.187 C 
ENDROOT
BRANCH   1   2
ATOM      2  N   PHE A   1       7.042  -5.340  23.757  0.00  0.00    -0.286 N 
ATOM      3  H   PHE A   1       6.334  -5.371  24.480  0.00  0.00    +0.151 HD
ATOM      4  C   UNK A   0       6.700  -5.753  22.515  0.00  0.00    +0.298 C 
ATOM      5  O   UNK A   0       7.353  -5.550  21.503  0.00  0.00    -0.253 OA
ATOM      6  N   UNK A   0       5.528  -6.434  22.497  0.00  0.00    -0.313 N 
ATOM      7  H   UNK A   0       5.301  -6.850  21.602  0.00  0.00    +0.146 HD
ATOM      8  H   UNK A   0       5.277  -6.981  23.307  0.00  0.00    +0.146 HD
ENDBRANCH   1   2
BRANCH   1   9
ATOM      9  C   PHE A   1       8.920  -5.245  25.201  0.00  0.00    +0.326 C 
ATOM     10  OXT PHE A   1       8.304  -5.770  26.121  0.00  0.00    -0.249 OA
BRANCH   9  11
ATOM     11  O   PHE A   1      10.266  -5.343  25.098  0.00  0.00    -0.479 OA
ATOM     12  H   PHE A   1      10.585  -5.693  24.246  0.00  0.00    +0.295 HD
ENDBRANCH   9  11
ENDBRANCH   1   9
BRANCH   1  13
ATOM     13  CB  PHE A   1       7.916  -3.073  24.393  0.00  0.00    +0.069 C 
BRANCH  13  14
ATOM     14  CG  PHE A   1       8.721  -2.006  23.675  0.00  0.00    -0.045 A 
ATOM     15  CD2 PHE A   1       8.582  -1.871  22.283  0.00  0.00    +0.004 A 
ATOM     16  CE2 PHE A   1       9.297  -0.897  21.581  0.00  0.00    +0.000 A 
ATOM     17  CZ  PHE A   1      10.165  -0.045  22.258  0.00  0.00    +0.000 A 
ATOM     18  CE1 PHE A   1      10.341  -0.190  23.631  0.00  0.00    +0.000 A 
ATOM     19  CD1 PHE A   1       9.644  -1.178  24.330  0.00  0.00    +0.004 A 
ENDBRANCH  13  14
ENDBRANCH   1  13
TORSDOF 5
ENDMDL
MODEL 4
REMARK VINA RESULT:      -5.1      2.632      3.450
REMARK  Name = 
REMARK  5 active torsions:
REMARK  status: ('A' for Active; 'I' for Inactive)
REMARK    1  A    between atoms: CA_2  and  CB_3
REMARK    2  A    between atoms: CA_2  and  N_10
REMARK    3  A    between atoms: CA_2  and  C_14
REMARK    4  A    between atoms: CB_3  and  CG_4
REMARK    5  A    between atoms: C_14  and  O_15
REMARK                            x       y       z     vdW  Elec       q    Type
REMARK                         _______ _______ _______ _____ _____    ______ ____
ROOT
ATOM      1  CA  PHE A   1       9.444  -0.446  23.454  0.00  0.00    +0.187 C 
ENDROOT
BRANCH   1   2
ATOM      2  N   PHE A   1       9.667  -0.518  24.902  0.00  0.00    -0.286 N 
ATOM      3  H   PHE A   1      10.621  -0.413  25.226  0.00  0.00    +0.151 HD
ATOM      4  C   UNK A   0       8.671  -0.387  25.807  0.00  0.00    +0.298 C 
ATOM      5  O   UNK A   0       7.490  -0.243  25.536  0.00  0.00    -0.253 OA
ATOM      6  N   UNK A   0       9.120  -0.431  27.086  0.00  0.00    -0.313 N 
ATOM      7  H   UNK A   0       8.387  -0.446  27.785  0.00  0.00    +0.146 HD
ATOM      8  H   UNK A   0       9.930  -0.996  27.292  0.00  0.00    +0.146 HD
ENDBRANCH   1   2
BRANCH   1   9
ATOM      9  C   PHE A   1      10.086  -1.721  22.903  0.00  0.00    +0.326 C 
ATOM     10  OXT PHE A   1      10.265  -2.730  23.574  0.00  0.00    -0.249 OA
BRANCH   9  11
ATOM     11  O   PHE A   1      10.351  -1.693  21.576  0.00  0.00    -0.479 OA
ATOM     12  H   PHE A   1       9.952  -2.421  21.064  0.00  0.00    +0.295 HD
ENDBRANCH   9  11
ENDBRANCH   1   9
BRANCH   1  13
ATOM     13  CB  PHE A   1      10.072   0.801  22.804  0.00  0.00    +0.069 C 
BRANCH  13  14
ATOM     14  CG  PHE A   1       9.241   2.071  22.834  0.00  0.00    -0.045 A 
ATOM     15  CD2 PHE A   1       9.584   3.087  23.742  0.00  0.00    +0.004 A 
ATOM     16  CE2 PHE A   1       8.851   4.275  23.801  0.00  0.00    +0.000 A 
ATOM     17  CZ  PHE A   1       7.761   4.465  22.955  0.00  0.00    +0.000 A 
ATOM     18  CE1 PHE A   1       7.386   3.453  22.076  0.00  0.00    +0.000 A 
ATOM     19  CD1 PHE A   1       8.105   2.256  22.034  0.00  0.00    +0.004 A 
ENDBRANCH  13  14
ENDBRANCH   1  13
TORSDOF 5
ENDMDL
MODEL 5
REMARK VINA RESULT:      -5.1      6.129      7.646
REMARK  Name = 
REMARK  5 active torsions:
REMARK  status: ('A' for Active; 'I' for Inactive)
REMARK    1  A    between atoms: CA_2  and  CB_3
REMARK    2  A    between atoms: CA_2  and  N_10
REMARK    3  A    between atoms: CA_2  and  C_14
REMARK    4  A    between atoms: CB_3  and  CG_4
REMARK    5  A    between atoms: C_14  and  O_15
REMARK                            x       y       z     vdW  Elec       q    Type
REMARK                         _______ _______ _______ _____ _____    ______ ____
ROOT
ATOM      1  CA  PHE A   1       9.533   5.127  23.322  0.00  0.00    +0.187 C 
ENDROOT
BRANCH   1   2
ATOM      2  N   PHE A   1      10.572   5.957  23.942  0.00  0.00    -0.286 N 
ATOM      3  H   PHE A   1      10.276   6.600  24.667  0.00  0.00    +0.151 HD
ATOM      4  C   UNK A   0      11.892   5.683  23.836  0.00  0.00    +0.298 C 
ATOM      5  O   UNK A   0      12.368   4.762  23.191  0.00  0.00    -0.253 OA
ATOM      6  N   UNK A   0      12.663   6.552  24.535  0.00  0.00    -0.313 N 
ATOM      7  H   UNK A   0      13.658   6.439  24.387  0.00  0.00    +0.146 HD
ATOM      8  H   UNK A   0      12.343   7.503  24.637  0.00  0.00    +0.146 HD
ENDBRANCH   1   2
BRANCH   1   9
ATOM      9  C   PHE A   1       8.368   6.089  23.077  0.00  0.00    +0.326 C 
ATOM     10  OXT PHE A   1       7.881   6.794  23.953  0.00  0.00    -0.249 OA
BRANCH   9  11
ATOM     11  O   PHE A   1       7.976   6.184  21.785  0.00  0.00    -0.479 OA
ATOM     12  H   PHE A   1       8.681   6.439  21.162  0.00  0.00    +0.295 HD
ENDBRANCH   9  11
ENDBRANCH   1   9
BRANCH   1  13
ATOM     13  CB  PHE A   1       9.085   3.950  24.211  0.00  0.00    +0.069 C 
BRANCH  13  14
ATOM     14  CG  PHE A   1       9.472   2.561  23.739  0.00  0.00    -0.045 A 
ATOM     15  CD2 PHE A   1       9.460   2.283  22.362  0.00  0.00    +0.004 A 
ATOM     16  CE2 PHE A   1       9.816   1.021  21.880  0.00  0.00    +0.000 A 
ATOM     17  CZ  PHE A   1      10.187   0.015  22.768  0.00  0.00    +0.000 A 
ATOM     18  CE1 PHE A   1      10.168   0.263  24.138  0.00  0.00    +0.000 A 
ATOM     19  CD1 PHE A   1       9.791   1.519  24.620  0.00  0.00    +0.004 A 
ENDBRANCH  13  14
ENDBRANCH   1  13
TORSDOF 5
ENDMDL
MODEL 6
REMARK VINA RESULT:      -5.0      1.886      3.028
REMARK  Name = 
REMARK  5 active torsions:
REMARK  status: ('A' for Active; 'I' for Inactive)
REMARK    1  A    between atoms: CA_2  and  CB_3
REMARK    2  A    between atoms: CA_2  and  N_10
REMARK    3  A    between atoms: CA_2  and  C_14
REMARK    4  A    between atoms: CB_3  and  CG_4
REMARK    5  A    between atoms: C_14  and  O_15
REMARK                            x       y       z     vdW  Elec       q    Type
REMARK                         _______ _______ _______ _____ _____    ______ ____
ROOT
ATOM      1  CA  PHE A   1       8.570  -2.791  23.474  0.00  0.00    +0.187 C 
ENDROOT
BRANCH   1   2
ATOM      2  N   PHE A   1       7.577  -2.111  24.313  0.00  0.00    -0.286 N 
ATOM      3  H   PHE A   1       7.930  -1.527  25.061  0.00  0.00    +0.151 HD
ATOM      4  C   UNK A   0       6.284  -1.964  23.948  0.00  0.00    +0.298 C 
ATOM      5  O   UNK A   0       5.788  -2.407  22.924  0.00  0.00    -0.253 OA
ATOM      6  N   UNK A   0       5.564  -1.255  24.853  0.00  0.00    -0.313 N 
ATOM      7  H   UNK A   0       4.570  -1.222  24.661  0.00  0.00    +0.146 HD
ATOM      8  H   UNK A   0       5.818  -1.321  25.827  0.00  0.00    +0.146 HD
ENDBRANCH   1   2
BRANCH   1   9
ATOM      9  C   PHE A   1       8.583  -4.233  23.985  0.00  0.00    +0.326 C 
ATOM     10  OXT PHE A   1       9.476  -4.691  24.688  0.00  0.00    -0.249 OA
BRANCH   9  11
ATOM     11  O   PHE A   1       7.472  -4.948  23.689  0.00  0.00    -0.479 OA
ATOM     12  H   PHE A   1       6.638  -4.446  23.744  0.00  0.00    +0.295 HD
ENDBRANCH   9  11
ENDBRANCH   1   9
BRANCH   1  13
ATOM     13  CB  PHE A   1       9.977  -2.169  23.574  0.00  0.00    +0.069 C 
BRANCH  13  14
ATOM     14  CG  PHE A   1      10.073  -0.674  23.332  0.00  0.00    -0.045 A 
ATOM     15  CD2 PHE A   1       9.731  -0.166  22.068  0.00  0.00    +0.004 A 
ATOM     16  CE2 PHE A   1       9.797   1.205  21.802  0.00  0.00    +0.000 A 
ATOM     17  CZ  PHE A   1      10.210   2.088  22.795  0.00  0.00    +0.000 A 
ATOM     18  CE1 PHE A   1      10.588   1.597  24.042  0.00  0.00    +0.000 A 
ATOM     19  CD1 PHE A   1      10.544   0.225  24.300  0.00  0.00    +0.004 A 
ENDBRANCH  13  14
ENDBRANCH   1  13
TORSDOF 5
ENDMDL
MODEL 7
REMARK VINA RESULT:      -5.0      3.088      5.526
REMARK  Name = 
REMARK  5 active torsions:
REMARK  status: ('A' for Active; 'I' for Inactive)
REMARK    1  A    between atoms: CA_2  and  CB_3
REMARK    2  A    between atoms: CA_2  and  N_10
REMARK    3  A    between atoms: CA_2  and  C_14
REMARK    4  A    between atoms: CB_3  and  CG_4
REMARK    5  A    between atoms: C_14  and  O_15
REMARK                            x       y       z     vdW  Elec       q    Type
REMARK                         _______ _______ _______ _____ _____    ______ ____
ROOT
ATOM      1  CA  PHE A   1       8.848  -0.096  24.006  0.00  0.00    +0.187 C 
ENDROOT
BRANCH   1   2
ATOM      2  N   PHE A   1       9.495   1.053  23.362  0.00  0.00    -0.286 N 
ATOM      3  H   PHE A   1      10.076   1.641  23.947  0.00  0.00    +0.151 HD
ATOM      4  C   UNK A   0       9.620   1.169  22.021  0.00  0.00    +0.298 C 
ATOM      5  O   UNK A   0       9.181   0.376  21.203  0.00  0.00    -0.253 OA
ATOM      6  N   UNK A   0      10.301   2.283  21.656  0.00  0.00    -0.313 N 
ATOM      7  H   UNK A   0      10.316   2.455  20.658  0.00  0.00    +0.146 HD
ATOM      8  H   UNK A   0      10.227   3.104  22.238  0.00  0.00    +0.146 HD
ENDBRANCH   1   2
BRANCH   1   9
ATOM      9  C   PHE A   1       8.567   0.373  25.436  0.00  0.00    +0.326 C 
ATOM     10  OXT PHE A   1       7.602   1.062  25.742  0.00  0.00    -0.249 OA
BRANCH   9  11
ATOM     11  O   PHE A   1       9.415  -0.120  26.369  0.00  0.00    -0.479 OA
ATOM     12  H   PHE A   1       8.981  -0.475  27.167  0.00  0.00    +0.295 HD
ENDBRANCH   9  11
ENDBRANCH   1   9
BRANCH   1  13
ATOM     13  CB  PHE A   1       9.726  -1.362  24.014  0.00  0.00    +0.069 C 
BRANCH  13  14
ATOM     14  CG  PHE A   1       9.007  -2.684  23.813  0.00  0.00    -0.045 A 
ATOM     15  CD2 PHE A   1       9.302  -3.756  24.671  0.00  0.00    +0.004 A 
ATOM     16  CE2 PHE A   1       8.660  -4.988  24.528  0.00  0.00    +0.000 A 
ATOM     17  CZ  PHE A   1       7.715  -5.170  23.522  0.00  0.00    +0.000 A 
ATOM     18  CE1 PHE A   1       7.438  -4.129  22.640  0.00  0.00    +0.000 A 
ATOM     19  CD1 PHE A   1       8.097  -2.904  22.769  0.00  0.00    +0.004 A 
ENDBRANCH  13  14
ENDBRANCH   1  13
TORSDOF 5
ENDMDL
MODEL 8
REMARK VINA RESULT:      -5.0      1.864      2.228
REMARK  Name = 
REMARK  5 active torsions:
REMARK  status: ('A' for Active; 'I' for Inactive)
REMARK    1  A    between atoms: CA_2  and  CB_3
REMARK    2  A    between atoms: CA_2  and  N_10
REMARK    3  A    between atoms: CA_2  and  C_14
REMARK    4  A    between atoms: CB_3  and  CG_4
REMARK    5  A    between atoms: C_14  and  O_15
REMARK                            x       y       z     vdW  Elec       q    Type
REMARK                         _______ _______ _______ _____ _____    ______ ____
ROOT
ATOM      1  CA  PHE A   1       8.486  -2.540  23.177  0.00  0.00    +0.187 C 
ENDROOT
BRANCH   1   2
ATOM      2  N   PHE A   1       7.845  -3.700  22.547  0.00  0.00    -0.286 N 
ATOM      3  H   PHE A   1       7.770  -3.694  21.537  0.00  0.00    +0.151 HD
ATOM      4  C   UNK A   0       7.658  -4.875  23.190  0.00  0.00    +0.298 C 
ATOM      5  O   UNK A   0       7.951  -5.093  24.355  0.00  0.00    -0.253 OA
ATOM      6  N   UNK A   0       7.098  -5.821  22.395  0.00  0.00    -0.313 N 
ATOM      7  H   UNK A   0       6.846  -6.675  22.877  0.00  0.00    +0.146 HD
ATOM      8  H   UNK A   0       6.461  -5.524  21.672  0.00  0.00    +0.146 HD
ENDBRANCH   1   2
BRANCH   1   9
ATOM      9  C   PHE A   1       7.321  -1.655  23.626  0.00  0.00    +0.326 C 
ATOM     10  OXT PHE A   1       6.442  -1.262  22.868  0.00  0.00    -0.249 OA
BRANCH   9  11
ATOM     11  O   PHE A   1       7.273  -1.417  24.957  0.00  0.00    -0.479 OA
ATOM     12  H   PHE A   1       8.129  -1.186  25.362  0.00  0.00    +0.295 HD
ENDBRANCH   9  11
ENDBRANCH   1   9
BRANCH   1  13
ATOM     13  CB  PHE A   1       9.416  -1.768  22.220  0.00  0.00    +0.069 C 
BRANCH  13  14
ATOM     14  CG  PHE A   1       9.834  -0.377  22.662  0.00  0.00    -0.045 A 
ATOM     15  CD2 PHE A   1       9.634   0.703  21.787  0.00  0.00    +0.004 A 
ATOM     16  CE2 PHE A   1       9.997   2.002  22.154  0.00  0.00    +0.000 A 
ATOM     17  CZ  PHE A   1      10.569   2.240  23.400  0.00  0.00    +0.000 A 
ATOM     18  CE1 PHE A   1      10.808   1.175  24.264  0.00  0.00    +0.000 A 
ATOM     19  CD1 PHE A   1      10.466  -0.126  23.888  0.00  0.00    +0.004 A 
ENDBRANCH  13  14
ENDBRANCH   1  13
TORSDOF 5
ENDMDL
MODEL 9
REMARK VINA RESULT:      -4.9      1.673      2.210
REMARK  Name = 
REMARK  5 active torsions:
REMARK  status: ('A' for Active; 'I' for Inactive)
REMARK    1  A    between atoms: CA_2  and  CB_3
REMARK    2  A    between atoms: CA_2  and  N_10
REMARK    3  A    between atoms: CA_2  and  C_14
REMARK    4  A    between atoms: CB_3  and  CG_4
REMARK    5  A    between atoms: C_14  and  O_15
REMARK                            x       y       z     vdW  Elec       q    Type
REMARK                         _______ _______ _______ _____ _____    ______ ____
ROOT
ATOM      1  CA  PHE A   1       7.662  -3.974  23.793  0.00  0.00    +0.187 C 
ENDROOT
BRANCH   1   2
ATOM      2  N   PHE A   1       8.831  -4.731  24.257  0.00  0.00    -0.286 N 
ATOM      3  H   PHE A   1       9.540  -4.950  23.568  0.00  0.00    +0.151 HD
ATOM      4  C   UNK A   0       9.154  -4.855  25.564  0.00  0.00    +0.298 C 
ATOM      5  O   UNK A   0       8.505  -4.403  26.494  0.00  0.00    -0.253 OA
ATOM      6  N   UNK A   0      10.303  -5.549  25.753  0.00  0.00    -0.313 N 
ATOM      7  H   UNK A   0      10.513  -5.753  26.722  0.00  0.00    +0.146 HD
ATOM      8  H   UNK A   0      10.539  -6.276  25.094  0.00  0.00    +0.146 HD
ENDBRANCH   1   2
BRANCH   1   9
ATOM      9  C   PHE A   1       6.833  -4.992  23.007  0.00  0.00    +0.326 C 
ATOM     10  OXT PHE A   1       7.327  -5.898  22.346  0.00  0.00    -0.249 OA
BRANCH   9  11
ATOM     11  O   PHE A   1       5.495  -4.884  23.178  0.00  0.00    -0.479 OA
ATOM     12  H   PHE A   1       5.223  -4.479  24.022  0.00  0.00    +0.295 HD
ENDBRANCH   9  11
ENDBRANCH   1   9
BRANCH   1  13
ATOM     13  CB  PHE A   1       8.032  -2.773  22.901  0.00  0.00    +0.069 C 
BRANCH  13  14
ATOM     14  CG  PHE A   1       8.842  -1.669  23.556  0.00  0.00    -0.045 A 
ATOM     15  CD2 PHE A   1       8.485  -1.237  24.845  0.00  0.00    +0.004 A 
ATOM     16  CE2 PHE A   1       9.206  -0.229  25.490  0.00  0.00    +0.000 A 
ATOM     17  CZ  PHE A   1      10.293   0.366  24.856  0.00  0.00    +0.000 A 
ATOM     18  CE1 PHE A   1      10.637  -0.025  23.564  0.00  0.00    +0.000 A 
ATOM     19  CD1 PHE A   1       9.902  -1.017  22.911  0.00  0.00    +0.004 A 
ENDBRANCH  13  14
ENDBRANCH   1  13
TORSDOF 5
ENDMDL
