MODEL 1
REMARK VINA RESULT:      -7.4      0.000      0.000
REMARK  Name = 
REMARK  9 active torsions:
REMARK  status: ('A' for Active; 'I' for Inactive)
REMARK    1  A    between atoms: C_2  and  C_3
REMARK    2  A    between atoms: C_2  and  N_4
REMARK    3  A    between atoms: C_2  and  C_26
REMARK    4  A    between atoms: N_4  and  C_5
REMARK    5  A    between atoms: C_11  and  C_12
REMARK    6  A    between atoms: N_14  and  C_15
REMARK    7  A    between atoms: C_19  and  C_20
REMARK    8  A    between atoms: C_20  and  C_21
REMARK    9  A    between atoms: C_21  and  C_22
REMARK                            x       y       z     vdW  Elec       q    Type
REMARK                         _______ _______ _______ _____ _____    ______ ____
ROOT
ATOM      1  C   UNL     1       7.820   2.476  22.314  0.00  0.00    +0.121 A 
ATOM      2  N   UNL     1       7.257   3.690  22.455  0.00  0.00    -0.240 NA
ATOM      3  C   UNL     1       6.164   3.844  23.247  0.00  0.00    +0.124 A 
ATOM      4  C   UNL     1       5.644   2.762  23.964  0.00  0.00    +0.041 A 
ATOM      5  C   UNL     1       4.536   2.534  24.812  0.00  0.00    +0.070 A 
ATOM      6  N   UNL     1       4.474   1.264  25.228  0.00  0.00    -0.170 NA
ATOM      7  N   UNL     1       5.610   0.685  24.751  0.00  0.00    -0.232 N 
ATOM      8  C   UNL     1       3.482   3.499  25.219  0.00  0.00    +0.068 C 
ATOM      9  C   UNL     1       6.274   1.525  23.860  0.00  0.00    +0.080 A 
ATOM     10  C   UNL     1       7.331   1.343  22.959  0.00  0.00    +0.072 A 
ENDROOT
BRANCH   7  11
ATOM     11  C   UNL     1       5.999  -0.615  25.198  0.00  0.00    +0.066 A 
ATOM     12  C   UNL     1       5.607  -1.760  24.479  0.00  0.00    +0.031 A 
ATOM     13  C   UNL     1       6.054  -3.038  24.868  0.00  0.00    -0.045 A 
ATOM     14  C   UNL     1       6.856  -3.153  26.013  0.00  0.00    +0.004 A 
ATOM     15  C   UNL     1       7.188  -2.030  26.766  0.00  0.00    +0.002 A 
ATOM     16  C   UNL     1       6.764  -0.764  26.361  0.00  0.00    +0.028 A 
BRANCH  13  17
ATOM     17  C   UNL     1       5.762  -4.262  24.024  0.00  0.00    +0.044 C 
BRANCH  17  18
ATOM     18  C   UNL     1       6.775  -4.494  22.899  0.00  0.00    +0.100 C 
BRANCH  18  19
ATOM     19  C   UNL     1       6.100  -4.921  21.612  0.00  0.00    +0.211 C 
ATOM     20  O   UNL     1       5.748  -4.161  20.720  0.00  0.00    -0.276 OA
ATOM     21  N   UNL     1       5.936  -6.271  21.491  0.00  0.00    -0.329 N 
ATOM     22  H   UNL     1       5.477  -6.614  20.657  0.00  0.00    +0.145 HD
ATOM     23  H   UNL     1       6.130  -6.920  22.240  0.00  0.00    +0.145 HD
ENDBRANCH  18  19
ENDBRANCH  17  18
ENDBRANCH  13  17
ENDBRANCH   7  11
BRANCH   1  24
ATOM     24  N   UNL     1       8.915   2.295  21.448  0.00  0.00    -0.322 N 
ATOM     25  H   UNL     1       9.044   3.174  20.952  0.00  0.00    +0.148 HD
BRANCH  24  26
ATOM     26  C   UNL     1      10.172   1.870  22.080  0.00  0.00    +0.099 C 
ATOM     27  C   UNL     1      10.483   2.759  23.294  0.00  0.00    +0.033 C 
BRANCH  26  28
ATOM     28  C   UNL     1      10.061   0.425  22.579  0.00  0.00    -0.028 A 
ATOM     29  C   UNL     1      10.195   0.161  23.953  0.00  0.00    +0.005 A 
ATOM     30  C   UNL     1       9.990  -1.125  24.460  0.00  0.00    +0.000 A 
ATOM     31  C   UNL     1       9.651  -2.169  23.603  0.00  0.00    +0.000 A 
ATOM     32  C   UNL     1       9.524  -1.928  22.236  0.00  0.00    +0.000 A 
ATOM     33  C   UNL     1       9.720  -0.641  21.729  0.00  0.00    +0.005 A 
ENDBRANCH  26  28
ENDBRANCH  24  26
ENDBRANCH   1  24
TORSDOF 7
ENDMDL
MODEL 2
REMARK VINA RESULT:      -7.3      1.656      1.777
REMARK  Name = 
REMARK  9 active torsions:
REMARK  status: ('A' for Active; 'I' for Inactive)
REMARK    1  A    between atoms: C_2  and  C_3
REMARK    2  A    between atoms: C_2  and  N_4
REMARK    3  A    between atoms: C_2  and  C_26
REMARK    4  A    between atoms: N_4  and  C_5
REMARK    5  A    between atoms: C_11  and  C_12
REMARK    6  A    between atoms: N_14  and  C_15
REMARK    7  A    between atoms: C_19  and  C_20
REMARK    8  A    between atoms: C_20  and  C_21
REMARK    9  A    between atoms: C_21  and  C_22
REMARK                            x       y       z     vdW  Elec       q    Type
REMARK                         _______ _______ _______ _____ _____    ______ ____
ROOT
ATOM      1  C   UNL     1       7.922   2.555  22.157  0.00  0.00    +0.121 A 
ATOM      2  N   UNL     1       7.423   3.804  22.097  0.00  0.00    -0.240 NA
ATOM      3  C   UNL     1       6.273   4.108  22.752  0.00  0.00    +0.124 A 
ATOM      4  C   UNL     1       5.623   3.150  23.537  0.00  0.00    +0.041 A 
ATOM      5  C   UNL     1       4.430   3.083  24.291  0.00  0.00    +0.070 A 
ATOM      6  N   UNL     1       4.252   1.880  24.847  0.00  0.00    -0.170 NA
ATOM      7  N   UNL     1       5.391   1.191  24.558  0.00  0.00    -0.232 N 
ATOM      8  C   UNL     1       3.403   4.142  24.475  0.00  0.00    +0.068 C 
ATOM      9  C   UNL     1       6.184   1.881  23.644  0.00  0.00    +0.080 A 
ATOM     10  C   UNL     1       7.307   1.536  22.880  0.00  0.00    +0.072 A 
ENDROOT
BRANCH   7  11
ATOM     11  C   UNL     1       5.657  -0.062  25.192  0.00  0.00    +0.066 A 
ATOM     12  C   UNL     1       5.904  -1.211  24.419  0.00  0.00    +0.031 A 
ATOM     13  C   UNL     1       6.246  -2.430  25.036  0.00  0.00    -0.045 A 
ATOM     14  C   UNL     1       6.289  -2.488  26.437  0.00  0.00    +0.004 A 
ATOM     15  C   UNL     1       5.976  -1.370  27.206  0.00  0.00    +0.002 A 
ATOM     16  C   UNL     1       5.663  -0.160  26.589  0.00  0.00    +0.028 A 
BRANCH  13  17
ATOM     17  C   UNL     1       6.657  -3.636  24.217  0.00  0.00    +0.044 C 
BRANCH  17  18
ATOM     18  C   UNL     1       6.772  -4.928  25.031  0.00  0.00    +0.100 C 
BRANCH  18  19
ATOM     19  C   UNL     1       8.215  -5.320  25.267  0.00  0.00    +0.211 C 
ATOM     20  O   UNL     1       9.102  -5.264  24.426  0.00  0.00    -0.276 OA
ATOM     21  N   UNL     1       8.481  -5.725  26.542  0.00  0.00    -0.329 N 
ATOM     22  H   UNL     1       9.428  -6.014  26.755  0.00  0.00    +0.145 HD
ATOM     23  H   UNL     1       7.762  -5.871  27.236  0.00  0.00    +0.145 HD
ENDBRANCH  18  19
ENDBRANCH  17  18
ENDBRANCH  13  17
ENDBRANCH   7  11
BRANCH   1  24
ATOM     24  N   UNL     1       9.080   2.215  21.433  0.00  0.00    -0.322 N 
ATOM     25  H   UNL     1       9.243   2.971  20.770  0.00  0.00    +0.148 HD
BRANCH  24  26
ATOM     26  C   UNL     1      10.287   1.960  22.231  0.00  0.00    +0.099 C 
ATOM     27  C   UNL     1      10.447   3.040  23.311  0.00  0.00    +0.033 C 
BRANCH  26  28
ATOM     28  C   UNL     1      10.185   0.606  22.940  0.00  0.00    -0.028 A 
ATOM     29  C   UNL     1      10.105   0.569  24.343  0.00  0.00    +0.005 A 
ATOM     30  C   UNL     1       9.899  -0.636  25.020  0.00  0.00    +0.000 A 
ATOM     31  C   UNL     1       9.775  -1.826  24.307  0.00  0.00    +0.000 A 
ATOM     32  C   UNL     1       9.863  -1.811  22.916  0.00  0.00    +0.000 A 
ATOM     33  C   UNL     1      10.059  -0.605  22.237  0.00  0.00    +0.005 A 
ENDBRANCH  26  28
ENDBRANCH  24  26
ENDBRANCH   1  24
TORSDOF 7
ENDMDL
MODEL 3
REMARK VINA RESULT:      -7.0      3.285      7.050
REMARK  Name = 
REMARK  9 active torsions:
REMARK  status: ('A' for Active; 'I' for Inactive)
REMARK    1  A    between atoms: C_2  and  C_3
REMARK    2  A    between atoms: C_2  and  N_4
REMARK    3  A    between atoms: C_2  and  C_26
REMARK    4  A    between atoms: N_4  and  C_5
REMARK    5  A    between atoms: C_11  and  C_12
REMARK    6  A    between atoms: N_14  and  C_15
REMARK    7  A    between atoms: C_19  and  C_20
REMARK    8  A    between atoms: C_20  and  C_21
REMARK    9  A    between atoms: C_21  and  C_22
REMARK                            x       y       z     vdW  Elec       q    Type
REMARK                         _______ _______ _______ _____ _____    ______ ____
ROOT
ATOM      1  C   UNL     1       7.204  -2.394  26.278  0.00  0.00    +0.121 A 
ATOM      2  N   UNL     1       5.997  -2.321  26.869  0.00  0.00    -0.240 NA
ATOM      3  C   UNL     1       5.298  -1.157  26.845  0.00  0.00    +0.124 A 
ATOM      4  C   UNL     1       5.794  -0.039  26.165  0.00  0.00    +0.041 A 
ATOM      5  C   UNL     1       5.394   1.302  25.972  0.00  0.00    +0.070 A 
ATOM      6  N   UNL     1       6.274   1.989  25.234  0.00  0.00    -0.170 NA
ATOM      7  N   UNL     1       7.194   1.065  24.840  0.00  0.00    -0.232 N 
ATOM      8  C   UNL     1       4.190   1.985  26.513  0.00  0.00    +0.068 C 
ATOM      9  C   UNL     1       7.013  -0.147  25.502  0.00  0.00    +0.080 A 
ATOM     10  C   UNL     1       7.784  -1.312  25.621  0.00  0.00    +0.072 A 
ENDROOT
BRANCH   7  11
ATOM     11  C   UNL     1       8.161   1.392  23.840  0.00  0.00    +0.066 A 
ATOM     12  C   UNL     1       9.206   2.288  24.131  0.00  0.00    +0.031 A 
ATOM     13  C   UNL     1      10.209   2.553  23.177  0.00  0.00    -0.045 A 
ATOM     14  C   UNL     1      10.119   1.944  21.916  0.00  0.00    +0.004 A 
ATOM     15  C   UNL     1       9.047   1.111  21.603  0.00  0.00    +0.002 A 
ATOM     16  C   UNL     1       8.073   0.832  22.560  0.00  0.00    +0.028 A 
BRANCH  13  17
ATOM     17  C   UNL     1      11.417   3.399  23.523  0.00  0.00    +0.044 C 
BRANCH  17  18
ATOM     18  C   UNL     1      11.155   4.907  23.461  0.00  0.00    +0.100 C 
BRANCH  18  19
ATOM     19  C   UNL     1      12.382   5.708  23.843  0.00  0.00    +0.211 C 
ATOM     20  O   UNL     1      12.537   6.287  24.910  0.00  0.00    -0.276 OA
ATOM     21  N   UNL     1      13.361   5.716  22.892  0.00  0.00    -0.329 N 
ATOM     22  H   UNL     1      14.199   6.249  23.085  0.00  0.00    +0.145 HD
ATOM     23  H   UNL     1      13.234   5.329  21.967  0.00  0.00    +0.145 HD
ENDBRANCH  18  19
ENDBRANCH  17  18
ENDBRANCH  13  17
ENDBRANCH   7  11
BRANCH   1  24
ATOM     24  N   UNL     1       7.962  -3.578  26.350  0.00  0.00    -0.322 N 
ATOM     25  H   UNL     1       7.356  -4.288  26.757  0.00  0.00    +0.148 HD
BRANCH  24  26
ATOM     26  C   UNL     1       8.535  -4.053  25.083  0.00  0.00    +0.099 C 
ATOM     27  C   UNL     1       9.482  -5.235  25.339  0.00  0.00    +0.033 C 
BRANCH  26  28
ATOM     28  C   UNL     1       7.428  -4.539  24.142  0.00  0.00    -0.028 A 
ATOM     29  C   UNL     1       7.500  -4.218  22.775  0.00  0.00    +0.005 A 
ATOM     30  C   UNL     1       6.572  -4.735  21.866  0.00  0.00    +0.000 A 
ATOM     31  C   UNL     1       5.555  -5.577  22.308  0.00  0.00    +0.000 A 
ATOM     32  C   UNL     1       5.462  -5.898  23.661  0.00  0.00    +0.000 A 
ATOM     33  C   UNL     1       6.395  -5.389  24.570  0.00  0.00    +0.005 A 
ENDBRANCH  26  28
ENDBRANCH  24  26
ENDBRANCH   1  24
TORSDOF 7
ENDMDL
MODEL 4
REMARK VINA RESULT:      -6.8      2.565      2.900
REMARK  Name = 
REMARK  9 active torsions:
REMARK  status: ('A' for Active; 'I' for Inactive)
REMARK    1  A    between atoms: C_2  and  C_3
REMARK    2  A    between atoms: C_2  and  N_4
REMARK    3  A    between atoms: C_2  and  C_26
REMARK    4  A    between atoms: N_4  and  C_5
REMARK    5  A    between atoms: C_11  and  C_12
REMARK    6  A    between atoms: N_14  and  C_15
REMARK    7  A    between atoms: C_19  and  C_20
REMARK    8  A    between atoms: C_20  and  C_21
REMARK    9  A    between atoms: C_21  and  C_22
REMARK                            x       y       z     vdW  Elec       q    Type
REMARK                         _______ _______ _______ _____ _____    ______ ____
ROOT
ATOM      1  C   UNL     1       8.408   3.410  23.789  0.00  0.00    +0.121 A 
ATOM      2  N   UNL     1       8.662   4.588  24.387  0.00  0.00    -0.240 NA
ATOM      3  C   UNL     1       8.187   4.832  25.636  0.00  0.00    +0.124 A 
ATOM      4  C   UNL     1       7.478   3.849  26.335  0.00  0.00    +0.041 A 
ATOM      5  C   UNL     1       6.812   3.758  27.578  0.00  0.00    +0.070 A 
ATOM      6  N   UNL     1       6.250   2.558  27.760  0.00  0.00    -0.170 NA
ATOM      7  N   UNL     1       6.649   1.820  26.688  0.00  0.00    -0.232 N 
ATOM      8  C   UNL     1       6.654   4.815  28.611  0.00  0.00    +0.068 C 
ATOM      9  C   UNL     1       7.278   2.612  25.731  0.00  0.00    +0.080 A 
ATOM     10  C   UNL     1       7.670   2.401  24.402  0.00  0.00    +0.072 A 
ENDROOT
BRANCH   7  11
ATOM     11  C   UNL     1       6.429   0.408  26.663  0.00  0.00    +0.066 A 
ATOM     12  C   UNL     1       7.506  -0.475  26.460  0.00  0.00    +0.031 A 
ATOM     13  C   UNL     1       7.309  -1.869  26.515  0.00  0.00    -0.045 A 
ATOM     14  C   UNL     1       6.012  -2.360  26.727  0.00  0.00    +0.004 A 
ATOM     15  C   UNL     1       4.934  -1.489  26.858  0.00  0.00    +0.002 A 
ATOM     16  C   UNL     1       5.138  -0.110  26.829  0.00  0.00    +0.028 A 
BRANCH  13  17
ATOM     17  C   UNL     1       8.479  -2.829  26.444  0.00  0.00    +0.044 C 
BRANCH  17  18
ATOM     18  C   UNL     1       8.329  -3.910  25.369  0.00  0.00    +0.100 C 
BRANCH  18  19
ATOM     19  C   UNL     1       8.531  -5.300  25.935  0.00  0.00    +0.211 C 
ATOM     20  O   UNL     1       7.746  -5.875  26.677  0.00  0.00    -0.276 OA
ATOM     21  N   UNL     1       9.679  -5.910  25.518  0.00  0.00    -0.329 N 
ATOM     22  H   UNL     1       9.874  -6.836  25.876  0.00  0.00    +0.145 HD
ATOM     23  H   UNL     1      10.391  -5.436  24.981  0.00  0.00    +0.145 HD
ENDBRANCH  18  19
ENDBRANCH  17  18
ENDBRANCH  13  17
ENDBRANCH   7  11
BRANCH   1  24
ATOM     24  N   UNL     1       8.843   3.171  22.471  0.00  0.00    -0.322 N 
ATOM     25  H   UNL     1       8.836   4.070  21.994  0.00  0.00    +0.148 HD
BRANCH  24  26
ATOM     26  C   UNL     1      10.156   2.525  22.335  0.00  0.00    +0.099 C 
ATOM     27  C   UNL     1      11.089   2.973  23.470  0.00  0.00    +0.033 C 
BRANCH  26  28
ATOM     28  C   UNL     1      10.017   1.002  22.421  0.00  0.00    -0.028 A 
ATOM     29  C   UNL     1      10.473   0.335  23.572  0.00  0.00    +0.005 A 
ATOM     30  C   UNL     1      10.264  -1.037  23.737  0.00  0.00    +0.000 A 
ATOM     31  C   UNL     1       9.600  -1.766  22.755  0.00  0.00    +0.000 A 
ATOM     32  C   UNL     1       9.150  -1.124  21.602  0.00  0.00    +0.000 A 
ATOM     33  C   UNL     1       9.350   0.250  21.440  0.00  0.00    +0.005 A 
ENDBRANCH  26  28
ENDBRANCH  24  26
ENDBRANCH   1  24
TORSDOF 7
ENDMDL
MODEL 5
REMARK VINA RESULT:      -6.7      2.833      6.483
REMARK  Name = 
REMARK  9 active torsions:
REMARK  status: ('A' for Active; 'I' for Inactive)
REMARK    1  A    between atoms: C_2  and  C_3
REMARK    2  A    between atoms: C_2  and  N_4
REMARK    3  A    between atoms: C_2  and  C_26
REMARK    4  A    between atoms: N_4  and  C_5
REMARK    5  A    between atoms: C_11  and  C_12
REMARK    6  A    between atoms: N_14  and  C_15
REMARK    7  A    between atoms: C_19  and  C_20
REMARK    8  A    between atoms: C_20  and  C_21
REMARK    9  A    between atoms: C_21  and  C_22
REMARK                            x       y       z     vdW  Elec       q    Type
REMARK                         _______ _______ _______ _____ _____    ______ ____
ROOT
ATOM      1  C   UNL     1       5.382  -2.202  24.486  0.00  0.00    +0.121 A 
ATOM      2  N   UNL     1       4.376  -2.159  25.378  0.00  0.00    -0.240 NA
ATOM      3  C   UNL     1       4.458  -1.336  26.455  0.00  0.00    +0.124 A 
ATOM      4  C   UNL     1       5.558  -0.488  26.624  0.00  0.00    +0.041 A 
ATOM      5  C   UNL     1       6.001   0.431  27.603  0.00  0.00    +0.070 A 
ATOM      6  N   UNL     1       7.179   0.977  27.283  0.00  0.00    -0.170 NA
ATOM      7  N   UNL     1       7.453   0.508  26.034  0.00  0.00    -0.232 N 
ATOM      8  C   UNL     1       5.343   0.787  28.887  0.00  0.00    +0.068 C 
ATOM      9  C   UNL     1       6.561  -0.495  25.660  0.00  0.00    +0.080 A 
ATOM     10  C   UNL     1       6.529  -1.422  24.611  0.00  0.00    +0.072 A 
ENDROOT
BRANCH   7  11
ATOM     11  C   UNL     1       8.526   1.067  25.273  0.00  0.00    +0.066 A 
ATOM     12  C   UNL     1       8.429   2.374  24.763  0.00  0.00    +0.031 A 
ATOM     13  C   UNL     1       9.514   2.961  24.083  0.00  0.00    -0.045 A 
ATOM     14  C   UNL     1      10.675   2.199  23.881  0.00  0.00    +0.004 A 
ATOM     15  C   UNL     1      10.747   0.880  24.323  0.00  0.00    +0.002 A 
ATOM     16  C   UNL     1       9.680   0.315  25.019  0.00  0.00    +0.028 A 
BRANCH  13  17
ATOM     17  C   UNL     1       9.480   4.414  23.656  0.00  0.00    +0.044 C 
BRANCH  17  18
ATOM     18  C   UNL     1       8.080   5.033  23.678  0.00  0.00    +0.100 C 
BRANCH  18  19
ATOM     19  C   UNL     1       7.393   4.922  22.333  0.00  0.00    +0.211 C 
ATOM     20  O   UNL     1       6.732   3.961  21.962  0.00  0.00    -0.276 OA
ATOM     21  N   UNL     1       7.535   6.024  21.541  0.00  0.00    -0.329 N 
ATOM     22  H   UNL     1       7.109   6.000  20.624  0.00  0.00    +0.145 HD
ATOM     23  H   UNL     1       8.145   6.795  21.774  0.00  0.00    +0.145 HD
ENDBRANCH  18  19
ENDBRANCH  17  18
ENDBRANCH  13  17
ENDBRANCH   7  11
BRANCH   1  24
ATOM     24  N   UNL     1       5.334  -3.096  23.399  0.00  0.00    -0.322 N 
ATOM     25  H   UNL     1       6.047  -2.793  22.739  0.00  0.00    +0.148 HD
BRANCH  24  26
ATOM     26  C   UNL     1       5.505  -4.518  23.728  0.00  0.00    +0.099 C 
ATOM     27  C   UNL     1       5.698  -5.340  22.445  0.00  0.00    +0.033 C 
BRANCH  26  28
ATOM     28  C   UNL     1       6.747  -4.722  24.601  0.00  0.00    -0.028 A 
ATOM     29  C   UNL     1       6.585  -5.028  25.964  0.00  0.00    +0.005 A 
ATOM     30  C   UNL     1       7.688  -5.330  26.768  0.00  0.00    +0.000 A 
ATOM     31  C   UNL     1       8.970  -5.328  26.225  0.00  0.00    +0.000 A 
ATOM     32  C   UNL     1       9.151  -5.016  24.879  0.00  0.00    +0.000 A 
ATOM     33  C   UNL     1       8.048  -4.722  24.071  0.00  0.00    +0.005 A 
ENDBRANCH  26  28
ENDBRANCH  24  26
ENDBRANCH   1  24
TORSDOF 7
ENDMDL
MODEL 6
REMARK VINA RESULT:      -6.7      1.608      2.022
REMARK  Name = 
REMARK  9 active torsions:
REMARK  status: ('A' for Active; 'I' for Inactive)
REMARK    1  A    between atoms: C_2  and  C_3
REMARK    2  A    between atoms: C_2  and  N_4
REMARK    3  A    between atoms: C_2  and  C_26
REMARK    4  A    between atoms: N_4  and  C_5
REMARK    5  A    between atoms: C_11  and  C_12
REMARK    6  A    between atoms: N_14  and  C_15
REMARK    7  A    between atoms: C_19  and  C_20
REMARK    8  A    between atoms: C_20  and  C_21
REMARK    9  A    between atoms: C_21  and  C_22
REMARK                            x       y       z     vdW  Elec       q    Type
REMARK                         _______ _______ _______ _____ _____    ______ ____
ROOT
ATOM      1  C   UNL     1       6.753   2.199  23.566  0.00  0.00    +0.121 A 
ATOM      2  N   UNL     1       6.052   3.012  24.378  0.00  0.00    -0.240 NA
ATOM      3  C   UNL     1       5.302   2.488  25.381  0.00  0.00    +0.124 A 
ATOM      4  C   UNL     1       5.290   1.109  25.619  0.00  0.00    +0.041 A 
ATOM      5  C   UNL     1       4.620   0.229  26.498  0.00  0.00    +0.070 A 
ATOM      6  N   UNL     1       4.957  -1.048  26.284  0.00  0.00    -0.170 NA
ATOM      7  N   UNL     1       5.941  -0.996  25.344  0.00  0.00    -0.232 N 
ATOM      8  C   UNL     1       3.612   0.564  27.537  0.00  0.00    +0.068 C 
ATOM      9  C   UNL     1       6.070   0.285  24.813  0.00  0.00    +0.080 A 
ATOM     10  C   UNL     1       6.754   0.814  23.711  0.00  0.00    +0.072 A 
ENDROOT
BRANCH   7  11
ATOM     11  C   UNL     1       6.708  -2.162  25.038  0.00  0.00    +0.066 A 
ATOM     12  C   UNL     1       6.475  -2.872  23.845  0.00  0.00    +0.031 A 
ATOM     13  C   UNL     1       7.281  -3.974  23.499  0.00  0.00    -0.045 A 
ATOM     14  C   UNL     1       8.288  -4.380  24.387  0.00  0.00    +0.004 A 
ATOM     15  C   UNL     1       8.474  -3.723  25.600  0.00  0.00    +0.002 A 
ATOM     16  C   UNL     1       7.691  -2.616  25.926  0.00  0.00    +0.028 A 
BRANCH  13  17
ATOM     17  C   UNL     1       7.139  -4.658  22.154  0.00  0.00    +0.044 C 
BRANCH  17  18
ATOM     18  C   UNL     1       6.483  -6.040  22.228  0.00  0.00    +0.100 C 
BRANCH  18  19
ATOM     19  C   UNL     1       5.077  -5.968  22.784  0.00  0.00    +0.211 C 
ATOM     20  O   UNL     1       4.231  -5.151  22.446  0.00  0.00    -0.276 OA
ATOM     21  N   UNL     1       4.790  -6.937  23.701  0.00  0.00    -0.329 N 
ATOM     22  H   UNL     1       3.868  -6.930  24.119  0.00  0.00    +0.145 HD
ATOM     23  H   UNL     1       5.485  -7.570  24.071  0.00  0.00    +0.145 HD
ENDBRANCH  18  19
ENDBRANCH  17  18
ENDBRANCH  13  17
ENDBRANCH   7  11
BRANCH   1  24
ATOM     24  N   UNL     1       7.484   2.728  22.486  0.00  0.00    -0.322 N 
ATOM     25  H   UNL     1       7.167   3.688  22.360  0.00  0.00    +0.148 HD
BRANCH  24  26
ATOM     26  C   UNL     1       8.947   2.683  22.615  0.00  0.00    +0.099 C 
ATOM     27  C   UNL     1       9.380   3.276  23.964  0.00  0.00    +0.033 C 
BRANCH  26  28
ATOM     28  C   UNL     1       9.446   1.235  22.563  0.00  0.00    -0.028 A 
ATOM     29  C   UNL     1      10.053   0.677  23.701  0.00  0.00    +0.005 A 
ATOM     30  C   UNL     1      10.420  -0.672  23.731  0.00  0.00    +0.000 A 
ATOM     31  C   UNL     1      10.190  -1.484  22.623  0.00  0.00    +0.000 A 
ATOM     32  C   UNL     1       9.599  -0.945  21.482  0.00  0.00    +0.000 A 
ATOM     33  C   UNL     1       9.223   0.401  21.454  0.00  0.00    +0.005 A 
ENDBRANCH  26  28
ENDBRANCH  24  26
ENDBRANCH   1  24
TORSDOF 7
ENDMDL
MODEL 7
REMARK VINA RESULT:      -6.7      3.043      6.309
REMARK  Name = 
REMARK  9 active torsions:
REMARK  status: ('A' for Active; 'I' for Inactive)
REMARK    1  A    between atoms: C_2  and  C_3
REMARK    2  A    between atoms: C_2  and  N_4
REMARK    3  A    between atoms: C_2  and  C_26
REMARK    4  A    between atoms: N_4  and  C_5
REMARK    5  A    between atoms: C_11  and  C_12
REMARK    6  A    between atoms: N_14  and  C_15
REMARK    7  A    between atoms: C_19  and  C_20
REMARK    8  A    between atoms: C_20  and  C_21
REMARK    9  A    between atoms: C_21  and  C_22
REMARK                            x       y       z     vdW  Elec       q    Type
REMARK                         _______ _______ _______ _____ _____    ______ ____
ROOT
ATOM      1  C   UNL     1       7.581   5.258  24.347  0.00  0.00    +0.121 A 
ATOM      2  N   UNL     1       8.296   6.393  24.239  0.00  0.00    -0.240 NA
ATOM      3  C   UNL     1       9.626   6.336  23.970  0.00  0.00    +0.124 A 
ATOM      4  C   UNL     1      10.257   5.107  23.750  0.00  0.00    +0.041 A 
ATOM      5  C   UNL     1      11.577   4.664  23.507  0.00  0.00    +0.070 A 
ATOM      6  N   UNL     1      11.648   3.333  23.393  0.00  0.00    -0.170 NA
ATOM      7  N   UNL     1      10.355   2.909  23.442  0.00  0.00    -0.232 N 
ATOM      8  C   UNL     1      12.815   5.482  23.416  0.00  0.00    +0.068 C 
ATOM      9  C   UNL     1       9.494   3.944  23.800  0.00  0.00    +0.080 A 
ATOM     10  C   UNL     1       8.148   3.997  24.187  0.00  0.00    +0.072 A 
ENDROOT
BRANCH   7  11
ATOM     11  C   UNL     1      10.026   1.557  23.116  0.00  0.00    +0.066 A 
ATOM     12  C   UNL     1       9.971   0.578  24.125  0.00  0.00    +0.031 A 
ATOM     13  C   UNL     1       9.570  -0.739  23.824  0.00  0.00    -0.045 A 
ATOM     14  C   UNL     1       9.273  -1.066  22.492  0.00  0.00    +0.004 A 
ATOM     15  C   UNL     1       9.394  -0.116  21.481  0.00  0.00    +0.002 A 
ATOM     16  C   UNL     1       9.766   1.192  21.790  0.00  0.00    +0.028 A 
BRANCH  13  17
ATOM     17  C   UNL     1       9.365  -1.766  24.918  0.00  0.00    +0.044 C 
BRANCH  17  18
ATOM     18  C   UNL     1       9.429  -3.215  24.427  0.00  0.00    +0.100 C 
BRANCH  18  19
ATOM     19  C   UNL     1       9.253  -4.203  25.561  0.00  0.00    +0.211 C 
ATOM     20  O   UNL     1       8.440  -4.091  26.468  0.00  0.00    -0.276 OA
ATOM     21  N   UNL     1      10.072  -5.292  25.484  0.00  0.00    -0.329 N 
ATOM     22  H   UNL     1      10.009  -5.980  26.223  0.00  0.00    +0.145 HD
ATOM     23  H   UNL     1      10.815  -5.376  24.804  0.00  0.00    +0.145 HD
ENDBRANCH  18  19
ENDBRANCH  17  18
ENDBRANCH  13  17
ENDBRANCH   7  11
BRANCH   1  24
ATOM     24  N   UNL     1       6.215   5.305  24.685  0.00  0.00    -0.322 N 
ATOM     25  H   UNL     1       5.826   6.122  24.217  0.00  0.00    +0.148 HD
BRANCH  24  26
ATOM     26  C   UNL     1       5.431   4.105  24.365  0.00  0.00    +0.099 C 
ATOM     27  C   UNL     1       4.639   3.644  25.597  0.00  0.00    +0.033 C 
BRANCH  26  28
ATOM     28  C   UNL     1       4.424   4.403  23.250  0.00  0.00    -0.028 A 
ATOM     29  C   UNL     1       3.771   3.334  22.611  0.00  0.00    +0.005 A 
ATOM     30  C   UNL     1       2.766   3.567  21.668  0.00  0.00    +0.000 A 
ATOM     31  C   UNL     1       2.399   4.871  21.345  0.00  0.00    +0.000 A 
ATOM     32  C   UNL     1       3.043   5.943  21.960  0.00  0.00    +0.000 A 
ATOM     33  C   UNL     1       4.042   5.712  22.910  0.00  0.00    +0.005 A 
ENDBRANCH  26  28
ENDBRANCH  24  26
ENDBRANCH   1  24
TORSDOF 7
ENDMDL
MODEL 8
REMARK VINA RESULT:      -6.7      2.556      5.502
REMARK  Name = 
REMARK  9 active torsions:
REMARK  status: ('A' for Active; 'I' for Inactive)
REMARK    1  A    between atoms: C_2  and  C_3
REMARK    2  A    between atoms: C_2  and  N_4
REMARK    3  A    between atoms: C_2  and  C_26
REMARK    4  A    between atoms: N_4  and  C_5
REMARK    5  A    between atoms: C_11  and  C_12
REMARK    6  A    between atoms: N_14  and  C_15
REMARK    7  A    between atoms: C_19  and  C_20
REMARK    8  A    between atoms: C_20  and  C_21
REMARK    9  A    between atoms: C_21  and  C_22
REMARK                            x       y       z     vdW  Elec       q    Type
REMARK                         _______ _______ _______ _____ _____    ______ ____
ROOT
ATOM      1  C   UNL     1       7.795   5.466  24.943  0.00  0.00    +0.121 A 
ATOM      2  N   UNL     1       8.451   6.631  24.789  0.00  0.00    -0.240 NA
ATOM      3  C   UNL     1       9.728   6.636  24.327  0.00  0.00    +0.124 A 
ATOM      4  C   UNL     1      10.358   5.443  23.956  0.00  0.00    +0.041 A 
ATOM      5  C   UNL     1      11.641   5.061  23.503  0.00  0.00    +0.070 A 
ATOM      6  N   UNL     1      11.735   3.740  23.314  0.00  0.00    -0.170 NA
ATOM      7  N   UNL     1      10.476   3.267  23.528  0.00  0.00    -0.232 N 
ATOM      8  C   UNL     1      12.825   5.929  23.273  0.00  0.00    +0.068 C 
ATOM      9  C   UNL     1       9.646   4.252  24.059  0.00  0.00    +0.080 A 
ATOM     10  C   UNL     1       8.371   4.236  24.639  0.00  0.00    +0.072 A 
ENDROOT
BRANCH   7  11
ATOM     11  C   UNL     1      10.145   1.919  23.187  0.00  0.00    +0.066 A 
ATOM     12  C   UNL     1      10.053   0.936  24.189  0.00  0.00    +0.031 A 
ATOM     13  C   UNL     1       9.648  -0.376  23.871  0.00  0.00    -0.045 A 
ATOM     14  C   UNL     1       9.387  -0.694  22.530  0.00  0.00    +0.004 A 
ATOM     15  C   UNL     1       9.545   0.259  21.527  0.00  0.00    +0.002 A 
ATOM     16  C   UNL     1       9.920   1.562  21.852  0.00  0.00    +0.028 A 
BRANCH  13  17
ATOM     17  C   UNL     1       9.403  -1.406  24.954  0.00  0.00    +0.044 C 
BRANCH  17  18
ATOM     18  C   UNL     1       8.294  -2.407  24.618  0.00  0.00    +0.100 C 
BRANCH  18  19
ATOM     19  C   UNL     1       8.848  -3.783  24.316  0.00  0.00    +0.211 C 
ATOM     20  O   UNL     1       9.992  -4.145  24.554  0.00  0.00    -0.276 OA
ATOM     21  N   UNL     1       7.939  -4.642  23.769  0.00  0.00    -0.329 N 
ATOM     22  H   UNL     1       8.257  -5.573  23.532  0.00  0.00    +0.145 HD
ATOM     23  H   UNL     1       7.016  -4.355  23.476  0.00  0.00    +0.145 HD
ENDBRANCH  18  19
ENDBRANCH  17  18
ENDBRANCH  13  17
ENDBRANCH   7  11
BRANCH   1  24
ATOM     24  N   UNL     1       6.493   5.447  25.478  0.00  0.00    -0.322 N 
ATOM     25  H   UNL     1       6.277   6.402  25.756  0.00  0.00    +0.148 HD
BRANCH  24  26
ATOM     26  C   UNL     1       5.443   4.916  24.598  0.00  0.00    +0.099 C 
ATOM     27  C   UNL     1       5.521   5.584  23.217  0.00  0.00    +0.033 C 
BRANCH  26  28
ATOM     28  C   UNL     1       5.622   3.408  24.397  0.00  0.00    -0.028 A 
ATOM     29  C   UNL     1       5.990   2.924  23.129  0.00  0.00    +0.005 A 
ATOM     30  C   UNL     1       6.272   1.569  22.933  0.00  0.00    +0.000 A 
ATOM     31  C   UNL     1       6.186   0.675  23.997  0.00  0.00    +0.000 A 
ATOM     32  C   UNL     1       5.812   1.136  25.258  0.00  0.00    +0.000 A 
ATOM     33  C   UNL     1       5.539   2.492  25.459  0.00  0.00    +0.005 A 
ENDBRANCH  26  28
ENDBRANCH  24  26
ENDBRANCH   1  24
TORSDOF 7
ENDMDL
MODEL 9
REMARK VINA RESULT:      -6.6      2.686      5.614
REMARK  Name = 
REMARK  9 active torsions:
REMARK  status: ('A' for Active; 'I' for Inactive)
REMARK    1  A    between atoms: C_2  and  C_3
REMARK    2  A    between atoms: C_2  and  N_4
REMARK    3  A    between atoms: C_2  and  C_26
REMARK    4  A    between atoms: N_4  and  C_5
REMARK    5  A    between atoms: C_11  and  C_12
REMARK    6  A    between atoms: N_14  and  C_15
REMARK    7  A    between atoms: C_19  and  C_20
REMARK    8  A    between atoms: C_20  and  C_21
REMARK    9  A    between atoms: C_21  and  C_22
REMARK                            x       y       z     vdW  Elec       q    Type
REMARK                         _______ _______ _______ _____ _____    ______ ____
ROOT
ATOM      1  C   UNL     1       8.947  -3.232  24.395  0.00  0.00    +0.121 A 
ATOM      2  N   UNL     1       8.763  -4.534  24.104  0.00  0.00    -0.240 NA
ATOM      3  C   UNL     1       7.711  -5.207  24.635  0.00  0.00    +0.124 A 
ATOM      4  C   UNL     1       6.778  -4.550  25.444  0.00  0.00    +0.041 A 
ATOM      5  C   UNL     1       5.632  -4.914  26.188  0.00  0.00    +0.070 A 
ATOM      6  N   UNL     1       5.099  -3.871  26.834  0.00  0.00    -0.170 NA
ATOM      7  N   UNL     1       5.825  -2.796  26.419  0.00  0.00    -0.232 N 
ATOM      8  C   UNL     1       5.032  -6.265  26.340  0.00  0.00    +0.068 C 
ATOM      9  C   UNL     1       6.942  -3.190  25.685  0.00  0.00    +0.080 A 
ATOM     10  C   UNL     1       8.087  -2.523  25.229  0.00  0.00    +0.072 A 
ENDROOT
BRANCH   7  11
ATOM     11  C   UNL     1       5.389  -1.470  26.725  0.00  0.00    +0.066 A 
ATOM     12  C   UNL     1       5.497  -0.448  25.764  0.00  0.00    +0.031 A 
ATOM     13  C   UNL     1       4.996   0.841  26.030  0.00  0.00    -0.045 A 
ATOM     14  C   UNL     1       4.431   1.099  27.288  0.00  0.00    +0.004 A 
ATOM     15  C   UNL     1       4.386   0.108  28.265  0.00  0.00    +0.002 A 
ATOM     16  C   UNL     1       4.860  -1.173  27.987  0.00  0.00    +0.028 A 
BRANCH  13  17
ATOM     17  C   UNL     1       4.973   1.911  24.957  0.00  0.00    +0.044 C 
BRANCH  17  18
ATOM     18  C   UNL     1       6.363   2.335  24.475  0.00  0.00    +0.100 C 
BRANCH  18  19
ATOM     19  C   UNL     1       6.505   2.196  22.973  0.00  0.00    +0.211 C 
ATOM     20  O   UNL     1       6.767   3.114  22.207  0.00  0.00    -0.276 OA
ATOM     21  N   UNL     1       6.350   0.921  22.514  0.00  0.00    -0.329 N 
ATOM     22  H   UNL     1       6.419   0.770  21.516  0.00  0.00    +0.145 HD
ATOM     23  H   UNL     1       6.045   0.157  23.101  0.00  0.00    +0.145 HD
ENDBRANCH  18  19
ENDBRANCH  17  18
ENDBRANCH  13  17
ENDBRANCH   7  11
BRANCH   1  24
ATOM     24  N   UNL     1      10.068  -2.542  23.898  0.00  0.00    -0.322 N 
ATOM     25  H   UNL     1      10.816  -3.227  23.806  0.00  0.00    +0.148 HD
BRANCH  24  26
ATOM     26  C   UNL     1       9.871  -1.820  22.634  0.00  0.00    +0.099 C 
ATOM     27  C   UNL     1       8.471  -2.108  22.070  0.00  0.00    +0.033 C 
BRANCH  26  28
ATOM     28  C   UNL     1       9.980  -0.308  22.855  0.00  0.00    -0.028 A 
ATOM     29  C   UNL     1      10.335   0.175  24.127  0.00  0.00    +0.005 A 
ATOM     30  C   UNL     1      10.555   1.539  24.341  0.00  0.00    +0.000 A 
ATOM     31  C   UNL     1      10.419   2.442  23.291  0.00  0.00    +0.000 A 
ATOM     32  C   UNL     1      10.056   1.983  22.026  0.00  0.00    +0.000 A 
ATOM     33  C   UNL     1       9.846   0.618  21.807  0.00  0.00    +0.005 A 
ENDBRANCH  26  28
ENDBRANCH  24  26
ENDBRANCH   1  24
TORSDOF 7
ENDMDL
