MODEL 1
REMARK VINA RESULT:      -4.6      0.000      0.000
REMARK  Name = 
REMARK  1 active torsions:
REMARK  status: ('A' for Active; 'I' for Inactive)
REMARK    1  A    between atoms: O_1  and  C_2
REMARK                            x       y       z     vdW  Elec       q    Type
REMARK                         _______ _______ _______ _____ _____    ______ ____
ROOT
ATOM      1  C   UNL     1       9.938   1.366  22.403  0.00  0.00    +0.244 A 
ATOM      2  C   UNL     1       9.799   0.008  22.395  0.00  0.00    +0.170 A 
ATOM      3  N   UNL     1       9.334  -0.881  21.422  0.00  0.00    -0.147 NA
ATOM      4  N   UNL     1       9.405  -2.058  21.907  0.00  0.00    -0.181 NA
ATOM      5  C   UNL     1       9.946  -2.052  23.302  0.00  0.00    +0.223 C 
ATOM      6  C   UNL     1      10.187  -0.606  23.550  0.00  0.00    +0.098 A 
ATOM      7  N   UNL     1      10.673  -0.008  24.650  0.00  0.00    -0.236 NA
ATOM      8  C   UNL     1      10.760   1.330  24.531  0.00  0.00    +0.225 A 
ATOM      9  N   UNL     1      10.414   2.066  23.450  0.00  0.00    -0.200 NA
ENDROOT
BRANCH   1  10
ATOM     10  O   UNL     1       9.602   2.135  21.337  0.00  0.00    -0.491 OA
ATOM     11  H   UNL     1       9.998   1.627  20.608  0.00  0.00    +0.294 HD
ENDBRANCH   1  10
TORSDOF 1
ENDMDL
MODEL 2
REMARK VINA RESULT:      -4.6      6.147      7.227
REMARK  Name = 
REMARK  1 active torsions:
REMARK  status: ('A' for Active; 'I' for Inactive)
REMARK    1  A    between atoms: O_1  and  C_2
REMARK                            x       y       z     vdW  Elec       q    Type
REMARK                         _______ _______ _______ _____ _____    ______ ____
ROOT
ATOM      1  C   UNL     1       8.841  -5.401  25.117  0.00  0.00    +0.244 A 
ATOM      2  C   UNL     1       7.875  -5.368  26.081  0.00  0.00    +0.170 A 
ATOM      3  N   UNL     1       7.927  -5.534  27.467  0.00  0.00    -0.147 NA
ATOM      4  N   UNL     1       6.741  -5.409  27.918  0.00  0.00    -0.181 NA
ATOM      5  C   UNL     1       5.757  -5.137  26.824  0.00  0.00    +0.223 C 
ATOM      6  C   UNL     1       6.617  -5.126  25.610  0.00  0.00    +0.098 A 
ATOM      7  N   UNL     1       6.266  -4.927  24.329  0.00  0.00    -0.236 NA
ATOM      8  C   UNL     1       7.308  -4.985  23.479  0.00  0.00    +0.225 A 
ATOM      9  N   UNL     1       8.601  -5.215  23.805  0.00  0.00    -0.200 NA
ENDROOT
BRANCH   1  10
ATOM     10  O   UNL     1      10.147  -5.629  25.408  0.00  0.00    -0.491 OA
ATOM     11  H   UNL     1      10.537  -4.761  25.206  0.00  0.00    +0.294 HD
ENDBRANCH   1  10
TORSDOF 1
ENDMDL
MODEL 3
REMARK VINA RESULT:      -4.4      4.464      5.908
REMARK  Name = 
REMARK  1 active torsions:
REMARK  status: ('A' for Active; 'I' for Inactive)
REMARK    1  A    between atoms: O_1  and  C_2
REMARK                            x       y       z     vdW  Elec       q    Type
REMARK                         _______ _______ _______ _____ _____    ______ ____
ROOT
ATOM      1  C   UNL     1       9.185  -5.043  25.481  0.00  0.00    +0.244 A 
ATOM      2  C   UNL     1       9.063  -3.951  24.670  0.00  0.00    +0.170 A 
ATOM      3  N   UNL     1      10.008  -3.183  23.984  0.00  0.00    -0.147 NA
ATOM      4  N   UNL     1       9.381  -2.266  23.360  0.00  0.00    -0.181 NA
ATOM      5  C   UNL     1       7.904  -2.348  23.587  0.00  0.00    +0.223 C 
ATOM      6  C   UNL     1       7.780  -3.523  24.489  0.00  0.00    +0.098 A 
ATOM      7  N   UNL     1       6.673  -4.064  25.021  0.00  0.00    -0.236 NA
ATOM      8  C   UNL     1       6.927  -5.133  25.800  0.00  0.00    +0.225 A 
ATOM      9  N   UNL     1       8.142  -5.664  26.067  0.00  0.00    -0.200 NA
ENDROOT
BRANCH   1  10
ATOM     10  O   UNL     1      10.387  -5.601  25.769  0.00  0.00    -0.491 OA
ATOM     11  H   UNL     1      10.223  -6.530  25.533  0.00  0.00    +0.294 HD
ENDBRANCH   1  10
TORSDOF 1
ENDMDL
MODEL 4
REMARK VINA RESULT:      -4.3      4.343      5.220
REMARK  Name = 
REMARK  1 active torsions:
REMARK  status: ('A' for Active; 'I' for Inactive)
REMARK    1  A    between atoms: O_1  and  C_2
REMARK                            x       y       z     vdW  Elec       q    Type
REMARK                         _______ _______ _______ _____ _____    ______ ____
ROOT
ATOM      1  C   UNL     1       6.833  -2.705  23.013  0.00  0.00    +0.244 A 
ATOM      2  C   UNL     1       6.617  -3.828  22.267  0.00  0.00    +0.170 A 
ATOM      3  N   UNL     1       5.765  -4.088  21.190  0.00  0.00    -0.147 NA
ATOM      4  N   UNL     1       5.940  -5.302  20.843  0.00  0.00    -0.181 NA
ATOM      5  C   UNL     1       6.965  -5.982  21.695  0.00  0.00    +0.223 C 
ATOM      6  C   UNL     1       7.371  -4.904  22.635  0.00  0.00    +0.098 A 
ATOM      7  N   UNL     1       8.272  -4.947  23.630  0.00  0.00    -0.236 NA
ATOM      8  C   UNL     1       8.392  -3.779  24.288  0.00  0.00    +0.225 A 
ATOM      9  N   UNL     1       7.711  -2.638  24.032  0.00  0.00    -0.200 NA
ENDROOT
BRANCH   1  10
ATOM     10  O   UNL     1       6.170  -1.544  22.784  0.00  0.00    -0.491 OA
ATOM     11  H   UNL     1       6.902  -0.959  22.524  0.00  0.00    +0.294 HD
ENDBRANCH   1  10
TORSDOF 1
ENDMDL
MODEL 5
REMARK VINA RESULT:      -4.3      1.775      3.114
REMARK  Name = 
REMARK  1 active torsions:
REMARK  status: ('A' for Active; 'I' for Inactive)
REMARK    1  A    between atoms: O_1  and  C_2
REMARK                            x       y       z     vdW  Elec       q    Type
REMARK                         _______ _______ _______ _____ _____    ______ ____
ROOT
ATOM      1  C   UNL     1       9.928  -1.071  22.629  0.00  0.00    +0.244 A 
ATOM      2  C   UNL     1       9.931   0.270  22.885  0.00  0.00    +0.170 A 
ATOM      3  N   UNL     1      10.143   1.381  22.064  0.00  0.00    -0.147 NA
ATOM      4  N   UNL     1      10.038   2.424  22.789  0.00  0.00    -0.181 NA
ATOM      5  C   UNL     1       9.735   2.082  24.214  0.00  0.00    +0.223 C 
ATOM      6  C   UNL     1       9.680   0.597  24.186  0.00  0.00    +0.098 A 
ATOM      7  N   UNL     1       9.441  -0.258  25.194  0.00  0.00    -0.236 NA
ATOM      8  C   UNL     1       9.465  -1.548  24.812  0.00  0.00    +0.225 A 
ATOM      9  N   UNL     1       9.701  -2.014  23.563  0.00  0.00    -0.200 NA
ENDROOT
BRANCH   1  10
ATOM     10  O   UNL     1      10.159  -1.572  21.389  0.00  0.00    -0.491 OA
ATOM     11  H   UNL     1       9.746  -0.890  20.832  0.00  0.00    +0.294 HD
ENDBRANCH   1  10
TORSDOF 1
ENDMDL
MODEL 6
REMARK VINA RESULT:      -4.3      1.845      2.445
REMARK  Name = 
REMARK  1 active torsions:
REMARK  status: ('A' for Active; 'I' for Inactive)
REMARK    1  A    between atoms: O_1  and  C_2
REMARK                            x       y       z     vdW  Elec       q    Type
REMARK                         _______ _______ _______ _____ _____    ______ ____
ROOT
ATOM      1  C   UNL     1      10.301   0.552  24.095  0.00  0.00    +0.244 A 
ATOM      2  C   UNL     1       9.774  -0.603  23.594  0.00  0.00    +0.170 A 
ATOM      3  N   UNL     1       9.562  -1.862  24.163  0.00  0.00    -0.147 NA
ATOM      4  N   UNL     1       9.037  -2.607  23.273  0.00  0.00    -0.181 NA
ATOM      5  C   UNL     1       8.848  -1.878  21.980  0.00  0.00    +0.223 C 
ATOM      6  C   UNL     1       9.376  -0.524  22.291  0.00  0.00    +0.098 A 
ATOM      7  N   UNL     1       9.458   0.554  21.493  0.00  0.00    -0.236 NA
ATOM      8  C   UNL     1       9.994   1.626  22.105  0.00  0.00    +0.225 A 
ATOM      9  N   UNL     1      10.430   1.689  23.385  0.00  0.00    -0.200 NA
ENDROOT
BRANCH   1  10
ATOM     10  O   UNL     1      10.746   0.650  25.373  0.00  0.00    -0.491 OA
ATOM     11  H   UNL     1      11.669   0.361  25.272  0.00  0.00    +0.294 HD
ENDBRANCH   1  10
TORSDOF 1
ENDMDL
MODEL 7
REMARK VINA RESULT:      -4.2      5.609      7.144
REMARK  Name = 
REMARK  1 active torsions:
REMARK  status: ('A' for Active; 'I' for Inactive)
REMARK    1  A    between atoms: O_1  and  C_2
REMARK                            x       y       z     vdW  Elec       q    Type
REMARK                         _______ _______ _______ _____ _____    ______ ____
ROOT
ATOM      1  C   UNL     1       7.295  -5.609  26.413  0.00  0.00    +0.244 A 
ATOM      2  C   UNL     1       7.882  -4.909  25.399  0.00  0.00    +0.170 A 
ATOM      3  N   UNL     1       9.142  -4.316  25.275  0.00  0.00    -0.147 NA
ATOM      4  N   UNL     1       9.205  -3.779  24.121  0.00  0.00    -0.181 NA
ATOM      5  C   UNL     1       7.941  -3.976  23.346  0.00  0.00    +0.223 C 
ATOM      6  C   UNL     1       7.099  -4.755  24.292  0.00  0.00    +0.098 A 
ATOM      7  N   UNL     1       5.848  -5.216  24.126  0.00  0.00    -0.236 NA
ATOM      8  C   UNL     1       5.385  -5.888  25.197  0.00  0.00    +0.225 A 
ATOM      9  N   UNL     1       6.048  -6.115  26.354  0.00  0.00    -0.200 NA
ENDROOT
BRANCH   1  10
ATOM     10  O   UNL     1       7.931  -5.856  27.586  0.00  0.00    -0.491 OA
ATOM     11  H   UNL     1       7.747  -6.804  27.702  0.00  0.00    +0.294 HD
ENDBRANCH   1  10
TORSDOF 1
ENDMDL
MODEL 8
REMARK VINA RESULT:      -4.2      5.736      6.842
REMARK  Name = 
REMARK  1 active torsions:
REMARK  status: ('A' for Active; 'I' for Inactive)
REMARK    1  A    between atoms: O_1  and  C_2
REMARK                            x       y       z     vdW  Elec       q    Type
REMARK                         _______ _______ _______ _____ _____    ______ ____
ROOT
ATOM      1  C   UNL     1       7.980  -5.333  26.455  0.00  0.00    +0.244 A 
ATOM      2  C   UNL     1       7.055  -5.367  25.452  0.00  0.00    +0.170 A 
ATOM      3  N   UNL     1       5.740  -5.838  25.404  0.00  0.00    -0.147 NA
ATOM      4  N   UNL     1       5.299  -5.639  24.225  0.00  0.00    -0.181 NA
ATOM      5  C   UNL     1       6.327  -4.993  23.350  0.00  0.00    +0.223 C 
ATOM      6  C   UNL     1       7.487  -4.845  24.268  0.00  0.00    +0.098 A 
ATOM      7  N   UNL     1       8.699  -4.322  24.018  0.00  0.00    -0.236 NA
ATOM      8  C   UNL     1       9.517  -4.347  25.087  0.00  0.00    +0.225 A 
ATOM      9  N   UNL     1       9.222  -4.832  26.315  0.00  0.00    -0.200 NA
ENDROOT
BRANCH   1  10
ATOM     10  O   UNL     1       7.718  -5.809  27.699  0.00  0.00    -0.491 OA
ATOM     11  H   UNL     1       7.495  -4.988  28.170  0.00  0.00    +0.294 HD
ENDBRANCH   1  10
TORSDOF 1
ENDMDL
MODEL 9
REMARK VINA RESULT:      -4.1      2.010      3.682
REMARK  Name = 
REMARK  1 active torsions:
REMARK  status: ('A' for Active; 'I' for Inactive)
REMARK    1  A    between atoms: O_1  and  C_2
REMARK                            x       y       z     vdW  Elec       q    Type
REMARK                         _______ _______ _______ _____ _____    ______ ____
ROOT
ATOM      1  C   UNL     1       9.712  -0.341  24.857  0.00  0.00    +0.244 A 
ATOM      2  C   UNL     1       9.809   0.741  24.031  0.00  0.00    +0.170 A 
ATOM      3  N   UNL     1       9.768   2.116  24.278  0.00  0.00    -0.147 NA
ATOM      4  N   UNL     1       9.907   2.714  23.161  0.00  0.00    -0.181 NA
ATOM      5  C   UNL     1      10.058   1.748  22.028  0.00  0.00    +0.223 C 
ATOM      6  C   UNL     1       9.980   0.431  22.713  0.00  0.00    +0.098 A 
ATOM      7  N   UNL     1      10.056  -0.801  22.184  0.00  0.00    -0.236 NA
ATOM      8  C   UNL     1       9.947  -1.780  23.101  0.00  0.00    +0.225 A 
ATOM      9  N   UNL     1       9.775  -1.619  24.434  0.00  0.00    -0.200 NA
ENDROOT
BRANCH   1  10
ATOM     10  O   UNL     1       9.540  -0.217  26.197  0.00  0.00    -0.491 OA
ATOM     11  H   UNL     1       9.696  -1.131  26.491  0.00  0.00    +0.294 HD
ENDBRANCH   1  10
TORSDOF 1
ENDMDL
