MODEL 1
REMARK VINA RESULT:      -6.8      0.000      0.000
REMARK  Name = 
REMARK  8 active torsions:
REMARK  status: ('A' for Active; 'I' for Inactive)
REMARK    1  A    between atoms: C_2  and  C_25
REMARK    2  A    between atoms: C_5  and  O_6
REMARK    3  A    between atoms: O_6  and  C_7
REMARK    4  A    between atoms: C_8  and  O_9
REMARK    5  A    between atoms: O_9  and  C_10
REMARK    6  A    between atoms: C_12  and  C_13
REMARK    7  A    between atoms: C_13  and  C_14
REMARK    8  A    between atoms: C_15  and  N_16
REMARK                            x       y       z     vdW  Elec       q    Type
REMARK                         _______ _______ _______ _____ _____    ______ ____
ROOT
ATOM      1  C   UNL     1       5.982  -5.758  27.245  0.00  0.00    +0.200 C 
ATOM      2  C   UNL     1       7.291  -5.064  27.460  0.00  0.00    +0.018 C 
ATOM      3  C   UNL     1       7.985  -4.502  26.466  0.00  0.00    +0.011 C 
ATOM      4  C   UNL     1       7.433  -4.539  25.108  0.00  0.00    +0.024 A 
ATOM      5  C   UNL     1       6.284  -5.328  24.875  0.00  0.00    +0.174 A 
ATOM      6  C   UNL     1       5.718  -5.451  23.586  0.00  0.00    +0.204 A 
ATOM      7  C   UNL     1       6.258  -4.689  22.541  0.00  0.00    +0.165 A 
ATOM      8  C   UNL     1       7.394  -3.900  22.777  0.00  0.00    +0.054 A 
ATOM      9  C   UNL     1       8.022  -3.843  24.033  0.00  0.00    -0.029 A 
ATOM     10  O   UNL     1       5.682  -6.043  25.878  0.00  0.00    -0.480 OA
ENDROOT
BRANCH   1  11
ATOM     11  C   UNL     1       4.803  -5.024  27.836  0.00  0.00    +0.034 C 
ATOM     12  C   UNL     1       4.796  -4.637  29.296  0.00  0.00    +0.008 C 
ATOM     13  C   UNL     1       3.864  -5.707  28.805  0.00  0.00    +0.008 C 
ENDBRANCH   1  11
BRANCH   7  14
ATOM     14  O   UNL     1       5.863  -4.638  21.229  0.00  0.00    -0.491 OA
ATOM     15  C   UNL     1       6.153  -5.749  20.393  0.00  0.00    +0.277 C 
ENDBRANCH   7  14
BRANCH   6  16
ATOM     16  O   UNL     1       4.626  -6.240  23.310  0.00  0.00    -0.488 OA
ATOM     17  C   UNL     1       3.348  -5.611  23.306  0.00  0.00    +0.277 C 
ENDBRANCH   6  16
BRANCH   9  18
ATOM     18  C   UNL     1       9.338  -3.089  24.124  0.00  0.00    +0.076 C 
BRANCH  18  19
ATOM     19  C   UNL     1       9.456  -1.746  23.462  0.00  0.00    +0.015 A 
ATOM     20  C   UNL     1       9.904  -1.543  22.175  0.00  0.00    +0.121 A 
ATOM     21  N   UNL     1       9.896  -0.348  21.553  0.00  0.00    -0.223 NA
ATOM     22  C   UNL     1       9.436   0.685  22.258  0.00  0.00    +0.214 A 
ATOM     23  N   UNL     1       9.319   1.897  21.612  0.00  0.00    -0.327 N 
ATOM     24  H   UNL     1       9.937   1.920  20.814  0.00  0.00    +0.145 HD
ATOM     25  H   UNL     1       9.373   2.655  22.275  0.00  0.00    +0.145 HD
ATOM     26  N   UNL     1       9.083   0.626  23.545  0.00  0.00    -0.200 NA
ATOM     27  C   UNL     1       9.097  -0.578  24.126  0.00  0.00    +0.125 A 
BRANCH  27  28
ATOM     28  N   UNL     1       8.783  -0.575  25.485  0.00  0.00    -0.343 N 
ATOM     29  H   UNL     1       9.559  -0.130  25.969  0.00  0.00    +0.144 HD
ATOM     30  H   UNL     1       7.903  -0.120  25.694  0.00  0.00    +0.144 HD
ENDBRANCH  27  28
ENDBRANCH  18  19
ENDBRANCH   9  18
TORSDOF 6
ENDMDL
MODEL 2
REMARK VINA RESULT:      -6.7      1.820      1.912
REMARK  Name = 
REMARK  8 active torsions:
REMARK  status: ('A' for Active; 'I' for Inactive)
REMARK    1  A    between atoms: C_2  and  C_25
REMARK    2  A    between atoms: C_5  and  O_6
REMARK    3  A    between atoms: O_6  and  C_7
REMARK    4  A    between atoms: C_8  and  O_9
REMARK    5  A    between atoms: O_9  and  C_10
REMARK    6  A    between atoms: C_12  and  C_13
REMARK    7  A    between atoms: C_13  and  C_14
REMARK    8  A    between atoms: C_15  and  N_16
REMARK                            x       y       z     vdW  Elec       q    Type
REMARK                         _______ _______ _______ _____ _____    ______ ____
ROOT
ATOM      1  C   UNL     1       4.815  -2.932  26.930  0.00  0.00    +0.200 C 
ATOM      2  C   UNL     1       6.086  -2.163  27.116  0.00  0.00    +0.018 C 
ATOM      3  C   UNL     1       7.162  -2.345  26.345  0.00  0.00    +0.011 C 
ATOM      4  C   UNL     1       7.092  -3.318  25.250  0.00  0.00    +0.024 A 
ATOM      5  C   UNL     1       5.957  -4.156  25.172  0.00  0.00    +0.174 A 
ATOM      6  C   UNL     1       5.836  -5.149  24.174  0.00  0.00    +0.204 A 
ATOM      7  C   UNL     1       6.823  -5.228  23.183  0.00  0.00    +0.165 A 
ATOM      8  C   UNL     1       7.946  -4.390  23.258  0.00  0.00    +0.054 A 
ATOM      9  C   UNL     1       8.123  -3.463  24.299  0.00  0.00    -0.029 A 
ATOM     10  O   UNL     1       4.935  -4.075  26.082  0.00  0.00    -0.480 OA
ENDROOT
BRANCH   1  11
ATOM     11  C   UNL     1       3.668  -2.094  26.421  0.00  0.00    +0.034 C 
ATOM     12  C   UNL     1       3.273  -0.823  27.136  0.00  0.00    +0.008 C 
ATOM     13  C   UNL     1       2.362  -2.016  27.179  0.00  0.00    +0.008 C 
ENDBRANCH   1  11
BRANCH   7  14
ATOM     14  O   UNL     1       6.900  -6.093  22.122  0.00  0.00    -0.491 OA
ATOM     15  C   UNL     1       6.280  -5.721  20.900  0.00  0.00    +0.277 C 
ENDBRANCH   7  14
BRANCH   6  16
ATOM     16  O   UNL     1       4.768  -6.012  24.089  0.00  0.00    -0.488 OA
ATOM     17  C   UNL     1       3.611  -5.555  23.393  0.00  0.00    +0.277 C 
ENDBRANCH   6  16
BRANCH   9  18
ATOM     18  C   UNL     1       9.453  -2.730  24.365  0.00  0.00    +0.076 C 
BRANCH  18  19
ATOM     19  C   UNL     1       9.632  -1.470  23.569  0.00  0.00    +0.015 A 
ATOM     20  C   UNL     1       9.700  -1.414  22.194  0.00  0.00    +0.121 A 
ATOM     21  N   UNL     1       9.745  -0.269  21.486  0.00  0.00    -0.223 NA
ATOM     22  C   UNL     1       9.735   0.863  22.189  0.00  0.00    +0.214 A 
ATOM     23  N   UNL     1       9.674   2.048  21.487  0.00  0.00    -0.327 N 
ATOM     24  H   UNL     1      10.013   1.908  20.547  0.00  0.00    +0.145 HD
ATOM     25  H   UNL     1      10.076   2.798  22.029  0.00  0.00    +0.145 HD
ATOM     26  N   UNL     1       9.784   0.927  23.522  0.00  0.00    -0.200 NA
ATOM     27  C   UNL     1       9.731  -0.229  24.190  0.00  0.00    +0.125 A 
BRANCH  27  28
ATOM     28  N   UNL     1       9.850  -0.111  25.574  0.00  0.00    -0.343 N 
ATOM     29  H   UNL     1       9.042  -0.578  25.984  0.00  0.00    +0.144 HD
ATOM     30  H   UNL     1      10.718  -0.483  25.938  0.00  0.00    +0.144 HD
ENDBRANCH  27  28
ENDBRANCH  18  19
ENDBRANCH   9  18
TORSDOF 6
ENDMDL
MODEL 3
REMARK VINA RESULT:      -6.5      4.119      7.348
REMARK  Name = 
REMARK  8 active torsions:
REMARK  status: ('A' for Active; 'I' for Inactive)
REMARK    1  A    between atoms: C_2  and  C_25
REMARK    2  A    between atoms: C_5  and  O_6
REMARK    3  A    between atoms: O_6  and  C_7
REMARK    4  A    between atoms: C_8  and  O_9
REMARK    5  A    between atoms: O_9  and  C_10
REMARK    6  A    between atoms: C_12  and  C_13
REMARK    7  A    between atoms: C_13  and  C_14
REMARK    8  A    between atoms: C_15  and  N_16
REMARK                            x       y       z     vdW  Elec       q    Type
REMARK                         _______ _______ _______ _____ _____    ______ ____
ROOT
ATOM      1  C   UNL     1      10.218  -0.239  23.472  0.00  0.00    +0.200 C 
ATOM      2  C   UNL     1      10.363  -1.723  23.341  0.00  0.00    +0.018 C 
ATOM      3  C   UNL     1       9.399  -2.579  23.695  0.00  0.00    +0.011 C 
ATOM      4  C   UNL     1       8.133  -2.046  24.208  0.00  0.00    +0.024 A 
ATOM      5  C   UNL     1       8.052  -0.663  24.482  0.00  0.00    +0.174 A 
ATOM      6  C   UNL     1       6.882  -0.080  25.020  0.00  0.00    +0.204 A 
ATOM      7  C   UNL     1       5.747  -0.886  25.186  0.00  0.00    +0.165 A 
ATOM      8  C   UNL     1       5.828  -2.259  24.906  0.00  0.00    +0.054 A 
ATOM      9  C   UNL     1       7.014  -2.866  24.459  0.00  0.00    -0.029 A 
ATOM     10  O   UNL     1       9.115   0.178  24.277  0.00  0.00    -0.480 OA
ENDROOT
BRANCH   1  11
ATOM     11  C   UNL     1      10.125   0.480  22.148  0.00  0.00    +0.034 C 
ATOM     12  C   UNL     1       9.037   1.499  21.905  0.00  0.00    +0.008 C 
ATOM     13  C   UNL     1       9.004   0.187  21.177  0.00  0.00    +0.008 C 
ENDBRANCH   1  11
BRANCH   7  14
ATOM     14  O   UNL     1       4.514  -0.534  25.670  0.00  0.00    -0.491 OA
ATOM     15  C   UNL     1       4.268  -0.672  27.062  0.00  0.00    +0.277 C 
ENDBRANCH   7  14
BRANCH   6  16
ATOM     16  O   UNL     1       6.777   1.253  25.339  0.00  0.00    -0.488 OA
ATOM     17  C   UNL     1       7.123   1.637  26.667  0.00  0.00    +0.277 C 
ENDBRANCH   6  16
BRANCH   9  18
ATOM     18  C   UNL     1       7.025  -4.382  24.350  0.00  0.00    +0.076 C 
BRANCH  18  19
ATOM     19  C   UNL     1       6.756  -5.204  25.577  0.00  0.00    +0.015 A 
ATOM     20  C   UNL     1       7.543  -5.205  26.708  0.00  0.00    +0.121 A 
ATOM     21  N   UNL     1       7.230  -5.857  27.845  0.00  0.00    -0.223 NA
ATOM     22  C   UNL     1       6.089  -6.545  27.838  0.00  0.00    +0.214 A 
ATOM     23  N   UNL     1       5.693  -7.134  29.021  0.00  0.00    -0.327 N 
ATOM     24  H   UNL     1       6.494  -7.271  29.620  0.00  0.00    +0.145 HD
ATOM     25  H   UNL     1       5.099  -7.928  28.836  0.00  0.00    +0.145 HD
ATOM     26  N   UNL     1       5.307  -6.706  26.768  0.00  0.00    -0.200 NA
ATOM     27  C   UNL     1       5.646  -6.038  25.660  0.00  0.00    +0.125 A 
BRANCH  27  28
ATOM     28  N   UNL     1       4.835  -6.290  24.554  0.00  0.00    -0.343 N 
ATOM     29  H   UNL     1       4.283  -5.450  24.392  0.00  0.00    +0.144 HD
ATOM     30  H   UNL     1       5.353  -6.560  23.728  0.00  0.00    +0.144 HD
ENDBRANCH  27  28
ENDBRANCH  18  19
ENDBRANCH   9  18
TORSDOF 6
ENDMDL
MODEL 4
REMARK VINA RESULT:      -6.5      1.534      2.056
REMARK  Name = 
REMARK  8 active torsions:
REMARK  status: ('A' for Active; 'I' for Inactive)
REMARK    1  A    between atoms: C_2  and  C_25
REMARK    2  A    between atoms: C_5  and  O_6
REMARK    3  A    between atoms: O_6  and  C_7
REMARK    4  A    between atoms: C_8  and  O_9
REMARK    5  A    between atoms: O_9  and  C_10
REMARK    6  A    between atoms: C_12  and  C_13
REMARK    7  A    between atoms: C_13  and  C_14
REMARK    8  A    between atoms: C_15  and  N_16
REMARK                            x       y       z     vdW  Elec       q    Type
REMARK                         _______ _______ _______ _____ _____    ______ ____
ROOT
ATOM      1  C   UNL     1       4.729  -6.841  28.348  0.00  0.00    +0.200 C 
ATOM      2  C   UNL     1       5.757  -5.828  28.744  0.00  0.00    +0.018 C 
ATOM      3  C   UNL     1       6.429  -5.092  27.852  0.00  0.00    +0.011 C 
ATOM      4  C   UNL     1       6.132  -5.261  26.427  0.00  0.00    +0.024 A 
ATOM      5  C   UNL     1       5.284  -6.323  26.043  0.00  0.00    +0.174 A 
ATOM      6  C   UNL     1       4.985  -6.580  24.685  0.00  0.00    +0.204 A 
ATOM      7  C   UNL     1       5.464  -5.691  23.714  0.00  0.00    +0.165 A 
ATOM      8  C   UNL     1       6.300  -4.632  24.099  0.00  0.00    +0.054 A 
ATOM      9  C   UNL     1       6.681  -4.423  25.435  0.00  0.00    -0.029 A 
ATOM     10  O   UNL     1       4.739  -7.182  26.962  0.00  0.00    -0.480 OA
ENDROOT
BRANCH   1  11
ATOM     11  C   UNL     1       3.320  -6.453  28.722  0.00  0.00    +0.034 C 
ATOM     12  C   UNL     1       3.033  -5.806  30.057  0.00  0.00    +0.008 C 
ATOM     13  C   UNL     1       2.559  -7.206  29.790  0.00  0.00    +0.008 C 
ENDBRANCH   1  11
BRANCH   7  14
ATOM     14  O   UNL     1       5.286  -5.735  22.355  0.00  0.00    -0.491 OA
ATOM     15  C   UNL     1       6.435  -5.821  21.524  0.00  0.00    +0.277 C 
ENDBRANCH   7  14
BRANCH   6  16
ATOM     16  O   UNL     1       4.198  -7.628  24.268  0.00  0.00    -0.488 OA
ATOM     17  C   UNL     1       2.797  -7.393  24.159  0.00  0.00    +0.277 C 
ENDBRANCH   6  16
BRANCH   9  18
ATOM     18  C   UNL     1       7.720  -3.347  25.707  0.00  0.00    +0.076 C 
BRANCH  18  19
ATOM     19  C   UNL     1       8.354  -2.636  24.546  0.00  0.00    +0.015 A 
ATOM     20  C   UNL     1       9.578  -2.960  24.002  0.00  0.00    +0.121 A 
ATOM     21  N   UNL     1      10.084  -2.391  22.890  0.00  0.00    -0.223 NA
ATOM     22  C   UNL     1       9.336  -1.452  22.312  0.00  0.00    +0.214 A 
ATOM     23  N   UNL     1       9.782  -0.929  21.117  0.00  0.00    -0.327 N 
ATOM     24  H   UNL     1      10.779  -1.062  21.035  0.00  0.00    +0.145 HD
ATOM     25  H   UNL     1       9.415   0.001  20.982  0.00  0.00    +0.145 HD
ATOM     26  N   UNL     1       8.191  -0.981  22.812  0.00  0.00    -0.200 NA
ATOM     27  C   UNL     1       7.717  -1.574  23.913  0.00  0.00    +0.125 A 
BRANCH  27  28
ATOM     28  N   UNL     1       6.554  -1.004  24.429  0.00  0.00    -0.343 N 
ATOM     29  H   UNL     1       6.766  -0.031  24.639  0.00  0.00    +0.144 HD
ATOM     30  H   UNL     1       5.756  -1.086  23.812  0.00  0.00    +0.144 HD
ENDBRANCH  27  28
ENDBRANCH  18  19
ENDBRANCH   9  18
TORSDOF 6
ENDMDL
MODEL 5
REMARK VINA RESULT:      -6.4      1.842      3.793
REMARK  Name = 
REMARK  8 active torsions:
REMARK  status: ('A' for Active; 'I' for Inactive)
REMARK    1  A    between atoms: C_2  and  C_25
REMARK    2  A    between atoms: C_5  and  O_6
REMARK    3  A    between atoms: O_6  and  C_7
REMARK    4  A    between atoms: C_8  and  O_9
REMARK    5  A    between atoms: O_9  and  C_10
REMARK    6  A    between atoms: C_12  and  C_13
REMARK    7  A    between atoms: C_13  and  C_14
REMARK    8  A    between atoms: C_15  and  N_16
REMARK                            x       y       z     vdW  Elec       q    Type
REMARK                         _______ _______ _______ _____ _____    ______ ____
ROOT
ATOM      1  C   UNL     1       2.956  -6.196  24.770  0.00  0.00    +0.200 C 
ATOM      2  C   UNL     1       2.953  -5.264  23.598  0.00  0.00    +0.018 C 
ATOM      3  C   UNL     1       4.015  -4.528  23.256  0.00  0.00    +0.011 C 
ATOM      4  C   UNL     1       5.246  -4.654  24.041  0.00  0.00    +0.024 A 
ATOM      5  C   UNL     1       5.202  -5.405  25.237  0.00  0.00    +0.174 A 
ATOM      6  C   UNL     1       6.335  -5.537  26.072  0.00  0.00    +0.204 A 
ATOM      7  C   UNL     1       7.551  -4.988  25.644  0.00  0.00    +0.165 A 
ATOM      8  C   UNL     1       7.594  -4.248  24.452  0.00  0.00    +0.054 A 
ATOM      9  C   UNL     1       6.453  -4.032  23.661  0.00  0.00    -0.029 A 
ATOM     10  O   UNL     1       4.052  -6.014  25.667  0.00  0.00    -0.480 OA
ENDROOT
BRANCH   1  11
ATOM     11  C   UNL     1       2.907  -7.654  24.385  0.00  0.00    +0.034 C 
ATOM     12  C   UNL     1       1.812  -8.171  23.482  0.00  0.00    +0.008 C 
ATOM     13  C   UNL     1       1.833  -8.570  24.929  0.00  0.00    +0.008 C 
ENDBRANCH   1  11
BRANCH   7  14
ATOM     14  O   UNL     1       8.767  -5.009  26.277  0.00  0.00    -0.491 OA
ATOM     15  C   UNL     1       9.938  -5.162  25.488  0.00  0.00    +0.277 C 
ENDBRANCH   7  14
BRANCH   6  16
ATOM     16  O   UNL     1       6.322  -6.224  27.263  0.00  0.00    -0.488 OA
ATOM     17  C   UNL     1       5.884  -5.519  28.422  0.00  0.00    +0.277 C 
ENDBRANCH   6  16
BRANCH   9  18
ATOM     18  C   UNL     1       6.587  -3.078  22.485  0.00  0.00    +0.076 C 
BRANCH  18  19
ATOM     19  C   UNL     1       7.595  -1.967  22.559  0.00  0.00    +0.015 A 
ATOM     20  C   UNL     1       8.886  -2.047  22.085  0.00  0.00    +0.121 A 
ATOM     21  N   UNL     1       9.744  -1.009  22.052  0.00  0.00    -0.223 NA
ATOM     22  C   UNL     1       9.290   0.150  22.528  0.00  0.00    +0.214 A 
ATOM     23  N   UNL     1      10.110   1.252  22.410  0.00  0.00    -0.327 N 
ATOM     24  H   UNL     1      11.071   0.956  22.317  0.00  0.00    +0.145 HD
ATOM     25  H   UNL     1       9.890   1.931  23.123  0.00  0.00    +0.145 HD
ATOM     26  N   UNL     1       8.101   0.315  23.112  0.00  0.00    -0.200 NA
ATOM     27  C   UNL     1       7.274  -0.736  23.120  0.00  0.00    +0.125 A 
BRANCH  27  28
ATOM     28  N   UNL     1       6.073  -0.530  23.797  0.00  0.00    -0.343 N 
ATOM     29  H   UNL     1       5.443  -1.282  23.523  0.00  0.00    +0.144 HD
ATOM     30  H   UNL     1       6.180  -0.483  24.803  0.00  0.00    +0.144 HD
ENDBRANCH  27  28
ENDBRANCH  18  19
ENDBRANCH   9  18
TORSDOF 6
ENDMDL
MODEL 6
REMARK VINA RESULT:      -6.3      2.439      3.950
REMARK  Name = 
REMARK  8 active torsions:
REMARK  status: ('A' for Active; 'I' for Inactive)
REMARK    1  A    between atoms: C_2  and  C_25
REMARK    2  A    between atoms: C_5  and  O_6
REMARK    3  A    between atoms: O_6  and  C_7
REMARK    4  A    between atoms: C_8  and  O_9
REMARK    5  A    between atoms: O_9  and  C_10
REMARK    6  A    between atoms: C_12  and  C_13
REMARK    7  A    between atoms: C_13  and  C_14
REMARK    8  A    between atoms: C_15  and  N_16
REMARK                            x       y       z     vdW  Elec       q    Type
REMARK                         _______ _______ _______ _____ _____    ______ ____
ROOT
ATOM      1  C   UNL     1       4.967  -5.079  25.165  0.00  0.00    +0.200 C 
ATOM      2  C   UNL     1       4.251  -3.772  25.307  0.00  0.00    +0.018 C 
ATOM      3  C   UNL     1       4.838  -2.595  25.069  0.00  0.00    +0.011 C 
ATOM      4  C   UNL     1       6.235  -2.578  24.624  0.00  0.00    +0.024 A 
ATOM      5  C   UNL     1       6.957  -3.792  24.645  0.00  0.00    +0.174 A 
ATOM      6  C   UNL     1       8.320  -3.849  24.274  0.00  0.00    +0.204 A 
ATOM      7  C   UNL     1       8.931  -2.689  23.780  0.00  0.00    +0.165 A 
ATOM      8  C   UNL     1       8.208  -1.486  23.753  0.00  0.00    +0.054 A 
ATOM      9  C   UNL     1       6.881  -1.397  24.207  0.00  0.00    -0.029 A 
ATOM     10  O   UNL     1       6.387  -4.966  25.061  0.00  0.00    -0.480 OA
ENDROOT
BRANCH   1  11
ATOM     11  C   UNL     1       4.481  -5.915  24.007  0.00  0.00    +0.034 C 
ATOM     12  C   UNL     1       3.032  -5.863  23.581  0.00  0.00    +0.008 C 
ATOM     13  C   UNL     1       3.573  -7.104  24.229  0.00  0.00    +0.008 C 
ENDBRANCH   1  11
BRANCH   7  14
ATOM     14  O   UNL     1      10.222  -2.520  23.352  0.00  0.00    -0.491 OA
ATOM     15  C   UNL     1      10.499  -1.468  22.438  0.00  0.00    +0.277 C 
ENDBRANCH   7  14
BRANCH   6  16
ATOM     16  O   UNL     1       9.070  -5.002  24.321  0.00  0.00    -0.488 OA
ATOM     17  C   UNL     1       9.819  -5.248  25.507  0.00  0.00    +0.277 C 
ENDBRANCH   6  16
BRANCH   9  18
ATOM     18  C   UNL     1       6.260  -0.011  24.285  0.00  0.00    +0.076 C 
BRANCH  18  19
ATOM     19  C   UNL     1       7.088   1.181  23.900  0.00  0.00    +0.015 A 
ATOM     20  C   UNL     1       7.196   1.681  22.621  0.00  0.00    +0.121 A 
ATOM     21  N   UNL     1       7.848   2.817  22.307  0.00  0.00    -0.223 NA
ATOM     22  C   UNL     1       8.425   3.468  23.317  0.00  0.00    +0.214 A 
ATOM     23  N   UNL     1       9.007   4.687  23.040  0.00  0.00    -0.327 N 
ATOM     24  H   UNL     1       9.237   4.741  22.058  0.00  0.00    +0.145 HD
ATOM     25  H   UNL     1       9.736   4.888  23.709  0.00  0.00    +0.145 HD
ATOM     26  N   UNL     1       8.479   3.020  24.574  0.00  0.00    -0.200 NA
ATOM     27  C   UNL     1       7.815   1.893  24.849  0.00  0.00    +0.125 A 
BRANCH  27  28
ATOM     28  N   UNL     1       7.956   1.435  26.158  0.00  0.00    -0.343 N 
ATOM     29  H   UNL     1       8.789   1.879  26.541  0.00  0.00    +0.144 HD
ATOM     30  H   UNL     1       7.144   1.609  26.736  0.00  0.00    +0.144 HD
ENDBRANCH  27  28
ENDBRANCH  18  19
ENDBRANCH   9  18
TORSDOF 6
ENDMDL
MODEL 7
REMARK VINA RESULT:      -6.3      2.306      3.587
REMARK  Name = 
REMARK  8 active torsions:
REMARK  status: ('A' for Active; 'I' for Inactive)
REMARK    1  A    between atoms: C_2  and  C_25
REMARK    2  A    between atoms: C_5  and  O_6
REMARK    3  A    between atoms: O_6  and  C_7
REMARK    4  A    between atoms: C_8  and  O_9
REMARK    5  A    between atoms: O_9  and  C_10
REMARK    6  A    between atoms: C_12  and  C_13
REMARK    7  A    between atoms: C_13  and  C_14
REMARK    8  A    between atoms: C_15  and  N_16
REMARK                            x       y       z     vdW  Elec       q    Type
REMARK                         _______ _______ _______ _____ _____    ______ ____
ROOT
ATOM      1  C   UNL     1       5.220  -5.781  23.138  0.00  0.00    +0.200 C 
ATOM      2  C   UNL     1       6.680  -5.630  22.842  0.00  0.00    +0.018 C 
ATOM      3  C   UNL     1       7.406  -4.599  23.283  0.00  0.00    +0.011 C 
ATOM      4  C   UNL     1       6.758  -3.582  24.117  0.00  0.00    +0.024 A 
ATOM      5  C   UNL     1       5.354  -3.635  24.265  0.00  0.00    +0.174 A 
ATOM      6  C   UNL     1       4.650  -2.665  25.015  0.00  0.00    +0.204 A 
ATOM      7  C   UNL     1       5.383  -1.692  25.708  0.00  0.00    +0.165 A 
ATOM      8  C   UNL     1       6.778  -1.647  25.566  0.00  0.00    +0.054 A 
ATOM      9  C   UNL     1       7.480  -2.548  24.747  0.00  0.00    -0.029 A 
ATOM     10  O   UNL     1       4.599  -4.604  23.658  0.00  0.00    -0.480 OA
ENDROOT
BRANCH   1  11
ATOM     11  C   UNL     1       4.906  -6.923  24.073  0.00  0.00    +0.034 C 
ATOM     12  C   UNL     1       3.565  -7.000  24.764  0.00  0.00    +0.008 C 
ATOM     13  C   UNL     1       4.800  -6.705  25.566  0.00  0.00    +0.008 C 
ENDBRANCH   1  11
BRANCH   7  14
ATOM     14  O   UNL     1       4.916  -0.676  26.502  0.00  0.00    -0.491 OA
ATOM     15  C   UNL     1       5.193  -0.724  27.894  0.00  0.00    +0.277 C 
ENDBRANCH   7  14
BRANCH   6  16
ATOM     16  O   UNL     1       3.282  -2.658  25.149  0.00  0.00    -0.488 OA
ATOM     17  C   UNL     1       2.719  -3.472  26.174  0.00  0.00    +0.277 C 
ENDBRANCH   6  16
BRANCH   9  18
ATOM     18  C   UNL     1       8.965  -2.297  24.542  0.00  0.00    +0.076 C 
BRANCH  18  19
ATOM     19  C   UNL     1       9.398  -1.123  23.712  0.00  0.00    +0.015 A 
ATOM     20  C   UNL     1       9.424  -1.105  22.334  0.00  0.00    +0.121 A 
ATOM     21  N   UNL     1       9.703  -0.011  21.599  0.00  0.00    -0.223 NA
ATOM     22  C   UNL     1       9.981   1.103  22.275  0.00  0.00    +0.214 A 
ATOM     23  N   UNL     1      10.167   2.260  21.549  0.00  0.00    -0.327 N 
ATOM     24  H   UNL     1      10.429   2.031  20.601  0.00  0.00    +0.145 HD
ATOM     25  H   UNL     1      10.751   2.905  22.060  0.00  0.00    +0.145 HD
ATOM     26  N   UNL     1      10.094   1.174  23.604  0.00  0.00    -0.200 NA
ATOM     27  C   UNL     1       9.803   0.070  24.300  0.00  0.00    +0.125 A 
BRANCH  27  28
ATOM     28  N   UNL     1       9.999   0.178  25.677  0.00  0.00    -0.343 N 
ATOM     29  H   UNL     1      10.508  -0.653  25.972  0.00  0.00    +0.144 HD
ATOM     30  H   UNL     1      10.480   1.026  25.950  0.00  0.00    +0.144 HD
ENDBRANCH  27  28
ENDBRANCH  18  19
ENDBRANCH   9  18
TORSDOF 6
ENDMDL
MODEL 8
REMARK VINA RESULT:      -6.3      5.465      9.064
REMARK  Name = 
REMARK  8 active torsions:
REMARK  status: ('A' for Active; 'I' for Inactive)
REMARK    1  A    between atoms: C_2  and  C_25
REMARK    2  A    between atoms: C_5  and  O_6
REMARK    3  A    between atoms: O_6  and  C_7
REMARK    4  A    between atoms: C_8  and  O_9
REMARK    5  A    between atoms: O_9  and  C_10
REMARK    6  A    between atoms: C_12  and  C_13
REMARK    7  A    between atoms: C_13  and  C_14
REMARK    8  A    between atoms: C_15  and  N_16
REMARK                            x       y       z     vdW  Elec       q    Type
REMARK                         _______ _______ _______ _____ _____    ______ ____
ROOT
ATOM      1  C   UNL     1       5.944   4.513  22.985  0.00  0.00    +0.200 C 
ATOM      2  C   UNL     1       6.117   3.120  22.463  0.00  0.00    +0.018 C 
ATOM      3  C   UNL     1       7.312   2.530  22.357  0.00  0.00    +0.011 C 
ATOM      4  C   UNL     1       8.505   3.263  22.795  0.00  0.00    +0.024 A 
ATOM      5  C   UNL     1       8.364   4.627  23.134  0.00  0.00    +0.174 A 
ATOM      6  C   UNL     1       9.473   5.413  23.522  0.00  0.00    +0.204 A 
ATOM      7  C   UNL     1      10.719   4.788  23.667  0.00  0.00    +0.165 A 
ATOM      8  C   UNL     1      10.854   3.431  23.336  0.00  0.00    +0.054 A 
ATOM      9  C   UNL     1       9.779   2.663  22.860  0.00  0.00    -0.029 A 
ATOM     10  O   UNL     1       7.154   5.267  23.069  0.00  0.00    -0.480 OA
ENDROOT
BRANCH   1  11
ATOM     11  C   UNL     1       5.262   4.576  24.329  0.00  0.00    +0.034 C 
ATOM     12  C   UNL     1       4.060   3.708  24.619  0.00  0.00    +0.008 C 
ATOM     13  C   UNL     1       3.890   5.194  24.481  0.00  0.00    +0.008 C 
ENDBRANCH   1  11
BRANCH   7  14
ATOM     14  O   UNL     1      11.914   5.345  24.044  0.00  0.00    -0.491 OA
ATOM     15  C   UNL     1      12.903   5.562  23.048  0.00  0.00    +0.277 C 
ENDBRANCH   7  14
BRANCH   6  16
ATOM     16  O   UNL     1       9.385   6.752  23.820  0.00  0.00    -0.488 OA
ATOM     17  C   UNL     1       9.198   7.108  25.188  0.00  0.00    +0.277 C 
ENDBRANCH   6  16
BRANCH   9  18
ATOM     18  C   UNL     1      10.084   1.254  22.378  0.00  0.00    +0.076 C 
BRANCH  18  19
ATOM     19  C   UNL     1       9.777   0.093  23.279  0.00  0.00    +0.015 A 
ATOM     20  C   UNL     1       9.675   0.171  24.651  0.00  0.00    +0.121 A 
ATOM     21  N   UNL     1       9.286  -0.852  25.438  0.00  0.00    -0.223 NA
ATOM     22  C   UNL     1       9.004  -1.999  24.822  0.00  0.00    +0.214 A 
ATOM     23  N   UNL     1       8.504  -3.029  25.592  0.00  0.00    -0.327 N 
ATOM     24  H   UNL     1       8.765  -2.893  26.557  0.00  0.00    +0.145 HD
ATOM     25  H   UNL     1       8.711  -3.919  25.165  0.00  0.00    +0.145 HD
ATOM     26  N   UNL     1       9.175  -2.221  23.517  0.00  0.00    -0.200 NA
ATOM     27  C   UNL     1       9.556  -1.181  22.767  0.00  0.00    +0.125 A 
BRANCH  27  28
ATOM     28  N   UNL     1       9.782  -1.480  21.424  0.00  0.00    -0.343 N 
ATOM     29  H   UNL     1      10.205  -2.406  21.392  0.00  0.00    +0.144 HD
ATOM     30  H   UNL     1       8.947  -1.433  20.854  0.00  0.00    +0.144 HD
ENDBRANCH  27  28
ENDBRANCH  18  19
ENDBRANCH   9  18
TORSDOF 6
ENDMDL
MODEL 9
REMARK VINA RESULT:      -6.3      4.138      7.277
REMARK  Name = 
REMARK  8 active torsions:
REMARK  status: ('A' for Active; 'I' for Inactive)
REMARK    1  A    between atoms: C_2  and  C_25
REMARK    2  A    between atoms: C_5  and  O_6
REMARK    3  A    between atoms: O_6  and  C_7
REMARK    4  A    between atoms: C_8  and  O_9
REMARK    5  A    between atoms: O_9  and  C_10
REMARK    6  A    between atoms: C_12  and  C_13
REMARK    7  A    between atoms: C_13  and  C_14
REMARK    8  A    between atoms: C_15  and  N_16
REMARK                            x       y       z     vdW  Elec       q    Type
REMARK                         _______ _______ _______ _____ _____    ______ ____
ROOT
ATOM      1  C   UNL     1       9.805  -0.523  23.927  0.00  0.00    +0.200 C 
ATOM      2  C   UNL     1       9.848  -1.928  23.412  0.00  0.00    +0.018 C 
ATOM      3  C   UNL     1       9.054  -2.896  23.881  0.00  0.00    +0.011 C 
ATOM      4  C   UNL     1       8.078  -2.567  24.925  0.00  0.00    +0.024 A 
ATOM      5  C   UNL     1       8.145  -1.289  25.523  0.00  0.00    +0.174 A 
ATOM      6  C   UNL     1       7.269  -0.912  26.567  0.00  0.00    +0.204 A 
ATOM      7  C   UNL     1       6.249  -1.799  26.940  0.00  0.00    +0.165 A 
ATOM      8  C   UNL     1       6.181  -3.065  26.338  0.00  0.00    +0.054 A 
ATOM      9  C   UNL     1       7.104  -3.486  25.366  0.00  0.00    -0.029 A 
ATOM     10  O   UNL     1       9.084  -0.364  25.150  0.00  0.00    -0.480 OA
ENDROOT
BRANCH   1  11
ATOM     11  C   UNL     1       9.258   0.471  22.932  0.00  0.00    +0.034 C 
ATOM     12  C   UNL     1       9.466   0.264  21.451  0.00  0.00    +0.008 C 
ATOM     13  C   UNL     1      10.179   1.383  22.153  0.00  0.00    +0.008 C 
ENDBRANCH   1  11
BRANCH   7  14
ATOM     14  O   UNL     1       5.288  -1.637  27.904  0.00  0.00    -0.491 OA
ATOM     15  C   UNL     1       4.196  -2.545  27.929  0.00  0.00    +0.277 C 
ENDBRANCH   7  14
BRANCH   6  16
ATOM     16  O   UNL     1       7.328   0.305  27.203  0.00  0.00    -0.488 OA
ATOM     17  C   UNL     1       6.529   1.360  26.674  0.00  0.00    +0.277 C 
ENDBRANCH   6  16
BRANCH   9  18
ATOM     18  C   UNL     1       7.029  -4.934  24.911  0.00  0.00    +0.076 C 
BRANCH  18  19
ATOM     19  C   UNL     1       5.712  -5.484  24.442  0.00  0.00    +0.015 A 
ATOM     20  C   UNL     1       5.107  -5.156  23.248  0.00  0.00    +0.121 A 
ATOM     21  N   UNL     1       3.984  -5.741  22.786  0.00  0.00    -0.223 NA
ATOM     22  C   UNL     1       3.443  -6.680  23.560  0.00  0.00    +0.214 A 
ATOM     23  N   UNL     1       2.356  -7.367  23.063  0.00  0.00    -0.327 N 
ATOM     24  H   UNL     1       1.901  -6.818  22.348  0.00  0.00    +0.145 HD
ATOM     25  H   UNL     1       1.790  -7.724  23.819  0.00  0.00    +0.145 HD
ATOM     26  N   UNL     1       3.879  -6.999  24.781  0.00  0.00    -0.200 NA
ATOM     27  C   UNL     1       4.999  -6.403  25.204  0.00  0.00    +0.125 A 
BRANCH  27  28
ATOM     28  N   UNL     1       5.375  -6.721  26.508  0.00  0.00    -0.343 N 
ATOM     29  H   UNL     1       5.813  -7.639  26.476  0.00  0.00    +0.144 HD
ATOM     30  H   UNL     1       5.984  -6.032  26.931  0.00  0.00    +0.144 HD
ENDBRANCH  27  28
ENDBRANCH  18  19
ENDBRANCH   9  18
TORSDOF 6
ENDMDL
