MODEL 1
REMARK VINA RESULT:      -8.0      0.000      0.000
REMARK  Name = 
REMARK  10 active torsions:
REMARK  status: ('A' for Active; 'I' for Inactive)
REMARK    1  A    between atoms: C_1  and  C_2
REMARK    2  A    between atoms: C_2  and  C_3
REMARK    3  A    between atoms: C_4  and  C_5
REMARK    4  A    between atoms: C_5  and  C_7
REMARK    5  A    between atoms: C_11  and  O_12
REMARK    6  A    between atoms: C_20  and  S_23
REMARK    7  A    between atoms: S_23  and  N_26
REMARK    8  A    between atoms: N_26  and  C_27
REMARK    9  A    between atoms: C_30  and  S_33
REMARK   10  A    between atoms: S_33  and  N_36
REMARK                            x       y       z     vdW  Elec       q    Type
REMARK                         _______ _______ _______ _____ _____    ______ ____
ROOT
ATOM      1  C   UNL     1      10.147   4.385  23.877  0.00  0.00    +0.117 A 
ATOM      2  O   UNL     1      10.699   3.302  23.256  0.00  0.00    -0.459 OA
ATOM      3  C   UNL     1       9.853   2.255  23.426  0.00  0.00    +0.138 A 
ATOM      4  C   UNL     1      10.072   0.961  22.957  0.00  0.00    +0.075 A 
ATOM      5  C   UNL     1       9.034   0.046  23.177  0.00  0.00    +0.112 A 
ATOM      6  C   UNL     1       7.857   0.415  23.839  0.00  0.00    +0.029 A 
ATOM      7  C   UNL     1       7.685   1.723  24.311  0.00  0.00    +0.014 A 
ATOM      8  C   UNL     1       8.723   2.660  24.128  0.00  0.00    +0.031 A 
ATOM      9  C   UNL     1       8.968   4.021  24.514  0.00  0.00    +0.071 A 
ENDROOT
BRANCH   5  10
ATOM     10  S   UNL     1       9.241  -1.652  22.667  0.00  0.00    +0.072 S 
ATOM     11  O   UNL     1      10.261  -1.664  21.638  0.00  0.00    -0.150 OA
ATOM     12  O   UNL     1       7.928  -2.210  22.428  0.00  0.00    -0.150 OA
BRANCH  10  13
ATOM     13  N   UNL     1       9.929  -2.392  24.014  0.00  0.00    -0.216 N 
ATOM     14  H   UNL     1      10.756  -1.919  24.370  0.00  0.00    +0.174 HD
BRANCH  13  15
ATOM     15  C   UNL     1       9.110  -3.117  24.912  0.00  0.00    +0.048 A 
ATOM     16  C   UNL     1       8.315  -2.439  25.839  0.00  0.00    +0.026 A 
ATOM     17  C   UNL     1       7.465  -3.157  26.683  0.00  0.00    +0.030 A 
ATOM     18  C   UNL     1       7.444  -4.553  26.614  0.00  0.00    +0.109 A 
ATOM     19  C   UNL     1       8.247  -5.234  25.692  0.00  0.00    +0.030 A 
ATOM     20  C   UNL     1       9.078  -4.510  24.836  0.00  0.00    +0.026 A 
BRANCH  18  21
ATOM     21  S   UNL     1       6.281  -5.474  27.584  0.00  0.00    +0.074 S 
ATOM     22  O   UNL     1       5.274  -4.557  28.081  0.00  0.00    -0.150 OA
ATOM     23  O   UNL     1       7.038  -6.297  28.507  0.00  0.00    -0.150 OA
BRANCH  21  24
ATOM     24  N   UNL     1       5.603  -6.562  26.487  0.00  0.00    -0.194 N 
ATOM     25  H   UNL     1       5.401  -7.410  27.013  0.00  0.00    +0.176 HD
ATOM     26  C   UNL     1       4.473  -6.021  25.838  0.00  0.00    +0.177 A 
ATOM     27  S   UNL     1       2.872  -6.299  26.366  0.00  0.00    -0.059 S 
ATOM     28  C   UNL     1       2.298  -5.407  25.016  0.00  0.00    +0.068 A 
ATOM     29  C   UNL     1       3.364  -5.046  24.219  0.00  0.00    +0.120 A 
ATOM     30  N   UNL     1       4.614  -5.376  24.707  0.00  0.00    -0.232 NA
ENDBRANCH  21  24
ENDBRANCH  18  21
ENDBRANCH  13  15
ENDBRANCH  10  13
ENDBRANCH   5  10
BRANCH   1  32
ATOM     31  C   UNL     1      12.379   5.534  23.581  0.00  0.00    +0.012 C 
ATOM     32  C   UNL     1      10.873   5.682  23.738  0.00  0.00    +0.072 C 
ENDBRANCH   1  32
BRANCH   9  33
ATOM     33  C   UNL     1       8.178   4.910  25.354  0.00  0.00    +0.197 C 
ATOM     34  O   UNL     1       8.648   5.459  26.346  0.00  0.00    -0.287 OA
BRANCH  33  35
ATOM     35  C   UNL     1       6.734   5.138  25.039  0.00  0.00    +0.025 A 
ATOM     36  C   UNL     1       6.322   5.872  23.918  0.00  0.00    +0.030 A 
ATOM     37  C   UNL     1       4.961   6.047  23.653  0.00  0.00    +0.061 A 
ATOM     38 BR   UNL     1       4.472   7.108  22.157  0.00  0.00    -0.046 Br
ATOM     39  C   UNL     1       4.001   5.452  24.473  0.00  0.00    +0.145 A 
ATOM     40  C   UNL     1       4.412   4.694  25.573  0.00  0.00    +0.061 A 
ATOM     41 BR   UNL     1       3.136   3.845  26.691  0.00  0.00    -0.046 Br
ATOM     42  C   UNL     1       5.769   4.541  25.862  0.00  0.00    +0.030 A 
BRANCH  39  43
ATOM     43  O   UNL     1       2.673   5.611  24.179  0.00  0.00    -0.505 OA
ATOM     44  H   UNL     1       2.442   4.989  23.466  0.00  0.00    +0.292 HD
ENDBRANCH  39  43
ENDBRANCH  33  35
ENDBRANCH   9  33
TORSDOF 9
ENDMDL
MODEL 2
REMARK VINA RESULT:      -7.9      4.181      7.805
REMARK  Name = 
REMARK  10 active torsions:
REMARK  status: ('A' for Active; 'I' for Inactive)
REMARK    1  A    between atoms: C_1  and  C_2
REMARK    2  A    between atoms: C_2  and  C_3
REMARK    3  A    between atoms: C_4  and  C_5
REMARK    4  A    between atoms: C_5  and  C_7
REMARK    5  A    between atoms: C_11  and  O_12
REMARK    6  A    between atoms: C_20  and  S_23
REMARK    7  A    between atoms: S_23  and  N_26
REMARK    8  A    between atoms: N_26  and  C_27
REMARK    9  A    between atoms: C_30  and  S_33
REMARK   10  A    between atoms: S_33  and  N_36
REMARK                            x       y       z     vdW  Elec       q    Type
REMARK                         _______ _______ _______ _____ _____    ______ ____
ROOT
ATOM      1  C   UNL     1       7.802  -4.359  22.829  0.00  0.00    +0.117 A 
ATOM      2  O   UNL     1       7.923  -3.226  22.078  0.00  0.00    -0.459 OA
ATOM      3  C   UNL     1       8.442  -2.258  22.876  0.00  0.00    +0.138 A 
ATOM      4  C   UNL     1       8.695  -0.945  22.483  0.00  0.00    +0.075 A 
ATOM      5  C   UNL     1       9.303  -0.125  23.443  0.00  0.00    +0.112 A 
ATOM      6  C   UNL     1       9.623  -0.602  24.721  0.00  0.00    +0.029 A 
ATOM      7  C   UNL     1       9.334  -1.926  25.080  0.00  0.00    +0.014 A 
ATOM      8  C   UNL     1       8.698  -2.767  24.143  0.00  0.00    +0.031 A 
ATOM      9  C   UNL     1       8.180  -4.106  24.141  0.00  0.00    +0.071 A 
ENDROOT
BRANCH   5  10
ATOM     10  S   UNL     1       9.616   1.589  23.060  0.00  0.00    +0.072 S 
ATOM     11  O   UNL     1       9.860   1.667  21.634  0.00  0.00    -0.150 OA
ATOM     12  O   UNL     1      10.579   2.093  24.014  0.00  0.00    -0.150 OA
BRANCH  10  13
ATOM     13  N   UNL     1       8.128   2.334  23.319  0.00  0.00    -0.216 N 
ATOM     14  H   UNL     1       7.686   2.685  22.472  0.00  0.00    +0.174 HD
BRANCH  13  15
ATOM     15  C   UNL     1       7.313   1.918  24.399  0.00  0.00    +0.048 A 
ATOM     16  C   UNL     1       6.198   1.110  24.165  0.00  0.00    +0.026 A 
ATOM     17  C   UNL     1       5.431   0.654  25.239  0.00  0.00    +0.030 A 
ATOM     18  C   UNL     1       5.770   1.041  26.540  0.00  0.00    +0.109 A 
ATOM     19  C   UNL     1       6.881   1.858  26.774  0.00  0.00    +0.030 A 
ATOM     20  C   UNL     1       7.656   2.292  25.698  0.00  0.00    +0.026 A 
BRANCH  18  21
ATOM     21  S   UNL     1       4.890   0.370  27.924  0.00  0.00    +0.074 S 
ATOM     22  O   UNL     1       3.511   0.808  27.844  0.00  0.00    -0.150 OA
ATOM     23  O   UNL     1       5.675   0.645  29.113  0.00  0.00    -0.150 OA
BRANCH  21  24
ATOM     24  N   UNL     1       4.997  -1.299  27.708  0.00  0.00    -0.194 N 
ATOM     25  H   UNL     1       5.477  -1.663  28.529  0.00  0.00    +0.176 HD
ATOM     26  C   UNL     1       3.732  -1.885  27.491  0.00  0.00    +0.177 A 
ATOM     27  S   UNL     1       2.804  -2.590  28.741  0.00  0.00    -0.059 S 
ATOM     28  C   UNL     1       1.631  -3.053  27.576  0.00  0.00    +0.068 A 
ATOM     29  C   UNL     1       2.079  -2.717  26.316  0.00  0.00    +0.120 A 
ATOM     30  N   UNL     1       3.273  -2.021  26.272  0.00  0.00    -0.232 NA
ENDBRANCH  21  24
ENDBRANCH  18  21
ENDBRANCH  13  15
ENDBRANCH  10  13
ENDBRANCH   5  10
BRANCH   1  32
ATOM     31  C   UNL     1       6.049  -5.389  21.328  0.00  0.00    +0.012 C 
ATOM     32  C   UNL     1       7.331  -5.587  22.122  0.00  0.00    +0.072 C 
ENDBRANCH   1  32
BRANCH   9  33
ATOM     33  C   UNL     1       8.076  -5.069  25.228  0.00  0.00    +0.197 C 
ATOM     34  O   UNL     1       9.038  -5.729  25.609  0.00  0.00    -0.287 OA
BRANCH  33  35
ATOM     35  C   UNL     1       6.754  -5.308  25.882  0.00  0.00    +0.025 A 
ATOM     36  C   UNL     1       5.593  -5.576  25.141  0.00  0.00    +0.030 A 
ATOM     37  C   UNL     1       4.379  -5.808  25.795  0.00  0.00    +0.061 A 
ATOM     38 BR   UNL     1       2.835  -6.098  24.732  0.00  0.00    -0.046 Br
ATOM     39  C   UNL     1       4.322  -5.826  27.189  0.00  0.00    +0.145 A 
ATOM     40  C   UNL     1       5.485  -5.590  27.928  0.00  0.00    +0.061 A 
ATOM     41 BR   UNL     1       5.451  -5.638  29.824  0.00  0.00    -0.046 Br
ATOM     42  C   UNL     1       6.694  -5.326  27.283  0.00  0.00    +0.030 A 
BRANCH  39  43
ATOM     43  O   UNL     1       3.130  -6.086  27.810  0.00  0.00    -0.505 OA
ATOM     44  H   UNL     1       2.413  -5.942  27.167  0.00  0.00    +0.292 HD
ENDBRANCH  39  43
ENDBRANCH  33  35
ENDBRANCH   9  33
TORSDOF 9
ENDMDL
MODEL 3
REMARK VINA RESULT:      -7.9      2.112      2.432
REMARK  Name = 
REMARK  10 active torsions:
REMARK  status: ('A' for Active; 'I' for Inactive)
REMARK    1  A    between atoms: C_1  and  C_2
REMARK    2  A    between atoms: C_2  and  C_3
REMARK    3  A    between atoms: C_4  and  C_5
REMARK    4  A    between atoms: C_5  and  C_7
REMARK    5  A    between atoms: C_11  and  O_12
REMARK    6  A    between atoms: C_20  and  S_23
REMARK    7  A    between atoms: S_23  and  N_26
REMARK    8  A    between atoms: N_26  and  C_27
REMARK    9  A    between atoms: C_30  and  S_33
REMARK   10  A    between atoms: S_33  and  N_36
REMARK                            x       y       z     vdW  Elec       q    Type
REMARK                         _______ _______ _______ _____ _____    ______ ____
ROOT
ATOM      1  C   UNL     1       9.701   4.694  23.610  0.00  0.00    +0.117 A 
ATOM      2  O   UNL     1      10.423   3.567  23.876  0.00  0.00    -0.459 OA
ATOM      3  C   UNL     1       9.716   2.506  23.412  0.00  0.00    +0.138 A 
ATOM      4  C   UNL     1      10.109   1.172  23.515  0.00  0.00    +0.075 A 
ATOM      5  C   UNL     1       9.265   0.236  22.902  0.00  0.00    +0.112 A 
ATOM      6  C   UNL     1       8.095   0.626  22.238  0.00  0.00    +0.029 A 
ATOM      7  C   UNL     1       7.728   1.977  22.175  0.00  0.00    +0.014 A 
ATOM      8  C   UNL     1       8.543   2.940  22.805  0.00  0.00    +0.031 A 
ATOM      9  C   UNL     1       8.484   4.356  23.031  0.00  0.00    +0.071 A 
ENDROOT
BRANCH   5  10
ATOM     10  S   UNL     1       9.648  -1.502  23.026  0.00  0.00    +0.072 S 
ATOM     11  O   UNL     1       9.585  -1.850  24.431  0.00  0.00    -0.150 OA
ATOM     12  O   UNL     1      10.836  -1.756  22.243  0.00  0.00    -0.150 OA
BRANCH  10  13
ATOM     13  N   UNL     1       8.327  -2.254  22.302  0.00  0.00    -0.216 N 
ATOM     14  H   UNL     1       8.455  -2.458  21.313  0.00  0.00    +0.174 HD
BRANCH  13  15
ATOM     15  C   UNL     1       7.484  -3.091  23.073  0.00  0.00    +0.048 A 
ATOM     16  C   UNL     1       6.256  -2.615  23.535  0.00  0.00    +0.026 A 
ATOM     17  C   UNL     1       5.403  -3.462  24.245  0.00  0.00    +0.030 A 
ATOM     18  C   UNL     1       5.805  -4.774  24.515  0.00  0.00    +0.109 A 
ATOM     19  C   UNL     1       7.040  -5.250  24.060  0.00  0.00    +0.030 A 
ATOM     20  C   UNL     1       7.877  -4.404  23.332  0.00  0.00    +0.026 A 
BRANCH  18  21
ATOM     21  S   UNL     1       4.687  -5.903  25.299  0.00  0.00    +0.074 S 
ATOM     22  O   UNL     1       3.530  -5.158  25.755  0.00  0.00    -0.150 OA
ATOM     23  O   UNL     1       5.457  -6.699  26.236  0.00  0.00    -0.150 OA
BRANCH  21  24
ATOM     24  N   UNL     1       4.256  -6.974  24.070  0.00  0.00    -0.194 N 
ATOM     25  H   UNL     1       4.541  -7.900  24.385  0.00  0.00    +0.176 HD
ATOM     26  C   UNL     1       2.885  -6.887  23.750  0.00  0.00    +0.177 A 
ATOM     27  S   UNL     1       1.704  -7.928  24.414  0.00  0.00    -0.059 S 
ATOM     28  C   UNL     1       0.517  -7.167  23.435  0.00  0.00    +0.068 A 
ATOM     29  C   UNL     1       1.126  -6.243  22.612  0.00  0.00    +0.120 A 
ATOM     30  N   UNL     1       2.481  -6.064  22.814  0.00  0.00    -0.232 NA
ENDBRANCH  21  24
ENDBRANCH  18  21
ENDBRANCH  13  15
ENDBRANCH  10  13
ENDBRANCH   5  10
BRANCH   1  32
ATOM     31  C   UNL     1      11.850   5.929  24.102  0.00  0.00    +0.012 C 
ATOM     32  C   UNL     1      10.338   5.999  23.957  0.00  0.00    +0.072 C 
ENDBRANCH   1  32
BRANCH   9  33
ATOM     33  C   UNL     1       7.431   5.310  22.714  0.00  0.00    +0.197 C 
ATOM     34  O   UNL     1       7.574   6.180  21.860  0.00  0.00    -0.287 OA
BRANCH  33  35
ATOM     35  C   UNL     1       6.144   5.271  23.474  0.00  0.00    +0.025 A 
ATOM     36  C   UNL     1       5.961   5.987  24.666  0.00  0.00    +0.030 A 
ATOM     37  C   UNL     1       4.736   5.935  25.337  0.00  0.00    +0.061 A 
ATOM     38 BR   UNL     1       4.577   6.873  26.979  0.00  0.00    -0.046 Br
ATOM     39  C   UNL     1       3.669   5.212  24.801  0.00  0.00    +0.145 A 
ATOM     40  C   UNL     1       3.842   4.524  23.596  0.00  0.00    +0.061 A 
ATOM     41 BR   UNL     1       2.405   3.556  22.823  0.00  0.00    -0.046 Br
ATOM     42  C   UNL     1       5.072   4.545  22.937  0.00  0.00    +0.030 A 
BRANCH  39  43
ATOM     43  O   UNL     1       2.468   5.199  25.458  0.00  0.00    -0.505 OA
ATOM     44  H   UNL     1       1.794   4.839  24.854  0.00  0.00    +0.292 HD
ENDBRANCH  39  43
ENDBRANCH  33  35
ENDBRANCH   9  33
TORSDOF 9
ENDMDL
MODEL 4
REMARK VINA RESULT:      -7.8      1.479      1.641
REMARK  Name = 
REMARK  10 active torsions:
REMARK  status: ('A' for Active; 'I' for Inactive)
REMARK    1  A    between atoms: C_1  and  C_2
REMARK    2  A    between atoms: C_2  and  C_3
REMARK    3  A    between atoms: C_4  and  C_5
REMARK    4  A    between atoms: C_5  and  C_7
REMARK    5  A    between atoms: C_11  and  O_12
REMARK    6  A    between atoms: C_20  and  S_23
REMARK    7  A    between atoms: S_23  and  N_26
REMARK    8  A    between atoms: N_26  and  C_27
REMARK    9  A    between atoms: C_30  and  S_33
REMARK   10  A    between atoms: S_33  and  N_36
REMARK                            x       y       z     vdW  Elec       q    Type
REMARK                         _______ _______ _______ _____ _____    ______ ____
ROOT
ATOM      1  C   UNL     1       9.608   4.549  23.545  0.00  0.00    +0.117 A 
ATOM      2  O   UNL     1      10.298   3.405  23.822  0.00  0.00    -0.459 OA
ATOM      3  C   UNL     1       9.558   2.359  23.376  0.00  0.00    +0.138 A 
ATOM      4  C   UNL     1       9.912   1.016  23.494  0.00  0.00    +0.075 A 
ATOM      5  C   UNL     1       9.037   0.098  22.897  0.00  0.00    +0.112 A 
ATOM      6  C   UNL     1       7.876   0.513  22.234  0.00  0.00    +0.029 A 
ATOM      7  C   UNL     1       7.549   1.874  22.155  0.00  0.00    +0.014 A 
ATOM      8  C   UNL     1       8.395   2.820  22.768  0.00  0.00    +0.031 A 
ATOM      9  C   UNL     1       8.379   4.240  22.976  0.00  0.00    +0.071 A 
ENDROOT
BRANCH   5  10
ATOM     10  S   UNL     1       9.369  -1.649  23.043  0.00  0.00    +0.072 S 
ATOM     11  O   UNL     1      10.629  -1.898  22.373  0.00  0.00    -0.150 OA
ATOM     12  O   UNL     1       8.169  -2.366  22.673  0.00  0.00    -0.150 OA
BRANCH  10  13
ATOM     13  N   UNL     1       9.666  -1.863  24.687  0.00  0.00    -0.216 N 
ATOM     14  H   UNL     1      10.174  -1.095  25.121  0.00  0.00    +0.174 HD
BRANCH  13  15
ATOM     15  C   UNL     1       8.764  -2.621  25.471  0.00  0.00    +0.048 A 
ATOM     16  C   UNL     1       7.587  -2.038  25.946  0.00  0.00    +0.026 A 
ATOM     17  C   UNL     1       6.673  -2.806  26.669  0.00  0.00    +0.030 A 
ATOM     18  C   UNL     1       6.962  -4.147  26.940  0.00  0.00    +0.109 A 
ATOM     19  C   UNL     1       8.145  -4.730  26.472  0.00  0.00    +0.030 A 
ATOM     20  C   UNL     1       9.044  -3.962  25.731  0.00  0.00    +0.026 A 
BRANCH  18  21
ATOM     21  S   UNL     1       5.759  -5.172  27.742  0.00  0.00    +0.074 S 
ATOM     22  O   UNL     1       4.471  -4.510  27.665  0.00  0.00    -0.150 OA
ATOM     23  O   UNL     1       6.304  -5.559  29.029  0.00  0.00    -0.150 OA
BRANCH  21  24
ATOM     24  N   UNL     1       5.753  -6.589  26.828  0.00  0.00    -0.194 N 
ATOM     25  H   UNL     1       5.513  -7.343  27.470  0.00  0.00    +0.176 HD
ATOM     26  C   UNL     1       4.884  -6.499  25.720  0.00  0.00    +0.177 A 
ATOM     27  S   UNL     1       3.276  -7.078  25.745  0.00  0.00    -0.059 S 
ATOM     28  C   UNL     1       3.121  -6.645  24.091  0.00  0.00    +0.068 A 
ATOM     29  C   UNL     1       4.331  -6.179  23.623  0.00  0.00    +0.120 A 
ATOM     30  N   UNL     1       5.334  -6.070  24.567  0.00  0.00    -0.232 NA
ENDBRANCH  21  24
ENDBRANCH  18  21
ENDBRANCH  13  15
ENDBRANCH  10  13
ENDBRANCH   5  10
BRANCH   1  32
ATOM     31  C   UNL     1      11.803   5.781  23.785  0.00  0.00    +0.012 C 
ATOM     32  C   UNL     1      10.285   5.839  23.872  0.00  0.00    +0.072 C 
ENDBRANCH   1  32
BRANCH   9  33
ATOM     33  C   UNL     1       7.353   5.220  22.652  0.00  0.00    +0.197 C 
ATOM     34  O   UNL     1       7.532   6.099  21.813  0.00  0.00    -0.287 OA
BRANCH  33  35
ATOM     35  C   UNL     1       6.051   5.200  23.385  0.00  0.00    +0.025 A 
ATOM     36  C   UNL     1       4.942   4.482  22.915  0.00  0.00    +0.030 A 
ATOM     37  C   UNL     1       3.747   4.477  23.641  0.00  0.00    +0.061 A 
ATOM     38 BR   UNL     1       2.265   3.542  22.915  0.00  0.00    -0.046 Br
ATOM     39  C   UNL     1       3.663   5.145  24.864  0.00  0.00    +0.145 A 
ATOM     40  C   UNL     1       4.779   5.835  25.349  0.00  0.00    +0.061 A 
ATOM     41 BR   UNL     1       4.711   6.726  27.021  0.00  0.00    -0.046 Br
ATOM     42  C   UNL     1       5.965   5.870  24.614  0.00  0.00    +0.030 A 
BRANCH  39  43
ATOM     43  O   UNL     1       2.494   5.103  25.575  0.00  0.00    -0.505 OA
ATOM     44  H   UNL     1       2.675   5.415  26.479  0.00  0.00    +0.292 HD
ENDBRANCH  39  43
ENDBRANCH  33  35
ENDBRANCH   9  33
TORSDOF 9
ENDMDL
MODEL 5
REMARK VINA RESULT:      -7.8      2.142      3.055
REMARK  Name = 
REMARK  10 active torsions:
REMARK  status: ('A' for Active; 'I' for Inactive)
REMARK    1  A    between atoms: C_1  and  C_2
REMARK    2  A    between atoms: C_2  and  C_3
REMARK    3  A    between atoms: C_4  and  C_5
REMARK    4  A    between atoms: C_5  and  C_7
REMARK    5  A    between atoms: C_11  and  O_12
REMARK    6  A    between atoms: C_20  and  S_23
REMARK    7  A    between atoms: S_23  and  N_26
REMARK    8  A    between atoms: N_26  and  C_27
REMARK    9  A    between atoms: C_30  and  S_33
REMARK   10  A    between atoms: S_33  and  N_36
REMARK                            x       y       z     vdW  Elec       q    Type
REMARK                         _______ _______ _______ _____ _____    ______ ____
ROOT
ATOM      1  C   UNL     1      10.696   4.242  23.606  0.00  0.00    +0.117 A 
ATOM      2  O   UNL     1      11.254   2.998  23.668  0.00  0.00    -0.459 OA
ATOM      3  C   UNL     1      10.265   2.092  23.459  0.00  0.00    +0.138 A 
ATOM      4  C   UNL     1      10.429   0.708  23.469  0.00  0.00    +0.075 A 
ATOM      5  C   UNL     1       9.289  -0.045  23.156  0.00  0.00    +0.112 A 
ATOM      6  C   UNL     1       8.063   0.564  22.864  0.00  0.00    +0.029 A 
ATOM      7  C   UNL     1       7.938   1.960  22.884  0.00  0.00    +0.014 A 
ATOM      8  C   UNL     1       9.061   2.744  23.221  0.00  0.00    +0.031 A 
ATOM      9  C   UNL     1       9.323   4.141  23.424  0.00  0.00    +0.071 A 
ENDROOT
BRANCH   5  10
ATOM     10  S   UNL     1       9.379  -1.827  23.197  0.00  0.00    +0.072 S 
ATOM     11  O   UNL     1       8.893  -2.245  24.496  0.00  0.00    -0.150 OA
ATOM     12  O   UNL     1      10.687  -2.221  22.723  0.00  0.00    -0.150 OA
BRANCH  10  13
ATOM     13  N   UNL     1       8.210  -2.311  22.085  0.00  0.00    -0.216 N 
ATOM     14  H   UNL     1       8.532  -2.315  21.120  0.00  0.00    +0.174 HD
BRANCH  13  15
ATOM     15  C   UNL     1       7.202  -3.223  22.478  0.00  0.00    +0.048 A 
ATOM     16  C   UNL     1       7.517  -4.566  22.696  0.00  0.00    +0.026 A 
ATOM     17  C   UNL     1       6.530  -5.449  23.140  0.00  0.00    +0.030 A 
ATOM     18  C   UNL     1       5.225  -4.984  23.330  0.00  0.00    +0.109 A 
ATOM     19  C   UNL     1       4.907  -3.641  23.104  0.00  0.00    +0.030 A 
ATOM     20  C   UNL     1       5.902  -2.759  22.682  0.00  0.00    +0.026 A 
BRANCH  18  21
ATOM     21  S   UNL     1       3.991  -6.056  24.016  0.00  0.00    +0.074 S 
ATOM     22  O   UNL     1       4.587  -7.359  24.232  0.00  0.00    -0.150 OA
ATOM     23  O   UNL     1       2.799  -5.925  23.201  0.00  0.00    -0.150 OA
BRANCH  21  24
ATOM     24  N   UNL     1       3.594  -5.334  25.488  0.00  0.00    -0.194 N 
ATOM     25  H   UNL     1       2.741  -5.789  25.808  0.00  0.00    +0.176 HD
ATOM     26  C   UNL     1       4.654  -5.410  26.416  0.00  0.00    +0.177 A 
ATOM     27  S   UNL     1       4.771  -6.638  27.599  0.00  0.00    -0.059 S 
ATOM     28  C   UNL     1       6.179  -5.875  28.216  0.00  0.00    +0.068 A 
ATOM     29  C   UNL     1       6.399  -4.697  27.534  0.00  0.00    +0.120 A 
ATOM     30  N   UNL     1       5.537  -4.446  26.483  0.00  0.00    -0.232 NA
ENDBRANCH  21  24
ENDBRANCH  18  21
ENDBRANCH  13  15
ENDBRANCH  10  13
ENDBRANCH   5  10
BRANCH   1  32
ATOM     31  C   UNL     1      12.961   5.197  23.019  0.00  0.00    +0.012 C 
ATOM     32  C   UNL     1      11.627   5.403  23.719  0.00  0.00    +0.072 C 
ENDBRANCH   1  32
BRANCH   9  33
ATOM     33  C   UNL     1       8.408   5.274  23.416  0.00  0.00    +0.197 C 
ATOM     34  O   UNL     1       8.717   6.358  22.930  0.00  0.00    -0.287 OA
BRANCH  33  35
ATOM     35  C   UNL     1       7.063   5.144  24.055  0.00  0.00    +0.025 A 
ATOM     36  C   UNL     1       6.906   5.037  25.445  0.00  0.00    +0.030 A 
ATOM     37  C   UNL     1       5.628   4.933  26.002  0.00  0.00    +0.061 A 
ATOM     38 BR   UNL     1       5.488   4.723  27.882  0.00  0.00    -0.046 Br
ATOM     39  C   UNL     1       4.497   4.986  25.185  0.00  0.00    +0.145 A 
ATOM     40  C   UNL     1       4.653   5.125  23.803  0.00  0.00    +0.061 A 
ATOM     41 BR   UNL     1       3.138   5.232  22.667  0.00  0.00    -0.046 Br
ATOM     42  C   UNL     1       5.926   5.197  23.236  0.00  0.00    +0.030 A 
BRANCH  39  43
ATOM     43  O   UNL     1       3.253   4.914  25.754  0.00  0.00    -0.505 OA
ATOM     44  H   UNL     1       3.156   5.660  26.372  0.00  0.00    +0.292 HD
ENDBRANCH  39  43
ENDBRANCH  33  35
ENDBRANCH   9  33
TORSDOF 9
ENDMDL
MODEL 6
REMARK VINA RESULT:      -7.7      1.838      2.220
REMARK  Name = 
REMARK  10 active torsions:
REMARK  status: ('A' for Active; 'I' for Inactive)
REMARK    1  A    between atoms: C_1  and  C_2
REMARK    2  A    between atoms: C_2  and  C_3
REMARK    3  A    between atoms: C_4  and  C_5
REMARK    4  A    between atoms: C_5  and  C_7
REMARK    5  A    between atoms: C_11  and  O_12
REMARK    6  A    between atoms: C_20  and  S_23
REMARK    7  A    between atoms: S_23  and  N_26
REMARK    8  A    between atoms: N_26  and  C_27
REMARK    9  A    between atoms: C_30  and  S_33
REMARK   10  A    between atoms: S_33  and  N_36
REMARK                            x       y       z     vdW  Elec       q    Type
REMARK                         _______ _______ _______ _____ _____    ______ ____
ROOT
ATOM      1  C   UNL     1      10.364   4.329  23.845  0.00  0.00    +0.117 A 
ATOM      2  O   UNL     1      10.926   3.199  23.326  0.00  0.00    -0.459 OA
ATOM      3  C   UNL     1      10.081   2.167  23.576  0.00  0.00    +0.138 A 
ATOM      4  C   UNL     1      10.310   0.838  23.223  0.00  0.00    +0.075 A 
ATOM      5  C   UNL     1       9.272  -0.059  23.510  0.00  0.00    +0.112 A 
ATOM      6  C   UNL     1       8.086   0.362  24.124  0.00  0.00    +0.029 A 
ATOM      7  C   UNL     1       7.905   1.706  24.479  0.00  0.00    +0.014 A 
ATOM      8  C   UNL     1       8.942   2.627  24.227  0.00  0.00    +0.031 A 
ATOM      9  C   UNL     1       9.178   4.017  24.497  0.00  0.00    +0.071 A 
ENDROOT
BRANCH   5  10
ATOM     10  S   UNL     1       9.489  -1.793  23.150  0.00  0.00    +0.072 S 
ATOM     11  O   UNL     1       9.550  -2.485  24.421  0.00  0.00    -0.150 OA
ATOM     12  O   UNL     1      10.551  -1.919  22.176  0.00  0.00    -0.150 OA
BRANCH  10  13
ATOM     13  N   UNL     1       8.026  -2.240  22.446  0.00  0.00    -0.216 N 
ATOM     14  H   UNL     1       8.005  -2.141  21.434  0.00  0.00    +0.174 HD
BRANCH  13  15
ATOM     15  C   UNL     1       7.229  -3.239  23.056  0.00  0.00    +0.048 A 
ATOM     16  C   UNL     1       7.483  -4.589  22.804  0.00  0.00    +0.026 A 
ATOM     17  C   UNL     1       6.732  -5.571  23.454  0.00  0.00    +0.030 A 
ATOM     18  C   UNL     1       5.708  -5.189  24.327  0.00  0.00    +0.109 A 
ATOM     19  C   UNL     1       5.448  -3.837  24.573  0.00  0.00    +0.030 A 
ATOM     20  C   UNL     1       6.217  -2.861  23.938  0.00  0.00    +0.026 A 
BRANCH  18  21
ATOM     21  S   UNL     1       4.831  -6.416  25.259  0.00  0.00    +0.074 S 
ATOM     22  O   UNL     1       5.608  -6.732  26.441  0.00  0.00    -0.150 OA
ATOM     23  O   UNL     1       4.444  -7.467  24.338  0.00  0.00    -0.150 OA
BRANCH  21  24
ATOM     24  N   UNL     1       3.387  -5.654  25.682  0.00  0.00    -0.194 N 
ATOM     25  H   UNL     1       2.643  -6.180  25.227  0.00  0.00    +0.176 HD
ATOM     26  C   UNL     1       3.233  -5.557  27.081  0.00  0.00    +0.177 A 
ATOM     27  S   UNL     1       2.346  -6.690  28.003  0.00  0.00    -0.059 S 
ATOM     28  C   UNL     1       2.635  -5.740  29.403  0.00  0.00    +0.068 A 
ATOM     29  C   UNL     1       3.304  -4.588  29.046  0.00  0.00    +0.120 A 
ATOM     30  N   UNL     1       3.670  -4.498  27.716  0.00  0.00    -0.232 NA
ENDBRANCH  21  24
ENDBRANCH  18  21
ENDBRANCH  13  15
ENDBRANCH  10  13
ENDBRANCH   5  10
BRANCH   1  32
ATOM     31  C   UNL     1      12.542   5.434  23.196  0.00  0.00    +0.012 C 
ATOM     32  C   UNL     1      11.088   5.613  23.603  0.00  0.00    +0.072 C 
ENDBRANCH   1  32
BRANCH   9  33
ATOM     33  C   UNL     1       8.375   4.972  25.248  0.00  0.00    +0.197 C 
ATOM     34  O   UNL     1       8.828   5.595  26.204  0.00  0.00    -0.287 OA
BRANCH  33  35
ATOM     35  C   UNL     1       6.940   5.180  24.886  0.00  0.00    +0.025 A 
ATOM     36  C   UNL     1       6.556   5.903  23.747  0.00  0.00    +0.030 A 
ATOM     37  C   UNL     1       5.202   6.061  23.437  0.00  0.00    +0.061 A 
ATOM     38 BR   UNL     1       4.749   7.107  21.921  0.00  0.00    -0.046 Br
ATOM     39  C   UNL     1       4.223   5.458  24.230  0.00  0.00    +0.145 A 
ATOM     40  C   UNL     1       4.607   4.710  25.347  0.00  0.00    +0.061 A 
ATOM     41 BR   UNL     1       3.307   3.851  26.427  0.00  0.00    -0.046 Br
ATOM     42  C   UNL     1       5.956   4.575  25.680  0.00  0.00    +0.030 A 
BRANCH  39  43
ATOM     43  O   UNL     1       2.904   5.598  23.892  0.00  0.00    -0.505 OA
ATOM     44  H   UNL     1       2.793   5.311  22.968  0.00  0.00    +0.292 HD
ENDBRANCH  39  43
ENDBRANCH  33  35
ENDBRANCH   9  33
TORSDOF 9
ENDMDL
MODEL 7
REMARK VINA RESULT:      -7.6      3.920     10.035
REMARK  Name = 
REMARK  10 active torsions:
REMARK  status: ('A' for Active; 'I' for Inactive)
REMARK    1  A    between atoms: C_1  and  C_2
REMARK    2  A    between atoms: C_2  and  C_3
REMARK    3  A    between atoms: C_4  and  C_5
REMARK    4  A    between atoms: C_5  and  C_7
REMARK    5  A    between atoms: C_11  and  O_12
REMARK    6  A    between atoms: C_20  and  S_23
REMARK    7  A    between atoms: S_23  and  N_26
REMARK    8  A    between atoms: N_26  and  C_27
REMARK    9  A    between atoms: C_30  and  S_33
REMARK   10  A    between atoms: S_33  and  N_36
REMARK                            x       y       z     vdW  Elec       q    Type
REMARK                         _______ _______ _______ _____ _____    ______ ____
ROOT
ATOM      1  C   UNL     1       5.737  -5.712  25.189  0.00  0.00    +0.117 A 
ATOM      2  O   UNL     1       6.069  -4.996  24.076  0.00  0.00    -0.459 OA
ATOM      3  C   UNL     1       7.073  -4.148  24.416  0.00  0.00    +0.138 A 
ATOM      4  C   UNL     1       7.673  -3.230  23.557  0.00  0.00    +0.075 A 
ATOM      5  C   UNL     1       8.745  -2.501  24.092  0.00  0.00    +0.112 A 
ATOM      6  C   UNL     1       9.171  -2.684  25.413  0.00  0.00    +0.029 A 
ATOM      7  C   UNL     1       8.526  -3.607  26.248  0.00  0.00    +0.014 A 
ATOM      8  C   UNL     1       7.428  -4.335  25.747  0.00  0.00    +0.031 A 
ATOM      9  C   UNL     1       6.484  -5.278  26.277  0.00  0.00    +0.071 A 
ENDROOT
BRANCH   5  10
ATOM     10  S   UNL     1       9.545  -1.258  23.092  0.00  0.00    +0.072 S 
ATOM     11  O   UNL     1       8.496  -0.478  22.467  0.00  0.00    -0.150 OA
ATOM     12  O   UNL     1      10.567  -1.908  22.303  0.00  0.00    -0.150 OA
BRANCH  10  13
ATOM     13  N   UNL     1      10.269  -0.243  24.223  0.00  0.00    -0.216 N 
ATOM     14  H   UNL     1      11.174  -0.569  24.556  0.00  0.00    +0.174 HD
BRANCH  13  15
ATOM     15  C   UNL     1      10.013   1.149  24.184  0.00  0.00    +0.048 A 
ATOM     16  C   UNL     1      10.841   1.994  23.443  0.00  0.00    +0.026 A 
ATOM     17  C   UNL     1      10.550   3.357  23.360  0.00  0.00    +0.030 A 
ATOM     18  C   UNL     1       9.446   3.868  24.049  0.00  0.00    +0.109 A 
ATOM     19  C   UNL     1       8.620   3.024  24.799  0.00  0.00    +0.030 A 
ATOM     20  C   UNL     1       8.904   1.659  24.859  0.00  0.00    +0.026 A 
BRANCH  18  21
ATOM     21  S   UNL     1       8.984   5.568  23.853  0.00  0.00    +0.074 S 
ATOM     22  O   UNL     1      10.192   6.358  23.726  0.00  0.00    -0.150 OA
ATOM     23  O   UNL     1       8.015   5.878  24.886  0.00  0.00    -0.150 OA
BRANCH  21  24
ATOM     24  N   UNL     1       8.106   5.590  22.412  0.00  0.00    -0.194 N 
ATOM     25  H   UNL     1       8.451   4.809  21.856  0.00  0.00    +0.176 HD
ATOM     26  C   UNL     1       6.715   5.546  22.641  0.00  0.00    +0.177 A 
ATOM     27  S   UNL     1       5.810   4.097  22.610  0.00  0.00    -0.059 S 
ATOM     28  C   UNL     1       4.381   5.012  22.869  0.00  0.00    +0.068 A 
ATOM     29  C   UNL     1       4.691   6.356  22.868  0.00  0.00    +0.120 A 
ATOM     30  N   UNL     1       6.036   6.658  22.764  0.00  0.00    -0.232 NA
ENDBRANCH  21  24
ENDBRANCH  18  21
ENDBRANCH  13  15
ENDBRANCH  10  13
ENDBRANCH   5  10
BRANCH   1  32
ATOM     31  C   UNL     1       3.276  -6.285  25.180  0.00  0.00    +0.012 C 
ATOM     32  C   UNL     1       4.706  -6.778  25.020  0.00  0.00    +0.072 C 
ENDBRANCH   1  32
BRANCH   9  33
ATOM     33  C   UNL     1       6.309  -5.759  27.640  0.00  0.00    +0.197 C 
ATOM     34  O   UNL     1       7.193  -6.368  28.235  0.00  0.00    -0.287 OA
BRANCH  33  35
ATOM     35  C   UNL     1       5.002  -5.554  28.335  0.00  0.00    +0.025 A 
ATOM     36  C   UNL     1       4.239  -6.627  28.820  0.00  0.00    +0.030 A 
ATOM     37  C   UNL     1       3.029  -6.389  29.478  0.00  0.00    +0.061 A 
ATOM     38 BR   UNL     1       2.014  -7.886  30.049  0.00  0.00    -0.046 Br
ATOM     39  C   UNL     1       2.594  -5.081  29.703  0.00  0.00    +0.145 A 
ATOM     40  C   UNL     1       3.370  -4.011  29.248  0.00  0.00    +0.061 A 
ATOM     41 BR   UNL     1       2.827  -2.222  29.564  0.00  0.00    -0.046 Br
ATOM     42  C   UNL     1       4.564  -4.242  28.562  0.00  0.00    +0.030 A 
BRANCH  39  43
ATOM     43  O   UNL     1       1.422  -4.869  30.377  0.00  0.00    -0.505 OA
ATOM     44  H   UNL     1       1.636  -4.653  31.302  0.00  0.00    +0.292 HD
ENDBRANCH  39  43
ENDBRANCH  33  35
ENDBRANCH   9  33
TORSDOF 9
ENDMDL
MODEL 8
REMARK VINA RESULT:      -7.6      2.921      4.243
REMARK  Name = 
REMARK  10 active torsions:
REMARK  status: ('A' for Active; 'I' for Inactive)
REMARK    1  A    between atoms: C_1  and  C_2
REMARK    2  A    between atoms: C_2  and  C_3
REMARK    3  A    between atoms: C_4  and  C_5
REMARK    4  A    between atoms: C_5  and  C_7
REMARK    5  A    between atoms: C_11  and  O_12
REMARK    6  A    between atoms: C_20  and  S_23
REMARK    7  A    between atoms: S_23  and  N_26
REMARK    8  A    between atoms: N_26  and  C_27
REMARK    9  A    between atoms: C_30  and  S_33
REMARK   10  A    between atoms: S_33  and  N_36
REMARK                            x       y       z     vdW  Elec       q    Type
REMARK                         _______ _______ _______ _____ _____    ______ ____
ROOT
ATOM      1  C   UNL     1       9.408  -0.408  24.508  0.00  0.00    +0.117 A 
ATOM      2  O   UNL     1       9.596  -1.622  23.913  0.00  0.00    -0.459 OA
ATOM      3  C   UNL     1       8.375  -2.105  23.569  0.00  0.00    +0.138 A 
ATOM      4  C   UNL     1       8.142  -3.335  22.957  0.00  0.00    +0.075 A 
ATOM      5  C   UNL     1       6.809  -3.608  22.620  0.00  0.00    +0.112 A 
ATOM      6  C   UNL     1       5.780  -2.699  22.895  0.00  0.00    +0.029 A 
ATOM      7  C   UNL     1       6.057  -1.480  23.529  0.00  0.00    +0.014 A 
ATOM      8  C   UNL     1       7.385  -1.189  23.905  0.00  0.00    +0.031 A 
ATOM      9  C   UNL     1       8.051  -0.133  24.614  0.00  0.00    +0.071 A 
ENDROOT
BRANCH   5  10
ATOM     10  S   UNL     1       6.397  -5.181  21.885  0.00  0.00    +0.072 S 
ATOM     11  O   UNL     1       7.452  -6.106  22.244  0.00  0.00    -0.150 OA
ATOM     12  O   UNL     1       6.041  -4.950  20.502  0.00  0.00    -0.150 OA
BRANCH  10  13
ATOM     13  N   UNL     1       5.033  -5.675  22.740  0.00  0.00    -0.216 N 
ATOM     14  H   UNL     1       4.352  -6.182  22.179  0.00  0.00    +0.174 HD
BRANCH  13  15
ATOM     15  C   UNL     1       5.136  -5.962  24.122  0.00  0.00    +0.048 A 
ATOM     16  C   UNL     1       6.149  -5.378  24.886  0.00  0.00    +0.026 A 
ATOM     17  C   UNL     1       6.211  -5.619  26.260  0.00  0.00    +0.030 A 
ATOM     18  C   UNL     1       5.275  -6.471  26.853  0.00  0.00    +0.109 A 
ATOM     19  C   UNL     1       4.265  -7.064  26.087  0.00  0.00    +0.030 A 
ATOM     20  C   UNL     1       4.195  -6.802  24.718  0.00  0.00    +0.026 A 
BRANCH  18  21
ATOM     21  S   UNL     1       5.256  -6.686  28.612  0.00  0.00    +0.074 S 
ATOM     22  O   UNL     1       6.401  -7.494  28.985  0.00  0.00    -0.150 OA
ATOM     23  O   UNL     1       3.918  -7.101  28.986  0.00  0.00    -0.150 OA
BRANCH  21  24
ATOM     24  N   UNL     1       5.412  -5.120  29.218  0.00  0.00    -0.194 N 
ATOM     25  H   UNL     1       6.051  -4.633  28.591  0.00  0.00    +0.176 HD
ATOM     26  C   UNL     1       4.162  -4.480  29.353  0.00  0.00    +0.177 A 
ATOM     27  S   UNL     1       3.513  -3.440  28.163  0.00  0.00    -0.059 S 
ATOM     28  C   UNL     1       2.177  -3.132  29.196  0.00  0.00    +0.068 A 
ATOM     29  C   UNL     1       2.372  -3.772  30.402  0.00  0.00    +0.120 A 
ATOM     30  N   UNL     1       3.500  -4.567  30.480  0.00  0.00    -0.232 NA
ENDBRANCH  21  24
ENDBRANCH  18  21
ENDBRANCH  13  15
ENDBRANCH  10  13
ENDBRANCH   5  10
BRANCH   1  32
ATOM     31  C   UNL     1      10.989   1.476  23.928  0.00  0.00    +0.012 C 
ATOM     32  C   UNL     1      10.635   0.352  24.889  0.00  0.00    +0.072 C 
ENDBRANCH   1  32
BRANCH   9  33
ATOM     33  C   UNL     1       7.497   1.032  25.289  0.00  0.00    +0.197 C 
ATOM     34  O   UNL     1       7.280   1.044  26.497  0.00  0.00    -0.287 OA
BRANCH  33  35
ATOM     35  C   UNL     1       7.134   2.246  24.495  0.00  0.00    +0.025 A 
ATOM     36  C   UNL     1       8.032   3.305  24.300  0.00  0.00    +0.030 A 
ATOM     37  C   UNL     1       7.657   4.415  23.537  0.00  0.00    +0.061 A 
ATOM     38 BR   UNL     1       8.894   5.842  23.368  0.00  0.00    -0.046 Br
ATOM     39  C   UNL     1       6.404   4.456  22.923  0.00  0.00    +0.145 A 
ATOM     40  C   UNL     1       5.520   3.386  23.092  0.00  0.00    +0.061 A 
ATOM     41 BR   UNL     1       3.822   3.393  22.246  0.00  0.00    -0.046 Br
ATOM     42  C   UNL     1       5.876   2.288  23.878  0.00  0.00    +0.030 A 
BRANCH  39  43
ATOM     43  O   UNL     1       6.066   5.538  22.155  0.00  0.00    -0.505 OA
ATOM     44  H   UNL     1       6.616   5.525  21.351  0.00  0.00    +0.292 HD
ENDBRANCH  39  43
ENDBRANCH  33  35
ENDBRANCH   9  33
TORSDOF 9
ENDMDL
MODEL 9
REMARK VINA RESULT:      -7.5      3.778      7.215
REMARK  Name = 
REMARK  10 active torsions:
REMARK  status: ('A' for Active; 'I' for Inactive)
REMARK    1  A    between atoms: C_1  and  C_2
REMARK    2  A    between atoms: C_2  and  C_3
REMARK    3  A    between atoms: C_4  and  C_5
REMARK    4  A    between atoms: C_5  and  C_7
REMARK    5  A    between atoms: C_11  and  O_12
REMARK    6  A    between atoms: C_20  and  S_23
REMARK    7  A    between atoms: S_23  and  N_26
REMARK    8  A    between atoms: N_26  and  C_27
REMARK    9  A    between atoms: C_30  and  S_33
REMARK   10  A    between atoms: S_33  and  N_36
REMARK                            x       y       z     vdW  Elec       q    Type
REMARK                         _______ _______ _______ _____ _____    ______ ____
ROOT
ATOM      1  C   UNL     1       5.737   1.375  28.066  0.00  0.00    +0.117 A 
ATOM      2  O   UNL     1       6.592   2.398  27.773  0.00  0.00    -0.459 OA
ATOM      3  C   UNL     1       6.496   2.646  26.442  0.00  0.00    +0.138 A 
ATOM      4  C   UNL     1       7.231   3.607  25.750  0.00  0.00    +0.075 A 
ATOM      5  C   UNL     1       6.923   3.750  24.390  0.00  0.00    +0.112 A 
ATOM      6  C   UNL     1       5.943   2.963  23.771  0.00  0.00    +0.029 A 
ATOM      7  C   UNL     1       5.241   1.995  24.502  0.00  0.00    +0.014 A 
ATOM      8  C   UNL     1       5.547   1.809  25.866  0.00  0.00    +0.031 A 
ATOM      9  C   UNL     1       5.133   0.910  26.905  0.00  0.00    +0.071 A 
ENDROOT
BRANCH   5  10
ATOM     10  S   UNL     1       7.846   4.913  23.400  0.00  0.00    +0.072 S 
ATOM     11  O   UNL     1       8.016   6.109  24.200  0.00  0.00    -0.150 OA
ATOM     12  O   UNL     1       7.239   4.967  22.089  0.00  0.00    -0.150 OA
BRANCH  10  13
ATOM     13  N   UNL     1       9.373   4.211  23.283  0.00  0.00    -0.216 N 
ATOM     14  H   UNL     1      10.112   4.748  23.731  0.00  0.00    +0.174 HD
BRANCH  13  15
ATOM     15  C   UNL     1       9.495   2.803  23.205  0.00  0.00    +0.048 A 
ATOM     16  C   UNL     1      10.032   2.086  24.276  0.00  0.00    +0.026 A 
ATOM     17  C   UNL     1      10.096   0.692  24.217  0.00  0.00    +0.030 A 
ATOM     18  C   UNL     1       9.651   0.030  23.069  0.00  0.00    +0.109 A 
ATOM     19  C   UNL     1       9.120   0.748  21.993  0.00  0.00    +0.030 A 
ATOM     20  C   UNL     1       9.038   2.139  22.066  0.00  0.00    +0.026 A 
BRANCH  18  21
ATOM     21  S   UNL     1       9.602  -1.741  23.027  0.00  0.00    +0.074 S 
ATOM     22  O   UNL     1       9.138  -2.216  24.316  0.00  0.00    -0.150 OA
ATOM     23  O   UNL     1      10.872  -2.199  22.495  0.00  0.00    -0.150 OA
BRANCH  21  24
ATOM     24  N   UNL     1       8.474  -2.092  21.823  0.00  0.00    -0.194 N 
ATOM     25  H   UNL     1       8.979  -2.596  21.096  0.00  0.00    +0.176 HD
ATOM     26  C   UNL     1       7.365  -2.801  22.331  0.00  0.00    +0.177 A 
ATOM     27  S   UNL     1       7.240  -4.504  22.273  0.00  0.00    -0.059 S 
ATOM     28  C   UNL     1       5.672  -4.389  22.962  0.00  0.00    +0.068 A 
ATOM     29  C   UNL     1       5.328  -3.061  23.098  0.00  0.00    +0.120 A 
ATOM     30  N   UNL     1       6.312  -2.151  22.760  0.00  0.00    -0.232 NA
ENDBRANCH  21  24
ENDBRANCH  18  21
ENDBRANCH  13  15
ENDBRANCH  10  13
ENDBRANCH   5  10
BRANCH   1  32
ATOM     31  C   UNL     1       4.363   1.533  30.181  0.00  0.00    +0.012 C 
ATOM     32  C   UNL     1       5.613   0.993  29.504  0.00  0.00    +0.072 C 
ENDBRANCH   1  32
BRANCH   9  33
ATOM     33  C   UNL     1       4.243  -0.240  26.845  0.00  0.00    +0.197 C 
ATOM     34  O   UNL     1       3.079  -0.145  26.469  0.00  0.00    -0.287 OA
BRANCH  33  35
ATOM     35  C   UNL     1       4.731  -1.579  27.296  0.00  0.00    +0.025 A 
ATOM     36  C   UNL     1       5.785  -2.244  26.653  0.00  0.00    +0.030 A 
ATOM     37  C   UNL     1       6.220  -3.489  27.118  0.00  0.00    +0.061 A 
ATOM     38 BR   UNL     1       7.605  -4.364  26.161  0.00  0.00    -0.046 Br
ATOM     39  C   UNL     1       5.644  -4.057  28.255  0.00  0.00    +0.145 A 
ATOM     40  C   UNL     1       4.614  -3.380  28.915  0.00  0.00    +0.061 A 
ATOM     41 BR   UNL     1       3.830  -4.107  30.482  0.00  0.00    -0.046 Br
ATOM     42  C   UNL     1       4.153  -2.151  28.439  0.00  0.00    +0.030 A 
BRANCH  39  43
ATOM     43  O   UNL     1       6.105  -5.262  28.712  0.00  0.00    -0.505 OA
ATOM     44  H   UNL     1       6.189  -5.209  29.681  0.00  0.00    +0.292 HD
ENDBRANCH  39  43
ENDBRANCH  33  35
ENDBRANCH   9  33
TORSDOF 9
ENDMDL
