MODEL 1
REMARK VINA RESULT:      -7.3      0.000      0.000
REMARK  Name = 
REMARK  3 active torsions:
REMARK  status: ('A' for Active; 'I' for Inactive)
REMARK    1  A    between atoms: C_1  and  C_2
REMARK    2  A    between atoms: N_5  and  C_6
REMARK    3  A    between atoms: C_14  and  C_16
REMARK                            x       y       z     vdW  Elec       q    Type
REMARK                         _______ _______ _______ _____ _____    ______ ____
ROOT
ATOM      1  C   UNL     1       8.162  -4.452  24.422  0.00  0.00    +0.136 A 
ATOM      2  N   UNL     1       8.792  -3.266  24.506  0.00  0.00    -0.212 NA
ATOM      3  C   UNL     1       8.717  -2.427  23.466  0.00  0.00    +0.162 A 
ATOM      4  N   UNL     1       8.063  -2.702  22.327  0.00  0.00    -0.227 NA
ATOM      5  C   UNL     1       7.437  -3.879  22.245  0.00  0.00    +0.077 A 
ATOM      6  C   UNL     1       6.713  -4.161  21.093  0.00  0.00    +0.028 A 
ATOM      7  C   UNL     1       5.989  -5.347  20.945  0.00  0.00    +0.002 A 
ATOM      8  C   UNL     1       5.992  -6.289  21.967  0.00  0.00    +0.001 A 
ATOM      9  C   UNL     1       6.718  -6.034  23.127  0.00  0.00    +0.013 A 
ATOM     10  C   UNL     1       7.446  -4.827  23.277  0.00  0.00    +0.041 A 
ENDROOT
BRANCH   1  17
ATOM     11  C   UNL     1       3.927  -4.878  28.073  0.00  0.00    +0.065 C 
ATOM     12  C   UNL     1       5.304  -5.136  27.606  0.00  0.00    +0.035 A 
ATOM     13  N   UNL     1       6.312  -5.572  28.420  0.00  0.00    -0.280 N 
ATOM     14  H   UNL     1       6.265  -5.787  29.409  0.00  0.00    +0.189 HD
ATOM     15  N   UNL     1       7.493  -5.718  27.791  0.00  0.00    -0.158 NA
ATOM     16  C   UNL     1       7.246  -5.327  26.539  0.00  0.00    +0.146 A 
ATOM     17  N   UNL     1       8.176  -5.292  25.561  0.00  0.00    -0.282 N 
ATOM     18  H   UNL     1       9.120  -5.503  25.860  0.00  0.00    +0.155 HD
ATOM     19  C   UNL     1       5.878  -5.010  26.364  0.00  0.00    +0.068 A 
ENDBRANCH   1  17
BRANCH   3  20
ATOM     20  C   UNL     1       9.336  -1.098  23.626  0.00  0.00    +0.019 A 
ATOM     21  C   UNL     1       9.502  -0.227  22.527  0.00  0.00    +0.011 A 
ATOM     22  C   UNL     1      10.115   1.023  22.668  0.00  0.00    +0.001 A 
ATOM     23  C   UNL     1      10.580   1.433  23.911  0.00  0.00    +0.000 A 
ATOM     24  C   UNL     1      10.431   0.597  25.013  0.00  0.00    +0.001 A 
ATOM     25  C   UNL     1       9.815  -0.651  24.871  0.00  0.00    +0.011 A 
ENDBRANCH   3  20
TORSDOF 2
ENDMDL
MODEL 2
REMARK VINA RESULT:      -6.7      2.880      5.907
REMARK  Name = 
REMARK  3 active torsions:
REMARK  status: ('A' for Active; 'I' for Inactive)
REMARK    1  A    between atoms: C_1  and  C_2
REMARK    2  A    between atoms: N_5  and  C_6
REMARK    3  A    between atoms: C_14  and  C_16
REMARK                            x       y       z     vdW  Elec       q    Type
REMARK                         _______ _______ _______ _____ _____    ______ ____
ROOT
ATOM      1  C   UNL     1       8.380  -0.693  24.946  0.00  0.00    +0.136 A 
ATOM      2  N   UNL     1       7.862  -1.851  24.502  0.00  0.00    -0.212 NA
ATOM      3  C   UNL     1       7.921  -2.117  23.191  0.00  0.00    +0.162 A 
ATOM      4  N   UNL     1       8.452  -1.286  22.281  0.00  0.00    -0.227 NA
ATOM      5  C   UNL     1       8.968  -0.137  22.724  0.00  0.00    +0.077 A 
ATOM      6  C   UNL     1       9.568   0.714  21.804  0.00  0.00    +0.028 A 
ATOM      7  C   UNL     1      10.175   1.913  22.188  0.00  0.00    +0.002 A 
ATOM      8  C   UNL     1      10.177   2.285  23.527  0.00  0.00    +0.001 A 
ATOM      9  C   UNL     1       9.574   1.455  24.467  0.00  0.00    +0.013 A 
ATOM     10  C   UNL     1       8.965   0.236  24.075  0.00  0.00    +0.041 A 
ENDROOT
BRANCH   1  17
ATOM     11  C   UNL     1       3.830   0.588  27.964  0.00  0.00    +0.065 C 
ATOM     12  C   UNL     1       5.283   0.406  27.770  0.00  0.00    +0.035 A 
ATOM     13  N   UNL     1       6.230   0.913  28.615  0.00  0.00    -0.280 N 
ATOM     14  H   UNL     1       6.086   1.449  29.463  0.00  0.00    +0.189 HD
ATOM     15  N   UNL     1       7.494   0.650  28.235  0.00  0.00    -0.158 NA
ATOM     16  C   UNL     1       7.357  -0.018  27.087  0.00  0.00    +0.146 A 
ATOM     17  N   UNL     1       8.391  -0.463  26.343  0.00  0.00    -0.282 N 
ATOM     18  H   UNL     1       9.306  -0.177  26.669  0.00  0.00    +0.155 HD
ATOM     19  C   UNL     1       5.991  -0.243  26.788  0.00  0.00    +0.068 A 
ENDBRANCH   1  17
BRANCH   3  20
ATOM     20  C   UNL     1       7.431  -3.435  22.748  0.00  0.00    +0.019 A 
ATOM     21  C   UNL     1       7.933  -4.632  23.304  0.00  0.00    +0.011 A 
ATOM     22  C   UNL     1       7.492  -5.886  22.866  0.00  0.00    +0.001 A 
ATOM     23  C   UNL     1       6.540  -5.975  21.859  0.00  0.00    +0.000 A 
ATOM     24  C   UNL     1       6.025  -4.814  21.291  0.00  0.00    +0.001 A 
ATOM     25  C   UNL     1       6.465  -3.561  21.731  0.00  0.00    +0.011 A 
ENDBRANCH   3  20
TORSDOF 2
ENDMDL
MODEL 3
REMARK VINA RESULT:      -6.7      5.220      8.492
REMARK  Name = 
REMARK  3 active torsions:
REMARK  status: ('A' for Active; 'I' for Inactive)
REMARK    1  A    between atoms: C_1  and  C_2
REMARK    2  A    between atoms: N_5  and  C_6
REMARK    3  A    between atoms: C_14  and  C_16
REMARK                            x       y       z     vdW  Elec       q    Type
REMARK                         _______ _______ _______ _____ _____    ______ ____
ROOT
ATOM      1  C   UNL     1       7.223   3.538  22.441  0.00  0.00    +0.136 A 
ATOM      2  N   UNL     1       7.642   2.261  22.493  0.00  0.00    -0.212 NA
ATOM      3  C   UNL     1       8.827   2.000  23.058  0.00  0.00    +0.162 A 
ATOM      4  N   UNL     1       9.640   2.940  23.563  0.00  0.00    -0.227 NA
ATOM      5  C   UNL     1       9.222   4.208  23.512  0.00  0.00    +0.077 A 
ATOM      6  C   UNL     1      10.027   5.190  24.075  0.00  0.00    +0.028 A 
ATOM      7  C   UNL     1       9.644   6.534  24.108  0.00  0.00    +0.002 A 
ATOM      8  C   UNL     1       8.428   6.917  23.555  0.00  0.00    +0.001 A 
ATOM      9  C   UNL     1       7.608   5.953  22.976  0.00  0.00    +0.013 A 
ATOM     10  C   UNL     1       7.996   4.589  22.950  0.00  0.00    +0.041 A 
ENDROOT
BRANCH   1  17
ATOM     11  C   UNL     1       2.483   3.014  25.393  0.00  0.00    +0.065 C 
ATOM     12  C   UNL     1       3.253   3.226  24.151  0.00  0.00    +0.035 A 
ATOM     13  N   UNL     1       2.721   3.103  22.899  0.00  0.00    -0.280 N 
ATOM     14  H   UNL     1       1.766   2.873  22.647  0.00  0.00    +0.189 HD
ATOM     15  N   UNL     1       3.607   3.315  21.908  0.00  0.00    -0.158 NA
ATOM     16  C   UNL     1       4.758   3.548  22.545  0.00  0.00    +0.146 A 
ATOM     17  N   UNL     1       5.930   3.792  21.922  0.00  0.00    -0.282 N 
ATOM     18  H   UNL     1       5.906   3.700  20.914  0.00  0.00    +0.155 HD
ATOM     19  C   UNL     1       4.570   3.558  23.948  0.00  0.00    +0.068 A 
ENDBRANCH   1  17
BRANCH   3  20
ATOM     20  C   UNL     1       9.215   0.583  23.186  0.00  0.00    +0.019 A 
ATOM     21  C   UNL     1       9.062  -0.114  24.403  0.00  0.00    +0.011 A 
ATOM     22  C   UNL     1       9.455  -1.451  24.538  0.00  0.00    +0.001 A 
ATOM     23  C   UNL     1      10.015  -2.122  23.460  0.00  0.00    +0.000 A 
ATOM     24  C   UNL     1      10.178  -1.463  22.245  0.00  0.00    +0.001 A 
ATOM     25  C   UNL     1       9.782  -0.128  22.111  0.00  0.00    +0.011 A 
ENDBRANCH   3  20
TORSDOF 2
ENDMDL
MODEL 4
REMARK VINA RESULT:      -6.7      3.581      6.669
REMARK  Name = 
REMARK  3 active torsions:
REMARK  status: ('A' for Active; 'I' for Inactive)
REMARK    1  A    between atoms: C_1  and  C_2
REMARK    2  A    between atoms: N_5  and  C_6
REMARK    3  A    between atoms: C_14  and  C_16
REMARK                            x       y       z     vdW  Elec       q    Type
REMARK                         _______ _______ _______ _____ _____    ______ ____
ROOT
ATOM      1  C   UNL     1       6.908   0.275  23.420  0.00  0.00    +0.136 A 
ATOM      2  N   UNL     1       6.425  -0.949  23.141  0.00  0.00    -0.212 NA
ATOM      3  C   UNL     1       7.275  -1.982  23.121  0.00  0.00    +0.162 A 
ATOM      4  N   UNL     1       8.593  -1.873  23.345  0.00  0.00    -0.227 NA
ATOM      5  C   UNL     1       9.072  -0.657  23.624  0.00  0.00    +0.077 A 
ATOM      6  C   UNL     1      10.426  -0.531  23.909  0.00  0.00    +0.028 A 
ATOM      7  C   UNL     1      10.999   0.695  24.257  0.00  0.00    +0.002 A 
ATOM      8  C   UNL     1      10.206   1.835  24.315  0.00  0.00    +0.001 A 
ATOM      9  C   UNL     1       8.848   1.737  24.024  0.00  0.00    +0.013 A 
ATOM     10  C   UNL     1       8.268   0.490  23.677  0.00  0.00    +0.041 A 
ENDROOT
BRANCH   1  17
ATOM     11  C   UNL     1       4.270   1.709  28.157  0.00  0.00    +0.065 C 
ATOM     12  C   UNL     1       4.518   1.788  26.703  0.00  0.00    +0.035 A 
ATOM     13  N   UNL     1       3.641   2.341  25.813  0.00  0.00    -0.280 N 
ATOM     14  H   UNL     1       2.744   2.770  26.007  0.00  0.00    +0.189 HD
ATOM     15  N   UNL     1       4.057   2.284  24.534  0.00  0.00    -0.158 NA
ATOM     16  C   UNL     1       5.225   1.640  24.599  0.00  0.00    +0.146 A 
ATOM     17  N   UNL     1       5.986   1.344  23.525  0.00  0.00    -0.282 N 
ATOM     18  H   UNL     1       5.568   1.568  22.630  0.00  0.00    +0.155 HD
ATOM     19  C   UNL     1       5.579   1.362  25.941  0.00  0.00    +0.068 A 
ENDBRANCH   1  17
BRANCH   3  20
ATOM     20  C   UNL     1       6.701  -3.324  22.907  0.00  0.00    +0.019 A 
ATOM     21  C   UNL     1       5.315  -3.558  23.029  0.00  0.00    +0.011 A 
ATOM     22  C   UNL     1       4.768  -4.835  22.855  0.00  0.00    +0.001 A 
ATOM     23  C   UNL     1       5.595  -5.910  22.558  0.00  0.00    +0.000 A 
ATOM     24  C   UNL     1       6.966  -5.711  22.430  0.00  0.00    +0.001 A 
ATOM     25  C   UNL     1       7.511  -4.434  22.601  0.00  0.00    +0.011 A 
ENDBRANCH   3  20
TORSDOF 2
ENDMDL
MODEL 5
REMARK VINA RESULT:      -6.6      1.625      2.084
REMARK  Name = 
REMARK  3 active torsions:
REMARK  status: ('A' for Active; 'I' for Inactive)
REMARK    1  A    between atoms: C_1  and  C_2
REMARK    2  A    between atoms: N_5  and  C_6
REMARK    3  A    between atoms: C_14  and  C_16
REMARK                            x       y       z     vdW  Elec       q    Type
REMARK                         _______ _______ _______ _____ _____    ______ ____
ROOT
ATOM      1  C   UNL     1       6.162  -3.001  24.667  0.00  0.00    +0.136 A 
ATOM      2  N   UNL     1       7.080  -2.018  24.634  0.00  0.00    -0.212 NA
ATOM      3  C   UNL     1       8.010  -2.045  23.672  0.00  0.00    +0.162 A 
ATOM      4  N   UNL     1       8.099  -3.008  22.741  0.00  0.00    -0.227 NA
ATOM      5  C   UNL     1       7.186  -3.982  22.775  0.00  0.00    +0.077 A 
ATOM      6  C   UNL     1       7.230  -4.961  21.789  0.00  0.00    +0.028 A 
ATOM      7  C   UNL     1       6.285  -5.988  21.722  0.00  0.00    +0.002 A 
ATOM      8  C   UNL     1       5.270  -6.054  22.668  0.00  0.00    +0.001 A 
ATOM      9  C   UNL     1       5.209  -5.091  23.672  0.00  0.00    +0.013 A 
ATOM     10  C   UNL     1       6.165  -4.045  23.734  0.00  0.00    +0.041 A 
ENDROOT
BRANCH   1  17
ATOM     11  C   UNL     1       5.992  -6.045  29.374  0.00  0.00    +0.065 C 
ATOM     12  C   UNL     1       5.428  -5.109  28.381  0.00  0.00    +0.035 A 
ATOM     13  N   UNL     1       4.097  -4.815  28.288  0.00  0.00    -0.280 N 
ATOM     14  H   UNL     1       3.339  -5.165  28.863  0.00  0.00    +0.189 HD
ATOM     15  N   UNL     1       3.798  -3.956  27.295  0.00  0.00    -0.158 NA
ATOM     16  C   UNL     1       4.973  -3.718  26.707  0.00  0.00    +0.146 A 
ATOM     17  N   UNL     1       5.131  -2.914  25.634  0.00  0.00    -0.282 N 
ATOM     18  H   UNL     1       4.271  -2.559  25.235  0.00  0.00    +0.155 HD
ATOM     19  C   UNL     1       6.026  -4.372  27.388  0.00  0.00    +0.068 A 
ENDBRANCH   1  17
BRANCH   3  20
ATOM     20  C   UNL     1       8.942  -0.904  23.604  0.00  0.00    +0.019 A 
ATOM     21  C   UNL     1       9.688  -0.496  24.730  0.00  0.00    +0.011 A 
ATOM     22  C   UNL     1      10.553   0.604  24.678  0.00  0.00    +0.001 A 
ATOM     23  C   UNL     1      10.691   1.324  23.499  0.00  0.00    +0.000 A 
ATOM     24  C   UNL     1       9.970   0.946  22.371  0.00  0.00    +0.001 A 
ATOM     25  C   UNL     1       9.108  -0.155  22.424  0.00  0.00    +0.011 A 
ENDBRANCH   3  20
TORSDOF 2
ENDMDL
MODEL 6
REMARK VINA RESULT:      -6.6      1.581      6.103
REMARK  Name = 
REMARK  3 active torsions:
REMARK  status: ('A' for Active; 'I' for Inactive)
REMARK    1  A    between atoms: C_1  and  C_2
REMARK    2  A    between atoms: N_5  and  C_6
REMARK    3  A    between atoms: C_14  and  C_16
REMARK                            x       y       z     vdW  Elec       q    Type
REMARK                         _______ _______ _______ _____ _____    ______ ____
ROOT
ATOM      1  C   UNL     1       7.850  -4.345  24.842  0.00  0.00    +0.136 A 
ATOM      2  N   UNL     1       7.407  -4.409  26.110  0.00  0.00    -0.212 NA
ATOM      3  C   UNL     1       6.244  -5.027  26.350  0.00  0.00    +0.162 A 
ATOM      4  N   UNL     1       5.475  -5.576  25.397  0.00  0.00    -0.227 NA
ATOM      5  C   UNL     1       5.918  -5.513  24.138  0.00  0.00    +0.077 A 
ATOM      6  C   UNL     1       5.161  -6.119  23.143  0.00  0.00    +0.028 A 
ATOM      7  C   UNL     1       5.574  -6.142  21.808  0.00  0.00    +0.002 A 
ATOM      8  C   UNL     1       6.770  -5.536  21.446  0.00  0.00    +0.001 A 
ATOM      9  C   UNL     1       7.542  -4.912  22.423  0.00  0.00    +0.013 A 
ATOM     10  C   UNL     1       7.124  -4.896  23.778  0.00  0.00    +0.041 A 
ENDROOT
BRANCH   1  17
ATOM     11  C   UNL     1       8.652   0.964  23.223  0.00  0.00    +0.065 C 
ATOM     12  C   UNL     1       9.098  -0.414  23.512  0.00  0.00    +0.035 A 
ATOM     13  N   UNL     1      10.283  -0.935  23.076  0.00  0.00    -0.280 N 
ATOM     14  H   UNL     1      11.002  -0.476  22.530  0.00  0.00    +0.189 HD
ATOM     15  N   UNL     1      10.476  -2.218  23.433  0.00  0.00    -0.158 NA
ATOM     16  C   UNL     1       9.361  -2.545  24.091  0.00  0.00    +0.146 A 
ATOM     17  N   UNL     1       9.122  -3.767  24.612  0.00  0.00    -0.282 N 
ATOM     18  H   UNL     1       9.818  -4.469  24.394  0.00  0.00    +0.155 HD
ATOM     19  C   UNL     1       8.497  -1.431  24.213  0.00  0.00    +0.068 A 
ENDBRANCH   1  17
BRANCH   3  20
ATOM     20  C   UNL     1       5.832  -5.165  27.760  0.00  0.00    +0.019 A 
ATOM     21  C   UNL     1       4.910  -4.272  28.347  0.00  0.00    +0.011 A 
ATOM     22  C   UNL     1       4.538  -4.381  29.692  0.00  0.00    +0.001 A 
ATOM     23  C   UNL     1       5.082  -5.384  30.484  0.00  0.00    +0.000 A 
ATOM     24  C   UNL     1       5.992  -6.280  29.934  0.00  0.00    +0.001 A 
ATOM     25  C   UNL     1       6.362  -6.172  28.589  0.00  0.00    +0.011 A 
ENDBRANCH   3  20
TORSDOF 2
ENDMDL
MODEL 7
REMARK VINA RESULT:      -6.6      4.318      5.646
REMARK  Name = 
REMARK  3 active torsions:
REMARK  status: ('A' for Active; 'I' for Inactive)
REMARK    1  A    between atoms: C_1  and  C_2
REMARK    2  A    between atoms: N_5  and  C_6
REMARK    3  A    between atoms: C_14  and  C_16
REMARK                            x       y       z     vdW  Elec       q    Type
REMARK                         _______ _______ _______ _____ _____    ______ ____
ROOT
ATOM      1  C   UNL     1       8.794   1.025  25.221  0.00  0.00    +0.136 A 
ATOM      2  N   UNL     1       8.582   2.316  24.908  0.00  0.00    -0.212 NA
ATOM      3  C   UNL     1       8.818   2.716  23.652  0.00  0.00    +0.162 A 
ATOM      4  N   UNL     1       9.274   1.910  22.682  0.00  0.00    -0.227 NA
ATOM      5  C   UNL     1       9.483   0.628  22.993  0.00  0.00    +0.077 A 
ATOM      6  C   UNL     1       9.908  -0.233  21.989  0.00  0.00    +0.028 A 
ATOM      7  C   UNL     1      10.104  -1.598  22.218  0.00  0.00    +0.002 A 
ATOM      8  C   UNL     1       9.882  -2.124  23.485  0.00  0.00    +0.001 A 
ATOM      9  C   UNL     1       9.466  -1.279  24.510  0.00  0.00    +0.013 A 
ATOM     10  C   UNL     1       9.261   0.104  24.274  0.00  0.00    +0.041 A 
ENDROOT
BRANCH   1  17
ATOM     11  C   UNL     1       3.539   0.497  27.107  0.00  0.00    +0.065 C 
ATOM     12  C   UNL     1       5.007   0.517  27.265  0.00  0.00    +0.035 A 
ATOM     13  N   UNL     1       5.638   0.645  28.470  0.00  0.00    -0.280 N 
ATOM     14  H   UNL     1       5.217   0.726  29.389  0.00  0.00    +0.189 HD
ATOM     15  N   UNL     1       6.981   0.666  28.381  0.00  0.00    -0.158 NA
ATOM     16  C   UNL     1       7.221   0.585  27.070  0.00  0.00    +0.146 A 
ATOM     17  N   UNL     1       8.457   0.595  26.527  0.00  0.00    -0.282 N 
ATOM     18  H   UNL     1       9.211   0.760  27.182  0.00  0.00    +0.155 HD
ATOM     19  C   UNL     1       6.019   0.433  26.340  0.00  0.00    +0.068 A 
ENDBRANCH   1  17
BRANCH   3  20
ATOM     20  C   UNL     1       8.485   4.113  23.316  0.00  0.00    +0.019 A 
ATOM     21  C   UNL     1       7.406   4.427  22.463  0.00  0.00    +0.011 A 
ATOM     22  C   UNL     1       7.103   5.750  22.118  0.00  0.00    +0.001 A 
ATOM     23  C   UNL     1       7.875   6.791  22.616  0.00  0.00    +0.000 A 
ATOM     24  C   UNL     1       8.946   6.515  23.460  0.00  0.00    +0.001 A 
ATOM     25  C   UNL     1       9.245   5.192  23.806  0.00  0.00    +0.011 A 
ENDBRANCH   3  20
TORSDOF 2
ENDMDL
MODEL 8
REMARK VINA RESULT:      -6.5      4.496      6.566
REMARK  Name = 
REMARK  3 active torsions:
REMARK  status: ('A' for Active; 'I' for Inactive)
REMARK    1  A    between atoms: C_1  and  C_2
REMARK    2  A    between atoms: N_5  and  C_6
REMARK    3  A    between atoms: C_14  and  C_16
REMARK                            x       y       z     vdW  Elec       q    Type
REMARK                         _______ _______ _______ _____ _____    ______ ____
ROOT
ATOM      1  C   UNL     1       7.442   1.224  24.045  0.00  0.00    +0.136 A 
ATOM      2  N   UNL     1       8.145   2.361  24.197  0.00  0.00    -0.212 NA
ATOM      3  C   UNL     1       9.372   2.429  23.667  0.00  0.00    +0.162 A 
ATOM      4  N   UNL     1       9.960   1.422  23.003  0.00  0.00    -0.227 NA
ATOM      5  C   UNL     1       9.260   0.294  22.851  0.00  0.00    +0.077 A 
ATOM      6  C   UNL     1       9.831  -0.742  22.123  0.00  0.00    +0.028 A 
ATOM      7  C   UNL     1       9.150  -1.937  21.876  0.00  0.00    +0.002 A 
ATOM      8  C   UNL     1       7.865  -2.114  22.374  0.00  0.00    +0.001 A 
ATOM      9  C   UNL     1       7.274  -1.094  23.115  0.00  0.00    +0.013 A 
ATOM     10  C   UNL     1       7.966   0.120  23.360  0.00  0.00    +0.041 A 
ENDROOT
BRANCH   1  17
ATOM     11  C   UNL     1       3.351   4.612  22.247  0.00  0.00    +0.065 C 
ATOM     12  C   UNL     1       3.927   3.595  23.150  0.00  0.00    +0.035 A 
ATOM     13  N   UNL     1       3.399   3.276  24.368  0.00  0.00    -0.280 N 
ATOM     14  H   UNL     1       2.568   3.657  24.807  0.00  0.00    +0.189 HD
ATOM     15  N   UNL     1       4.099   2.340  25.036  0.00  0.00    -0.158 NA
ATOM     16  C   UNL     1       5.134   2.075  24.236  0.00  0.00    +0.146 A 
ATOM     17  N   UNL     1       6.114   1.195  24.533  0.00  0.00    -0.282 N 
ATOM     18  H   UNL     1       6.065   0.799  25.463  0.00  0.00    +0.155 HD
ATOM     19  C   UNL     1       5.036   2.795  23.021  0.00  0.00    +0.068 A 
ENDBRANCH   1  17
BRANCH   3  20
ATOM     20  C   UNL     1      10.079   3.720  23.768  0.00  0.00    +0.019 A 
ATOM     21  C   UNL     1      11.426   3.855  23.366  0.00  0.00    +0.011 A 
ATOM     22  C   UNL     1      12.109   5.070  23.486  0.00  0.00    +0.001 A 
ATOM     23  C   UNL     1      11.465   6.180  24.015  0.00  0.00    +0.000 A 
ATOM     24  C   UNL     1      10.138   6.080  24.420  0.00  0.00    +0.001 A 
ATOM     25  C   UNL     1       9.454   4.865  24.296  0.00  0.00    +0.011 A 
ENDBRANCH   3  20
TORSDOF 2
ENDMDL
MODEL 9
REMARK VINA RESULT:      -6.4      2.568      4.695
REMARK  Name = 
REMARK  3 active torsions:
REMARK  status: ('A' for Active; 'I' for Inactive)
REMARK    1  A    between atoms: C_1  and  C_2
REMARK    2  A    between atoms: N_5  and  C_6
REMARK    3  A    between atoms: C_14  and  C_16
REMARK                            x       y       z     vdW  Elec       q    Type
REMARK                         _______ _______ _______ _____ _____    ______ ____
ROOT
ATOM      1  C   UNL     1       8.260  -1.578  25.051  0.00  0.00    +0.136 A 
ATOM      2  N   UNL     1       8.842  -0.458  24.585  0.00  0.00    -0.212 NA
ATOM      3  C   UNL     1       8.319   0.725  24.930  0.00  0.00    +0.162 A 
ATOM      4  N   UNL     1       7.231   0.867  25.703  0.00  0.00    -0.227 NA
ATOM      5  C   UNL     1       6.656  -0.246  26.166  0.00  0.00    +0.077 A 
ATOM      6  C   UNL     1       5.558  -0.118  27.009  0.00  0.00    +0.028 A 
ATOM      7  C   UNL     1       4.926  -1.228  27.576  0.00  0.00    +0.002 A 
ATOM      8  C   UNL     1       5.391  -2.506  27.291  0.00  0.00    +0.001 A 
ATOM      9  C   UNL     1       6.482  -2.661  26.441  0.00  0.00    +0.013 A 
ATOM     10  C   UNL     1       7.126  -1.533  25.872  0.00  0.00    +0.041 A 
ENDROOT
BRANCH   1  17
ATOM     11  C   UNL     1       6.304  -5.230  21.272  0.00  0.00    +0.065 C 
ATOM     12  C   UNL     1       7.204  -4.809  22.363  0.00  0.00    +0.035 A 
ATOM     13  N   UNL     1       7.943  -5.678  23.115  0.00  0.00    -0.280 N 
ATOM     14  H   UNL     1       7.992  -6.687  23.032  0.00  0.00    +0.189 HD
ATOM     15  N   UNL     1       8.676  -5.082  24.073  0.00  0.00    -0.158 NA
ATOM     16  C   UNL     1       8.370  -3.787  23.958  0.00  0.00    +0.146 A 
ATOM     17  N   UNL     1       8.874  -2.818  24.752  0.00  0.00    -0.282 N 
ATOM     18  H   UNL     1       9.446  -3.148  25.519  0.00  0.00    +0.155 HD
ATOM     19  C   UNL     1       7.499  -3.564  22.865  0.00  0.00    +0.068 A 
ENDBRANCH   1  17
BRANCH   3  20
ATOM     20  C   UNL     1       9.034   1.935  24.483  0.00  0.00    +0.019 A 
ATOM     21  C   UNL     1      10.245   1.849  23.762  0.00  0.00    +0.011 A 
ATOM     22  C   UNL     1      10.942   2.994  23.360  0.00  0.00    +0.001 A 
ATOM     23  C   UNL     1      10.449   4.253  23.673  0.00  0.00    +0.000 A 
ATOM     24  C   UNL     1       9.258   4.372  24.382  0.00  0.00    +0.001 A 
ATOM     25  C   UNL     1       8.560   3.226  24.780  0.00  0.00    +0.011 A 
ENDBRANCH   3  20
TORSDOF 2
ENDMDL
