MODEL 1
REMARK VINA RESULT:      -7.9      0.000      0.000
REMARK  Name = 
REMARK  5 active torsions:
REMARK  status: ('A' for Active; 'I' for Inactive)
REMARK    1  A    between atoms: C_1  and  S_2
REMARK    2  A    between atoms: S_2  and  C_5
REMARK    3  A    between atoms: C_7  and  N_8
REMARK    4  A    between atoms: C_11  and  N_12
REMARK    5  A    between atoms: N_12  and  C_13
REMARK                            x       y       z     vdW  Elec       q    Type
REMARK                         _______ _______ _______ _____ _____    ______ ____
ROOT
ATOM      1  N   UNL     1      10.623   2.248  23.793  0.00  0.00    -0.284 N 
ATOM      2  H   UNL     1      10.842   1.980  24.746  0.00  0.00    +0.155 HD
ATOM      3  C   UNL     1      10.296   1.061  23.124  0.00  0.00    +0.221 A 
ATOM      4  N   UNL     1       9.827   1.072  21.868  0.00  0.00    -0.223 NA
ATOM      5  C   UNL     1       9.449  -0.101  21.342  0.00  0.00    +0.118 A 
ATOM      6  C   UNL     1       9.500  -1.283  22.032  0.00  0.00    +0.063 A 
ATOM      7  C   UNL     1       9.958  -1.210  23.330  0.00  0.00    +0.128 A 
ATOM      8  N   UNL     1      10.412  -0.059  23.857  0.00  0.00    -0.199 NA
ENDROOT
BRANCH   1  13
ATOM      9  C   UNL     1       8.156   5.031  23.407  0.00  0.00    +0.090 A 
ATOM     10  C   UNL     1       8.990   6.145  23.461  0.00  0.00    +0.027 A 
ATOM     11  C   UNL     1      10.364   5.951  23.582  0.00  0.00    +0.004 A 
ATOM     12  C   UNL     1      10.883   4.654  23.674  0.00  0.00    +0.023 A 
ATOM     13  C   UNL     1      10.047   3.525  23.659  0.00  0.00    +0.035 A 
ATOM     14  C   UNL     1       8.678   3.734  23.470  0.00  0.00    +0.050 A 
BRANCH   9  16
ATOM     15  C   UNL     1       5.834   3.695  22.615  0.00  0.00    +0.200 C 
ATOM     16  S   UNL     1       6.396   5.236  23.294  0.00  0.00    -0.006 S 
ATOM     17  O   UNL     1       5.874   5.329  24.645  0.00  0.00    -0.170 OA
ATOM     18  O   UNL     1       6.142   6.285  22.326  0.00  0.00    -0.170 OA
ENDBRANCH   9  16
ENDBRANCH   1  13
BRANCH   7  19
ATOM     19  N   UNL     1       9.870  -2.384  24.111  0.00  0.00    -0.295 N 
ATOM     20  H   UNL     1      10.749  -2.566  24.590  0.00  0.00    +0.154 HD
BRANCH  19  21
ATOM     21  C   UNL     1       8.766  -2.896  24.830  0.00  0.00    +0.097 A 
ATOM     22  C   UNL     1       8.023  -3.922  24.244  0.00  0.00    +0.189 A 
ATOM     23  O   UNL     1       8.288  -4.490  23.028  0.00  0.00    -0.451 OA
ATOM     24  C   UNL     1       7.169  -5.391  22.896  0.00  0.00    +0.466 C 
ATOM     25  O   UNL     1       6.323  -5.429  24.062  0.00  0.00    -0.453 OA
ATOM     26  C   UNL     1       6.900  -4.467  24.829  0.00  0.00    +0.168 A 
ATOM     27  C   UNL     1       6.433  -4.036  26.046  0.00  0.00    +0.051 A 
ATOM     28  C   UNL     1       7.114  -2.980  26.652  0.00  0.00    +0.025 A 
ATOM     29  C   UNL     1       8.247  -2.393  26.041  0.00  0.00    +0.066 A 
ATOM     30 CL   UNL     1       8.821  -0.946  26.806  0.00  0.00    -0.081 Cl
ENDBRANCH  19  21
ENDBRANCH   7  19
TORSDOF 4
ENDMDL
MODEL 2
REMARK VINA RESULT:      -7.8      3.330      8.670
REMARK  Name = 
REMARK  5 active torsions:
REMARK  status: ('A' for Active; 'I' for Inactive)
REMARK    1  A    between atoms: C_1  and  S_2
REMARK    2  A    between atoms: S_2  and  C_5
REMARK    3  A    between atoms: C_7  and  N_8
REMARK    4  A    between atoms: C_11  and  N_12
REMARK    5  A    between atoms: N_12  and  C_13
REMARK                            x       y       z     vdW  Elec       q    Type
REMARK                         _______ _______ _______ _____ _____    ______ ____
ROOT
ATOM      1  N   UNL     1       6.451  -1.267  23.422  0.00  0.00    -0.284 N 
ATOM      2  H   UNL     1       6.078  -0.696  24.172  0.00  0.00    +0.155 HD
ATOM      3  C   UNL     1       7.648  -0.654  23.029  0.00  0.00    +0.221 A 
ATOM      4  N   UNL     1       8.468  -1.229  22.137  0.00  0.00    -0.223 NA
ATOM      5  C   UNL     1       9.636  -0.618  21.893  0.00  0.00    +0.118 A 
ATOM      6  C   UNL     1      10.026   0.533  22.523  0.00  0.00    +0.063 A 
ATOM      7  C   UNL     1       9.146   1.046  23.453  0.00  0.00    +0.128 A 
ATOM      8  N   UNL     1       7.938   0.493  23.663  0.00  0.00    -0.199 NA
ENDROOT
BRANCH   1  13
ATOM      9  C   UNL     1       6.051  -4.747  24.730  0.00  0.00    +0.090 A 
ATOM     10  C   UNL     1       5.457  -5.381  23.642  0.00  0.00    +0.027 A 
ATOM     11  C   UNL     1       5.237  -4.652  22.477  0.00  0.00    +0.004 A 
ATOM     12  C   UNL     1       5.588  -3.298  22.420  0.00  0.00    +0.023 A 
ATOM     13  C   UNL     1       6.154  -2.639  23.525  0.00  0.00    +0.035 A 
ATOM     14  C   UNL     1       6.429  -3.402  24.664  0.00  0.00    +0.050 A 
BRANCH   9  16
ATOM     15  C   UNL     1       5.795  -4.483  27.500  0.00  0.00    +0.200 C 
ATOM     16  S   UNL     1       6.312  -5.631  26.248  0.00  0.00    -0.006 S 
ATOM     17  O   UNL     1       5.383  -6.747  26.274  0.00  0.00    -0.170 OA
ATOM     18  O   UNL     1       7.739  -5.849  26.385  0.00  0.00    -0.170 OA
ENDBRANCH   9  16
ENDBRANCH   1  13
BRANCH   7  19
ATOM     19  N   UNL     1       9.593   2.138  24.228  0.00  0.00    -0.295 N 
ATOM     20  H   UNL     1      10.482   1.926  24.674  0.00  0.00    +0.154 HD
BRANCH  19  21
ATOM     21  C   UNL     1       9.447   3.523  23.986  0.00  0.00    +0.097 A 
ATOM     22  C   UNL     1      10.585   4.249  23.630  0.00  0.00    +0.189 A 
ATOM     23  O   UNL     1      11.839   3.722  23.478  0.00  0.00    -0.451 OA
ATOM     24  C   UNL     1      12.608   4.914  23.218  0.00  0.00    +0.466 C 
ATOM     25  O   UNL     1      11.803   6.104  23.112  0.00  0.00    -0.453 OA
ATOM     26  C   UNL     1      10.574   5.610  23.416  0.00  0.00    +0.168 A 
ATOM     27  C   UNL     1       9.426   6.355  23.535  0.00  0.00    +0.051 A 
ATOM     28  C   UNL     1       8.270   5.684  23.933  0.00  0.00    +0.025 A 
ATOM     29  C   UNL     1       8.282   4.292  24.188  0.00  0.00    +0.066 A 
ATOM     30 CL   UNL     1       6.830   3.668  24.903  0.00  0.00    -0.081 Cl
ENDBRANCH  19  21
ENDBRANCH   7  19
TORSDOF 4
ENDMDL
MODEL 3
REMARK VINA RESULT:      -7.8      3.255      8.507
REMARK  Name = 
REMARK  5 active torsions:
REMARK  status: ('A' for Active; 'I' for Inactive)
REMARK    1  A    between atoms: C_1  and  S_2
REMARK    2  A    between atoms: S_2  and  C_5
REMARK    3  A    between atoms: C_7  and  N_8
REMARK    4  A    between atoms: C_11  and  N_12
REMARK    5  A    between atoms: N_12  and  C_13
REMARK                            x       y       z     vdW  Elec       q    Type
REMARK                         _______ _______ _______ _____ _____    ______ ____
ROOT
ATOM      1  N   UNL     1       8.431  -0.827  22.185  0.00  0.00    -0.284 N 
ATOM      2  H   UNL     1       8.114  -0.228  21.432  0.00  0.00    +0.155 HD
ATOM      3  C   UNL     1       9.373  -0.078  22.904  0.00  0.00    +0.221 A 
ATOM      4  N   UNL     1       9.898  -0.531  24.052  0.00  0.00    -0.223 NA
ATOM      5  C   UNL     1      10.717   0.292  24.721  0.00  0.00    +0.118 A 
ATOM      6  C   UNL     1      11.013   1.560  24.299  0.00  0.00    +0.063 A 
ATOM      7  C   UNL     1      10.407   1.970  23.129  0.00  0.00    +0.128 A 
ATOM      8  N   UNL     1       9.640   1.138  22.401  0.00  0.00    -0.199 NA
ENDROOT
BRANCH   1  13
ATOM      9  C   UNL     1       6.383  -3.902  22.766  0.00  0.00    +0.090 A 
ATOM     10  C   UNL     1       5.511  -3.464  23.759  0.00  0.00    +0.027 A 
ATOM     11  C   UNL     1       5.589  -2.142  24.189  0.00  0.00    +0.004 A 
ATOM     12  C   UNL     1       6.551  -1.284  23.644  0.00  0.00    +0.023 A 
ATOM     13  C   UNL     1       7.462  -1.725  22.669  0.00  0.00    +0.035 A 
ATOM     14  C   UNL     1       7.326  -3.036  22.201  0.00  0.00    +0.050 A 
BRANCH   9  16
ATOM     15  C   UNL     1       5.213  -6.372  23.343  0.00  0.00    +0.200 C 
ATOM     16  S   UNL     1       6.342  -5.590  22.218  0.00  0.00    -0.006 S 
ATOM     17  O   UNL     1       5.728  -5.613  20.903  0.00  0.00    -0.170 OA
ATOM     18  O   UNL     1       7.664  -6.148  22.431  0.00  0.00    -0.170 OA
ENDBRANCH   9  16
ENDBRANCH   1  13
BRANCH   7  19
ATOM     19  N   UNL     1      10.569   3.322  22.758  0.00  0.00    -0.295 N 
ATOM     20  H   UNL     1      10.081   3.520  21.888  0.00  0.00    +0.154 HD
BRANCH  19  21
ATOM     21  C   UNL     1      10.657   4.469  23.580  0.00  0.00    +0.097 A 
ATOM     22  C   UNL     1       9.490   4.923  24.196  0.00  0.00    +0.189 A 
ATOM     23  O   UNL     1       8.259   4.334  24.083  0.00  0.00    -0.451 OA
ATOM     24  C   UNL     1       7.441   5.264  24.822  0.00  0.00    +0.466 C 
ATOM     25  O   UNL     1       8.195   6.319  25.449  0.00  0.00    -0.453 OA
ATOM     26  C   UNL     1       9.443   6.055  24.981  0.00  0.00    +0.168 A 
ATOM     27  C   UNL     1      10.559   6.821  25.217  0.00  0.00    +0.051 A 
ATOM     28  C   UNL     1      11.742   6.436  24.586  0.00  0.00    +0.025 A 
ATOM     29  C   UNL     1      11.788   5.294  23.752  0.00  0.00    +0.066 A 
ATOM     30 CL   UNL     1      13.264   5.099  22.862  0.00  0.00    -0.081 Cl
ENDBRANCH  19  21
ENDBRANCH   7  19
TORSDOF 4
ENDMDL
MODEL 4
REMARK VINA RESULT:      -7.8      3.171      8.570
REMARK  Name = 
REMARK  5 active torsions:
REMARK  status: ('A' for Active; 'I' for Inactive)
REMARK    1  A    between atoms: C_1  and  S_2
REMARK    2  A    between atoms: S_2  and  C_5
REMARK    3  A    between atoms: C_7  and  N_8
REMARK    4  A    between atoms: C_11  and  N_12
REMARK    5  A    between atoms: N_12  and  C_13
REMARK                            x       y       z     vdW  Elec       q    Type
REMARK                         _______ _______ _______ _____ _____    ______ ____
ROOT
ATOM      1  N   UNL     1       8.663  -1.767  22.381  0.00  0.00    -0.284 N 
ATOM      2  H   UNL     1       8.175  -1.305  21.622  0.00  0.00    +0.155 HD
ATOM      3  C   UNL     1       9.376  -0.762  23.049  0.00  0.00    +0.221 A 
ATOM      4  N   UNL     1      10.032  -1.012  24.192  0.00  0.00    -0.223 NA
ATOM      5  C   UNL     1      10.605   0.028  24.812  0.00  0.00    +0.118 A 
ATOM      6  C   UNL     1      10.527   1.314  24.347  0.00  0.00    +0.063 A 
ATOM      7  C   UNL     1       9.804   1.499  23.187  0.00  0.00    +0.128 A 
ATOM      8  N   UNL     1       9.283   0.462  22.506  0.00  0.00    -0.199 NA
ENDROOT
BRANCH   1  13
ATOM      9  C   UNL     1       7.369  -4.359  24.745  0.00  0.00    +0.090 A 
ATOM     10  C   UNL     1       6.549  -5.109  23.906  0.00  0.00    +0.027 A 
ATOM     11  C   UNL     1       6.473  -4.766  22.558  0.00  0.00    +0.004 A 
ATOM     12  C   UNL     1       7.193  -3.668  22.072  0.00  0.00    +0.023 A 
ATOM     13  C   UNL     1       7.993  -2.881  22.919  0.00  0.00    +0.035 A 
ATOM     14  C   UNL     1       8.111  -3.279  24.254  0.00  0.00    +0.050 A 
BRANCH   9  16
ATOM     15  C   UNL     1       6.253  -3.666  27.211  0.00  0.00    +0.200 C 
ATOM     16  S   UNL     1       7.463  -4.739  26.477  0.00  0.00    -0.006 S 
ATOM     17  O   UNL     1       6.998  -6.102  26.656  0.00  0.00    -0.170 OA
ATOM     18  O   UNL     1       8.776  -4.335  26.940  0.00  0.00    -0.170 OA
ENDBRANCH   9  16
ENDBRANCH   1  13
BRANCH   7  19
ATOM     19  N   UNL     1       9.576   2.830  22.775  0.00  0.00    -0.295 N 
ATOM     20  H   UNL     1       8.852   2.868  22.061  0.00  0.00    +0.154 HD
BRANCH  19  21
ATOM     21  C   UNL     1       9.623   4.020  23.537  0.00  0.00    +0.097 A 
ATOM     22  C   UNL     1      10.824   4.728  23.570  0.00  0.00    +0.189 A 
ATOM     23  O   UNL     1      11.967   4.372  22.905  0.00  0.00    -0.451 OA
ATOM     24  C   UNL     1      12.885   5.380  23.377  0.00  0.00    +0.466 C 
ATOM     25  O   UNL     1      12.264   6.373  24.217  0.00  0.00    -0.453 OA
ATOM     26  C   UNL     1      11.004   5.874  24.314  0.00  0.00    +0.168 A 
ATOM     27  C   UNL     1       9.996   6.407  25.080  0.00  0.00    +0.051 A 
ATOM     28  C   UNL     1       8.788   5.710  25.118  0.00  0.00    +0.025 A 
ATOM     29  C   UNL     1       8.609   4.515  24.383  0.00  0.00    +0.066 A 
ATOM     30 CL   UNL     1       7.143   3.657  24.732  0.00  0.00    -0.081 Cl
ENDBRANCH  19  21
ENDBRANCH   7  19
TORSDOF 4
ENDMDL
MODEL 5
REMARK VINA RESULT:      -7.7      3.379      8.612
REMARK  Name = 
REMARK  5 active torsions:
REMARK  status: ('A' for Active; 'I' for Inactive)
REMARK    1  A    between atoms: C_1  and  S_2
REMARK    2  A    between atoms: S_2  and  C_5
REMARK    3  A    between atoms: C_7  and  N_8
REMARK    4  A    between atoms: C_11  and  N_12
REMARK    5  A    between atoms: N_12  and  C_13
REMARK                            x       y       z     vdW  Elec       q    Type
REMARK                         _______ _______ _______ _____ _____    ______ ____
ROOT
ATOM      1  N   UNL     1       9.534  -1.507  23.797  0.00  0.00    -0.284 N 
ATOM      2  H   UNL     1       9.950  -1.229  22.916  0.00  0.00    +0.155 HD
ATOM      3  C   UNL     1       9.079  -0.326  24.399  0.00  0.00    +0.221 A 
ATOM      4  N   UNL     1       8.356  -0.350  25.528  0.00  0.00    -0.223 NA
ATOM      5  C   UNL     1       7.882   0.819  25.979  0.00  0.00    +0.118 A 
ATOM      6  C   UNL     1       8.083   2.009  25.333  0.00  0.00    +0.063 A 
ATOM      7  C   UNL     1       8.805   1.950  24.159  0.00  0.00    +0.128 A 
ATOM      8  N   UNL     1       9.353   0.802  23.724  0.00  0.00    -0.199 NA
ENDROOT
BRANCH   1  13
ATOM      9  C   UNL     1       7.336  -4.416  22.965  0.00  0.00    +0.090 A 
ATOM     10  C   UNL     1       7.851  -5.396  23.810  0.00  0.00    +0.027 A 
ATOM     11  C   UNL     1       8.891  -5.063  24.673  0.00  0.00    +0.004 A 
ATOM     12  C   UNL     1       9.422  -3.767  24.663  0.00  0.00    +0.023 A 
ATOM     13  C   UNL     1       8.936  -2.781  23.788  0.00  0.00    +0.035 A 
ATOM     14  C   UNL     1       7.847  -3.113  22.977  0.00  0.00    +0.050 A 
BRANCH   9  16
ATOM     15  C   UNL     1       4.813  -5.608  22.833  0.00  0.00    +0.200 C 
ATOM     16  S   UNL     1       6.036  -4.811  21.822  0.00  0.00    -0.006 S 
ATOM     17  O   UNL     1       5.464  -3.561  21.356  0.00  0.00    -0.170 OA
ATOM     18  O   UNL     1       6.562  -5.783  20.884  0.00  0.00    -0.170 OA
ENDBRANCH   9  16
ENDBRANCH   1  13
BRANCH   7  19
ATOM     19  N   UNL     1       8.889   3.134  23.394  0.00  0.00    -0.295 N 
ATOM     20  H   UNL     1       8.188   3.140  22.658  0.00  0.00    +0.154 HD
BRANCH  19  21
ATOM     21  C   UNL     1       9.221   4.443  23.810  0.00  0.00    +0.097 A 
ATOM     22  C   UNL     1      10.556   4.839  23.724  0.00  0.00    +0.189 A 
ATOM     23  O   UNL     1      11.578   4.063  23.247  0.00  0.00    -0.451 OA
ATOM     24  C   UNL     1      12.711   4.924  23.485  0.00  0.00    +0.466 C 
ATOM     25  O   UNL     1      12.347   6.224  23.990  0.00  0.00    -0.453 OA
ATOM     26  C   UNL     1      11.005   6.073  24.143  0.00  0.00    +0.168 A 
ATOM     27  C   UNL     1      10.157   7.011  24.678  0.00  0.00    +0.051 A 
ATOM     28  C   UNL     1       8.818   6.647  24.829  0.00  0.00    +0.025 A 
ATOM     29  C   UNL     1       8.358   5.370  24.432  0.00  0.00    +0.066 A 
ATOM     30 CL   UNL     1       6.733   4.999  24.911  0.00  0.00    -0.081 Cl
ENDBRANCH  19  21
ENDBRANCH   7  19
TORSDOF 4
ENDMDL
MODEL 6
REMARK VINA RESULT:      -7.5      3.022      8.426
REMARK  Name = 
REMARK  5 active torsions:
REMARK  status: ('A' for Active; 'I' for Inactive)
REMARK    1  A    between atoms: C_1  and  S_2
REMARK    2  A    between atoms: S_2  and  C_5
REMARK    3  A    between atoms: C_7  and  N_8
REMARK    4  A    between atoms: C_11  and  N_12
REMARK    5  A    between atoms: N_12  and  C_13
REMARK                            x       y       z     vdW  Elec       q    Type
REMARK                         _______ _______ _______ _____ _____    ______ ____
ROOT
ATOM      1  N   UNL     1       8.398  -1.320  22.428  0.00  0.00    -0.284 N 
ATOM      2  H   UNL     1       7.999  -0.811  21.648  0.00  0.00    +0.155 HD
ATOM      3  C   UNL     1       9.279  -0.431  23.059  0.00  0.00    +0.221 A 
ATOM      4  N   UNL     1       9.880  -0.746  24.215  0.00  0.00    -0.223 NA
ATOM      5  C   UNL     1      10.630   0.201  24.796  0.00  0.00    +0.118 A 
ATOM      6  C   UNL     1      10.783   1.459  24.277  0.00  0.00    +0.063 A 
ATOM      7  C   UNL     1      10.105   1.720  23.105  0.00  0.00    +0.128 A 
ATOM      8  N   UNL     1       9.406   0.766  22.465  0.00  0.00    -0.199 NA
ENDROOT
BRANCH   1  13
ATOM      9  C   UNL     1       7.001  -3.996  24.635  0.00  0.00    +0.090 A 
ATOM     10  C   UNL     1       5.707  -4.114  24.134  0.00  0.00    +0.027 A 
ATOM     11  C   UNL     1       5.333  -3.333  23.044  0.00  0.00    +0.004 A 
ATOM     12  C   UNL     1       6.243  -2.428  22.486  0.00  0.00    +0.023 A 
ATOM     13  C   UNL     1       7.539  -2.273  23.007  0.00  0.00    +0.035 A 
ATOM     14  C   UNL     1       7.920  -3.112  24.059  0.00  0.00    +0.050 A 
BRANCH   9  16
ATOM     15  C   UNL     1       9.109  -5.555  25.599  0.00  0.00    +0.200 C 
ATOM     16  S   UNL     1       7.504  -4.945  26.049  0.00  0.00    -0.006 S 
ATOM     17  O   UNL     1       7.685  -4.025  27.157  0.00  0.00    -0.170 OA
ATOM     18  O   UNL     1       6.599  -6.073  26.159  0.00  0.00    -0.170 OA
ENDBRANCH   9  16
ENDBRANCH   1  13
BRANCH   7  19
ATOM     19  N   UNL     1      10.118   3.052  22.637  0.00  0.00    -0.295 N 
ATOM     20  H   UNL     1       9.649   3.123  21.737  0.00  0.00    +0.154 HD
BRANCH  19  21
ATOM     21  C   UNL     1      10.029   4.257  23.370  0.00  0.00    +0.097 A 
ATOM     22  C   UNL     1       8.758   4.735  23.690  0.00  0.00    +0.189 A 
ATOM     23  O   UNL     1       7.579   4.120  23.365  0.00  0.00    -0.451 OA
ATOM     24  C   UNL     1       6.622   5.087  23.842  0.00  0.00    +0.466 C 
ATOM     25  O   UNL     1       7.226   6.199  24.532  0.00  0.00    -0.453 OA
ATOM     26  C   UNL     1       8.545   5.922  24.359  0.00  0.00    +0.168 A 
ATOM     27  C   UNL     1       9.585   6.721  24.767  0.00  0.00    +0.051 A 
ATOM     28  C   UNL     1      10.875   6.310  24.431  0.00  0.00    +0.025 A 
ATOM     29  C   UNL     1      11.097   5.111  23.713  0.00  0.00    +0.066 A 
ATOM     30 CL   UNL     1      12.728   4.877  23.172  0.00  0.00    -0.081 Cl
ENDBRANCH  19  21
ENDBRANCH   7  19
TORSDOF 4
ENDMDL
MODEL 7
REMARK VINA RESULT:      -7.5      3.093      8.148
REMARK  Name = 
REMARK  5 active torsions:
REMARK  status: ('A' for Active; 'I' for Inactive)
REMARK    1  A    between atoms: C_1  and  S_2
REMARK    2  A    between atoms: S_2  and  C_5
REMARK    3  A    between atoms: C_7  and  N_8
REMARK    4  A    between atoms: C_11  and  N_12
REMARK    5  A    between atoms: N_12  and  C_13
REMARK                            x       y       z     vdW  Elec       q    Type
REMARK                         _______ _______ _______ _____ _____    ______ ____
ROOT
ATOM      1  N   UNL     1       8.957  -1.163  22.235  0.00  0.00    -0.284 N 
ATOM      2  H   UNL     1       8.406  -0.905  21.424  0.00  0.00    +0.155 HD
ATOM      3  C   UNL     1       9.340   0.042  22.840  0.00  0.00    +0.221 A 
ATOM      4  N   UNL     1       9.976   0.060  24.020  0.00  0.00    -0.223 NA
ATOM      5  C   UNL     1      10.218   1.258  24.570  0.00  0.00    +0.118 A 
ATOM      6  C   UNL     1       9.828   2.439  23.996  0.00  0.00    +0.063 A 
ATOM      7  C   UNL     1       9.147   2.338  22.800  0.00  0.00    +0.128 A 
ATOM      8  N   UNL     1       8.956   1.154  22.193  0.00  0.00    -0.199 NA
ENDROOT
BRANCH   1  13
ATOM      9  C   UNL     1       7.126  -4.308  23.094  0.00  0.00    +0.090 A 
ATOM     10  C   UNL     1       7.944  -4.836  24.091  0.00  0.00    +0.027 A 
ATOM     11  C   UNL     1       9.067  -4.117  24.491  0.00  0.00    +0.004 A 
ATOM     12  C   UNL     1       9.374  -2.897  23.875  0.00  0.00    +0.023 A 
ATOM     13  C   UNL     1       8.577  -2.374  22.842  0.00  0.00    +0.035 A 
ATOM     14  C   UNL     1       7.417  -3.076  22.500  0.00  0.00    +0.050 A 
BRANCH   9  16
ATOM     15  C   UNL     1       6.186  -5.787  20.919  0.00  0.00    +0.200 C 
ATOM     16  S   UNL     1       5.707  -5.213  22.529  0.00  0.00    -0.006 S 
ATOM     17  O   UNL     1       5.560  -6.380  23.378  0.00  0.00    -0.170 OA
ATOM     18  O   UNL     1       4.621  -4.265  22.374  0.00  0.00    -0.170 OA
ENDBRANCH   9  16
ENDBRANCH   1  13
BRANCH   7  19
ATOM     19  N   UNL     1       8.597   3.526  22.271  0.00  0.00    -0.295 N 
ATOM     20  H   UNL     1       8.402   3.423  21.278  0.00  0.00    +0.154 HD
BRANCH  19  21
ATOM     21  C   UNL     1       7.724   4.455  22.881  0.00  0.00    +0.097 A 
ATOM     22  C   UNL     1       6.353   4.201  22.820  0.00  0.00    +0.189 A 
ATOM     23  O   UNL     1       5.779   3.108  22.228  0.00  0.00    -0.451 OA
ATOM     24  C   UNL     1       4.378   3.420  22.373  0.00  0.00    +0.466 C 
ATOM     25  O   UNL     1       4.134   4.619  23.133  0.00  0.00    -0.453 OA
ATOM     26  C   UNL     1       5.404   5.058  23.337  0.00  0.00    +0.168 A 
ATOM     27  C   UNL     1       5.749   6.232  23.959  0.00  0.00    +0.051 A 
ATOM     28  C   UNL     1       7.105   6.555  24.006  0.00  0.00    +0.025 A 
ATOM     29  C   UNL     1       8.081   5.696  23.446  0.00  0.00    +0.066 A 
ATOM     30 CL   UNL     1       9.682   6.360  23.377  0.00  0.00    -0.081 Cl
ENDBRANCH  19  21
ENDBRANCH   7  19
TORSDOF 4
ENDMDL
MODEL 8
REMARK VINA RESULT:      -7.2      2.106      3.072
REMARK  Name = 
REMARK  5 active torsions:
REMARK  status: ('A' for Active; 'I' for Inactive)
REMARK    1  A    between atoms: C_1  and  S_2
REMARK    2  A    between atoms: S_2  and  C_5
REMARK    3  A    between atoms: C_7  and  N_8
REMARK    4  A    between atoms: C_11  and  N_12
REMARK    5  A    between atoms: N_12  and  C_13
REMARK                            x       y       z     vdW  Elec       q    Type
REMARK                         _______ _______ _______ _____ _____    ______ ____
ROOT
ATOM      1  N   UNL     1       8.229   0.948  24.957  0.00  0.00    -0.284 N 
ATOM      2  H   UNL     1       7.433   0.676  25.522  0.00  0.00    +0.155 HD
ATOM      3  C   UNL     1       8.816  -0.245  24.517  0.00  0.00    +0.221 A 
ATOM      4  N   UNL     1       9.825  -0.245  23.634  0.00  0.00    -0.223 NA
ATOM      5  C   UNL     1      10.261  -1.434  23.196  0.00  0.00    +0.118 A 
ATOM      6  C   UNL     1       9.711  -2.624  23.590  0.00  0.00    +0.063 A 
ATOM      7  C   UNL     1       8.653  -2.544  24.471  0.00  0.00    +0.128 A 
ATOM      8  N   UNL     1       8.245  -1.369  24.982  0.00  0.00    -0.199 NA
ENDROOT
BRANCH   1  13
ATOM      9  C   UNL     1       8.559   4.510  23.866  0.00  0.00    +0.090 A 
ATOM     10  C   UNL     1       7.719   4.534  22.756  0.00  0.00    +0.027 A 
ATOM     11  C   UNL     1       7.024   3.377  22.413  0.00  0.00    +0.004 A 
ATOM     12  C   UNL     1       7.195   2.208  23.164  0.00  0.00    +0.023 A 
ATOM     13  C   UNL     1       8.069   2.162  24.263  0.00  0.00    +0.035 A 
ATOM     14  C   UNL     1       8.708   3.350  24.634  0.00  0.00    +0.050 A 
BRANCH   9  16
ATOM     15  C   UNL     1      11.139   5.578  23.758  0.00  0.00    +0.200 C 
ATOM     16  S   UNL     1       9.494   5.952  24.313  0.00  0.00    -0.006 S 
ATOM     17  O   UNL     1       9.008   7.059  23.509  0.00  0.00    -0.170 OA
ATOM     18  O   UNL     1       9.504   6.032  25.760  0.00  0.00    -0.170 OA
ENDBRANCH   9  16
ENDBRANCH   1  13
BRANCH   7  19
ATOM     19  N   UNL     1       7.969  -3.744  24.767  0.00  0.00    -0.295 N 
ATOM     20  H   UNL     1       8.227  -4.089  25.688  0.00  0.00    +0.154 HD
BRANCH  19  21
ATOM     21  C   UNL     1       6.658  -4.134  24.411  0.00  0.00    +0.097 A 
ATOM     22  C   UNL     1       6.486  -4.835  23.217  0.00  0.00    +0.189 A 
ATOM     23  O   UNL     1       7.494  -5.194  22.362  0.00  0.00    -0.451 OA
ATOM     24  C   UNL     1       6.741  -5.783  21.281  0.00  0.00    +0.466 C 
ATOM     25  O   UNL     1       5.327  -5.866  21.547  0.00  0.00    -0.453 OA
ATOM     26  C   UNL     1       5.252  -5.226  22.743  0.00  0.00    +0.168 A 
ATOM     27  C   UNL     1       4.093  -4.954  23.427  0.00  0.00    +0.051 A 
ATOM     28  C   UNL     1       4.206  -4.215  24.605  0.00  0.00    +0.025 A 
ATOM     29  C   UNL     1       5.467  -3.781  25.077  0.00  0.00    +0.066 A 
ATOM     30 CL   UNL     1       5.404  -2.677  26.414  0.00  0.00    -0.081 Cl
ENDBRANCH  19  21
ENDBRANCH   7  19
TORSDOF 4
ENDMDL
MODEL 9
REMARK VINA RESULT:      -7.2      2.047      3.051
REMARK  Name = 
REMARK  5 active torsions:
REMARK  status: ('A' for Active; 'I' for Inactive)
REMARK    1  A    between atoms: C_1  and  S_2
REMARK    2  A    between atoms: S_2  and  C_5
REMARK    3  A    between atoms: C_7  and  N_8
REMARK    4  A    between atoms: C_11  and  N_12
REMARK    5  A    between atoms: N_12  and  C_13
REMARK                            x       y       z     vdW  Elec       q    Type
REMARK                         _______ _______ _______ _____ _____    ______ ____
ROOT
ATOM      1  N   UNL     1       8.073   0.770  23.794  0.00  0.00    -0.284 N 
ATOM      2  H   UNL     1       7.956   0.266  22.923  0.00  0.00    +0.155 HD
ATOM      3  C   UNL     1       8.133  -0.206  24.799  0.00  0.00    +0.221 A 
ATOM      4  N   UNL     1       8.416   0.116  26.069  0.00  0.00    -0.223 NA
ATOM      5  C   UNL     1       8.547  -0.891  26.944  0.00  0.00    +0.118 A 
ATOM      6  C   UNL     1       8.430  -2.209  26.592  0.00  0.00    +0.063 A 
ATOM      7  C   UNL     1       8.175  -2.464  25.261  0.00  0.00    +0.128 A 
ATOM      8  N   UNL     1       7.966  -1.470  24.378  0.00  0.00    -0.199 NA
ENDROOT
BRANCH   1  13
ATOM      9  C   UNL     1       8.974   4.395  23.626  0.00  0.00    +0.090 A 
ATOM     10  C   UNL     1      10.361   4.327  23.522  0.00  0.00    +0.027 A 
ATOM     11  C   UNL     1      10.971   3.076  23.467  0.00  0.00    +0.004 A 
ATOM     12  C   UNL     1      10.194   1.914  23.542  0.00  0.00    +0.023 A 
ATOM     13  C   UNL     1       8.797   1.971  23.686  0.00  0.00    +0.035 A 
ATOM     14  C   UNL     1       8.195   3.233  23.672  0.00  0.00    +0.050 A 
BRANCH   9  16
ATOM     15  C   UNL     1       7.562   6.256  22.093  0.00  0.00    +0.200 C 
ATOM     16  S   UNL     1       8.161   5.970  23.740  0.00  0.00    -0.006 S 
ATOM     17  O   UNL     1       7.003   5.808  24.600  0.00  0.00    -0.170 OA
ATOM     18  O   UNL     1       9.176   6.962  24.039  0.00  0.00    -0.170 OA
ENDBRANCH   9  16
ENDBRANCH   1  13
BRANCH   7  19
ATOM     19  N   UNL     1       8.209  -3.813  24.844  0.00  0.00    -0.295 N 
ATOM     20  H   UNL     1       9.048  -4.275  25.184  0.00  0.00    +0.154 HD
BRANCH  19  21
ATOM     21  C   UNL     1       7.140  -4.723  24.681  0.00  0.00    +0.097 A 
ATOM     22  C   UNL     1       6.649  -4.932  23.392  0.00  0.00    +0.189 A 
ATOM     23  O   UNL     1       7.134  -4.336  22.258  0.00  0.00    -0.451 OA
ATOM     24  C   UNL     1       6.206  -4.829  21.270  0.00  0.00    +0.466 C 
ATOM     25  O   UNL     1       5.262  -5.782  21.796  0.00  0.00    -0.453 OA
ATOM     26  C   UNL     1       5.581  -5.758  23.116  0.00  0.00    +0.168 A 
ATOM     27  C   UNL     1       4.921  -6.445  24.105  0.00  0.00    +0.051 A 
ATOM     28  C   UNL     1       5.343  -6.235  25.418  0.00  0.00    +0.025 A 
ATOM     29  C   UNL     1       6.417  -5.361  25.710  0.00  0.00    +0.066 A 
ATOM     30 CL   UNL     1       6.651  -5.032  27.397  0.00  0.00    -0.081 Cl
ENDBRANCH  19  21
ENDBRANCH   7  19
TORSDOF 4
ENDMDL
