MODEL 1
REMARK VINA RESULT:      -5.4      0.000      0.000
REMARK  Name = 
REMARK  5 active torsions:
REMARK  status: ('A' for Active; 'I' for Inactive)
REMARK    1  A    between atoms: C_2  and  N_3
REMARK    2  A    between atoms: C_2  and  C_4
REMARK    3  A    between atoms: C_2  and  C_12
REMARK    4  A    between atoms: C_4  and  C_5
REMARK    5  A    between atoms: C_8  and  O_9
REMARK                            x       y       z     vdW  Elec       q    Type
REMARK                         _______ _______ _______ _____ _____    ______ ____
ROOT
ATOM      1  C   UNL     1       8.584  -3.759  24.168  0.00  0.00    +0.142 C 
ENDROOT
BRANCH   1   2
ATOM      2  C   UNL     1       8.620  -4.960  25.136  0.00  0.00    +0.228 C 
ATOM      3  O   UNL     1       7.623  -5.396  25.704  0.00  0.00    -0.274 OA
ATOM      4  N   UNL     1       9.852  -5.501  25.385  0.00  0.00    -0.328 N 
ATOM      5  H   UNL     1       9.861  -6.348  25.941  0.00  0.00    +0.145 HD
ATOM      6  H   UNL     1      10.651  -5.315  24.799  0.00  0.00    +0.145 HD
ENDBRANCH   1   2
BRANCH   1   7
ATOM      7  N   UNL     1       7.412  -2.911  24.486  0.00  0.00    -0.320 NA
ATOM      8  H   UNL     1       7.761  -2.050  24.916  0.00  0.00    +0.119 HD
ATOM      9  H   UNL     1       6.970  -2.610  23.619  0.00  0.00    +0.119 HD
ENDBRANCH   1   7
BRANCH   1  10
ATOM     10  C   UNL     1       9.894  -2.947  24.210  0.00  0.00    +0.063 C 
BRANCH  10  11
ATOM     11  C   UNL     1       9.851  -1.621  23.474  0.00  0.00    -0.045 A 
ATOM     12  C   UNL     1      10.121  -0.430  24.167  0.00  0.00    +0.007 A 
ATOM     13  C   UNL     1      10.131   0.797  23.497  0.00  0.00    +0.045 A 
ATOM     14  C   UNL     1       9.864   0.840  22.136  0.00  0.00    +0.117 A 
ATOM     15  C   UNL     1       9.550  -0.318  21.438  0.00  0.00    +0.045 A 
ATOM     16  C   UNL     1       9.526  -1.542  22.111  0.00  0.00    +0.007 A 
BRANCH  14  17
ATOM     17  O   UNL     1       9.921   2.048  21.508  0.00  0.00    -0.507 OA
ATOM     18  H   UNL     1       9.032   2.438  21.520  0.00  0.00    +0.292 HD
ENDBRANCH  14  17
ENDBRANCH  10  11
ENDBRANCH   1  10
TORSDOF 5
ENDMDL
MODEL 2
REMARK VINA RESULT:      -5.3      1.192      1.844
REMARK  Name = 
REMARK  5 active torsions:
REMARK  status: ('A' for Active; 'I' for Inactive)
REMARK    1  A    between atoms: C_2  and  N_3
REMARK    2  A    between atoms: C_2  and  C_4
REMARK    3  A    between atoms: C_2  and  C_12
REMARK    4  A    between atoms: C_4  and  C_5
REMARK    5  A    between atoms: C_8  and  O_9
REMARK                            x       y       z     vdW  Elec       q    Type
REMARK                         _______ _______ _______ _____ _____    ______ ____
ROOT
ATOM      1  C   UNL     1       8.512  -3.205  24.574  0.00  0.00    +0.142 C 
ENDROOT
BRANCH   1   2
ATOM      2  C   UNL     1       8.213  -4.676  24.217  0.00  0.00    +0.228 C 
ATOM      3  O   UNL     1       9.062  -5.561  24.246  0.00  0.00    -0.274 OA
ATOM      4  N   UNL     1       6.938  -4.951  23.802  0.00  0.00    -0.328 N 
ATOM      5  H   UNL     1       6.717  -5.930  23.663  0.00  0.00    +0.145 HD
ATOM      6  H   UNL     1       6.171  -4.314  23.956  0.00  0.00    +0.145 HD
ENDBRANCH   1   2
BRANCH   1   7
ATOM      7  N   UNL     1       8.397  -3.027  26.041  0.00  0.00    -0.320 NA
ATOM      8  H   UNL     1       8.717  -3.893  26.483  0.00  0.00    +0.119 HD
ATOM      9  H   UNL     1       9.061  -2.316  26.346  0.00  0.00    +0.119 HD
ENDBRANCH   1   7
BRANCH   1  10
ATOM     10  C   UNL     1       9.895  -2.757  24.060  0.00  0.00    +0.063 C 
BRANCH  10  11
ATOM     11  C   UNL     1       9.916  -1.409  23.366  0.00  0.00    -0.045 A 
ATOM     12  C   UNL     1       9.494  -1.306  22.030  0.00  0.00    +0.007 A 
ATOM     13  C   UNL     1       9.463  -0.065  21.387  0.00  0.00    +0.045 A 
ATOM     14  C   UNL     1       9.859   1.075  22.073  0.00  0.00    +0.117 A 
ATOM     15  C   UNL     1      10.322   0.993  23.379  0.00  0.00    +0.045 A 
ATOM     16  C   UNL     1      10.366  -0.249  24.016  0.00  0.00    +0.007 A 
BRANCH  14  17
ATOM     17  O   UNL     1       9.778   2.273  21.428  0.00  0.00    -0.507 OA
ATOM     18  H   UNL     1       9.500   2.106  20.513  0.00  0.00    +0.292 HD
ENDBRANCH  14  17
ENDBRANCH  10  11
ENDBRANCH   1  10
TORSDOF 5
ENDMDL
MODEL 3
REMARK VINA RESULT:      -5.3      1.392      2.036
REMARK  Name = 
REMARK  5 active torsions:
REMARK  status: ('A' for Active; 'I' for Inactive)
REMARK    1  A    between atoms: C_2  and  N_3
REMARK    2  A    between atoms: C_2  and  C_4
REMARK    3  A    between atoms: C_2  and  C_12
REMARK    4  A    between atoms: C_4  and  C_5
REMARK    5  A    between atoms: C_8  and  O_9
REMARK                            x       y       z     vdW  Elec       q    Type
REMARK                         _______ _______ _______ _____ _____    ______ ____
ROOT
ATOM      1  C   UNL     1       9.356  -4.023  25.127  0.00  0.00    +0.142 C 
ENDROOT
BRANCH   1   2
ATOM      2  C   UNL     1       8.349  -4.329  26.255  0.00  0.00    +0.228 C 
ATOM      3  O   UNL     1       7.625  -3.476  26.760  0.00  0.00    -0.274 OA
ATOM      4  N   UNL     1       8.332  -5.616  26.720  0.00  0.00    -0.328 N 
ATOM      5  H   UNL     1       7.605  -5.838  27.388  0.00  0.00    +0.145 HD
ATOM      6  H   UNL     1       8.750  -6.379  26.209  0.00  0.00    +0.145 HD
ENDBRANCH   1   2
BRANCH   1   7
ATOM      7  N   UNL     1      10.191  -5.222  24.881  0.00  0.00    -0.320 NA
ATOM      8  H   UNL     1       9.575  -5.961  24.534  0.00  0.00    +0.119 HD
ATOM      9  H   UNL     1      10.832  -5.032  24.112  0.00  0.00    +0.119 HD
ENDBRANCH   1   7
BRANCH   1  10
ATOM     10  C   UNL     1       8.652  -3.554  23.839  0.00  0.00    +0.063 C 
BRANCH  10  11
ATOM     11  C   UNL     1       9.114  -2.210  23.307  0.00  0.00    -0.045 A 
ATOM     12  C   UNL     1       8.846  -1.858  21.974  0.00  0.00    +0.007 A 
ATOM     13  C   UNL     1       9.224  -0.607  21.479  0.00  0.00    +0.045 A 
ATOM     14  C   UNL     1       9.877   0.293  22.309  0.00  0.00    +0.117 A 
ATOM     15  C   UNL     1      10.193  -0.048  23.617  0.00  0.00    +0.045 A 
ATOM     16  C   UNL     1       9.828  -1.304  24.107  0.00  0.00    +0.007 A 
BRANCH  14  17
ATOM     17  O   UNL     1      10.195   1.518  21.804  0.00  0.00    -0.507 OA
ATOM     18  H   UNL     1       9.375   2.031  21.715  0.00  0.00    +0.292 HD
ENDBRANCH  14  17
ENDBRANCH  10  11
ENDBRANCH   1  10
TORSDOF 5
ENDMDL
MODEL 4
REMARK VINA RESULT:      -5.3      1.936      2.366
REMARK  Name = 
REMARK  5 active torsions:
REMARK  status: ('A' for Active; 'I' for Inactive)
REMARK    1  A    between atoms: C_2  and  N_3
REMARK    2  A    between atoms: C_2  and  C_4
REMARK    3  A    between atoms: C_2  and  C_12
REMARK    4  A    between atoms: C_4  and  C_5
REMARK    5  A    between atoms: C_8  and  O_9
REMARK                            x       y       z     vdW  Elec       q    Type
REMARK                         _______ _______ _______ _____ _____    ______ ____
ROOT
ATOM      1  C   UNL     1       9.221  -2.658  23.795  0.00  0.00    +0.142 C 
ENDROOT
BRANCH   1   2
ATOM      2  C   UNL     1       7.966  -3.063  22.995  0.00  0.00    +0.228 C 
ATOM      3  O   UNL     1       7.248  -2.254  22.415  0.00  0.00    -0.274 OA
ATOM      4  N   UNL     1       7.646  -4.393  23.002  0.00  0.00    -0.328 N 
ATOM      5  H   UNL     1       6.882  -4.671  22.397  0.00  0.00    +0.145 HD
ATOM      6  H   UNL     1       8.304  -5.105  23.284  0.00  0.00    +0.145 HD
ENDBRANCH   1   2
BRANCH   1   7
ATOM      7  N   UNL     1       9.790  -3.858  24.451  0.00  0.00    -0.320 NA
ATOM      8  H   UNL     1      10.665  -3.578  24.902  0.00  0.00    +0.119 HD
ATOM      9  H   UNL     1       9.180  -4.143  25.216  0.00  0.00    +0.119 HD
ENDBRANCH   1   7
BRANCH   1  10
ATOM     10  C   UNL     1      10.267  -1.954  22.907  0.00  0.00    +0.063 C 
BRANCH  10  11
ATOM     11  C   UNL     1      10.221  -0.438  22.939  0.00  0.00    -0.045 A 
ATOM     12  C   UNL     1      10.626   0.247  24.096  0.00  0.00    +0.007 A 
ATOM     13  C   UNL     1      10.634   1.644  24.130  0.00  0.00    +0.045 A 
ATOM     14  C   UNL     1      10.231   2.361  23.013  0.00  0.00    +0.117 A 
ATOM     15  C   UNL     1       9.784   1.708  21.873  0.00  0.00    +0.045 A 
ATOM     16  C   UNL     1       9.763   0.312  21.845  0.00  0.00    +0.007 A 
BRANCH  14  17
ATOM     17  O   UNL     1      10.289   3.722  23.068  0.00  0.00    -0.507 OA
ATOM     18  H   UNL     1      10.685   3.974  23.918  0.00  0.00    +0.292 HD
ENDBRANCH  14  17
ENDBRANCH  10  11
ENDBRANCH   1  10
TORSDOF 5
ENDMDL
MODEL 5
REMARK VINA RESULT:      -5.0      3.038      5.488
REMARK  Name = 
REMARK  5 active torsions:
REMARK  status: ('A' for Active; 'I' for Inactive)
REMARK    1  A    between atoms: C_2  and  N_3
REMARK    2  A    between atoms: C_2  and  C_4
REMARK    3  A    between atoms: C_2  and  C_12
REMARK    4  A    between atoms: C_4  and  C_5
REMARK    5  A    between atoms: C_8  and  O_9
REMARK                            x       y       z     vdW  Elec       q    Type
REMARK                         _______ _______ _______ _____ _____    ______ ____
ROOT
ATOM      1  C   UNL     1       9.210   0.738  22.250  0.00  0.00    +0.142 C 
ENDROOT
BRANCH   1   2
ATOM      2  C   UNL     1      10.204   1.615  23.040  0.00  0.00    +0.228 C 
ATOM      3  O   UNL     1      10.721   1.261  24.096  0.00  0.00    -0.274 OA
ATOM      4  N   UNL     1      10.452   2.860  22.529  0.00  0.00    -0.328 N 
ATOM      5  H   UNL     1      11.177   3.394  22.993  0.00  0.00    +0.145 HD
ATOM      6  H   UNL     1      10.218   3.111  21.580  0.00  0.00    +0.145 HD
ENDBRANCH   1   2
BRANCH   1   7
ATOM      7  N   UNL     1       8.743   1.484  21.057  0.00  0.00    -0.320 NA
ATOM      8  H   UNL     1       9.412   2.239  20.884  0.00  0.00    +0.119 HD
ATOM      9  H   UNL     1       8.810   0.882  20.238  0.00  0.00    +0.119 HD
ENDBRANCH   1   7
BRANCH   1  10
ATOM     10  C   UNL     1       9.826  -0.620  21.859  0.00  0.00    +0.063 C 
BRANCH  10  11
ATOM     11  C   UNL     1       9.267  -1.817  22.605  0.00  0.00    -0.045 A 
ATOM     12  C   UNL     1       9.967  -2.342  23.703  0.00  0.00    +0.007 A 
ATOM     13  C   UNL     1       9.446  -3.416  24.432  0.00  0.00    +0.045 A 
ATOM     14  C   UNL     1       8.229  -3.972  24.062  0.00  0.00    +0.117 A 
ATOM     15  C   UNL     1       7.540  -3.499  22.954  0.00  0.00    +0.045 A 
ATOM     16  C   UNL     1       8.068  -2.436  22.218  0.00  0.00    +0.007 A 
BRANCH  14  17
ATOM     17  O   UNL     1       7.733  -4.991  24.819  0.00  0.00    -0.507 OA
ATOM     18  H   UNL     1       7.710  -4.698  25.744  0.00  0.00    +0.292 HD
ENDBRANCH  14  17
ENDBRANCH  10  11
ENDBRANCH   1  10
TORSDOF 5
ENDMDL
MODEL 6
REMARK VINA RESULT:      -5.0      2.325      2.486
REMARK  Name = 
REMARK  5 active torsions:
REMARK  status: ('A' for Active; 'I' for Inactive)
REMARK    1  A    between atoms: C_2  and  N_3
REMARK    2  A    between atoms: C_2  and  C_4
REMARK    3  A    between atoms: C_2  and  C_12
REMARK    4  A    between atoms: C_4  and  C_5
REMARK    5  A    between atoms: C_8  and  O_9
REMARK                            x       y       z     vdW  Elec       q    Type
REMARK                         _______ _______ _______ _____ _____    ______ ____
ROOT
ATOM      1  C   UNL     1       6.849  -3.655  22.182  0.00  0.00    +0.142 C 
ENDROOT
BRANCH   1   2
ATOM      2  C   UNL     1       6.939  -5.062  22.809  0.00  0.00    +0.228 C 
ATOM      3  O   UNL     1       6.725  -5.284  23.997  0.00  0.00    -0.274 OA
ATOM      4  N   UNL     1       7.330  -6.073  21.974  0.00  0.00    -0.328 N 
ATOM      5  H   UNL     1       7.292  -7.008  22.360  0.00  0.00    +0.145 HD
ATOM      6  H   UNL     1       7.316  -5.979  20.969  0.00  0.00    +0.145 HD
ENDBRANCH   1   2
BRANCH   1   7
ATOM      7  N   UNL     1       5.529  -3.496  21.528  0.00  0.00    -0.320 NA
ATOM      8  H   UNL     1       4.824  -3.426  22.266  0.00  0.00    +0.119 HD
ATOM      9  H   UNL     1       5.497  -2.597  21.049  0.00  0.00    +0.119 HD
ENDBRANCH   1   7
BRANCH   1  10
ATOM     10  C   UNL     1       7.097  -2.545  23.223  0.00  0.00    +0.063 C 
BRANCH  10  11
ATOM     11  C   UNL     1       7.823  -1.321  22.695  0.00  0.00    -0.045 A 
ATOM     12  C   UNL     1       7.280  -0.044  22.907  0.00  0.00    +0.007 A 
ATOM     13  C   UNL     1       7.956   1.099  22.469  0.00  0.00    +0.045 A 
ATOM     14  C   UNL     1       9.171   0.969  21.812  0.00  0.00    +0.117 A 
ATOM     15  C   UNL     1       9.707  -0.285  21.551  0.00  0.00    +0.045 A 
ATOM     16  C   UNL     1       9.024  -1.426  21.977  0.00  0.00    +0.007 A 
BRANCH  14  17
ATOM     17  O   UNL     1       9.821   2.105  21.434  0.00  0.00    -0.507 OA
ATOM     18  H   UNL     1      10.771   1.977  21.590  0.00  0.00    +0.292 HD
ENDBRANCH  14  17
ENDBRANCH  10  11
ENDBRANCH   1  10
TORSDOF 5
ENDMDL
MODEL 7
REMARK VINA RESULT:      -4.9      2.943      5.834
REMARK  Name = 
REMARK  5 active torsions:
REMARK  status: ('A' for Active; 'I' for Inactive)
REMARK    1  A    between atoms: C_2  and  N_3
REMARK    2  A    between atoms: C_2  and  C_4
REMARK    3  A    between atoms: C_2  and  C_12
REMARK    4  A    between atoms: C_4  and  C_5
REMARK    5  A    between atoms: C_8  and  O_9
REMARK                            x       y       z     vdW  Elec       q    Type
REMARK                         _______ _______ _______ _____ _____    ______ ____
ROOT
ATOM      1  C   UNL     1       9.026  -0.673  22.003  0.00  0.00    +0.142 C 
ENDROOT
BRANCH   1   2
ATOM      2  C   UNL     1       9.646   0.696  22.348  0.00  0.00    +0.228 C 
ATOM      3  O   UNL     1      10.221   0.926  23.408  0.00  0.00    -0.274 OA
ATOM      4  N   UNL     1       9.479   1.688  21.421  0.00  0.00    -0.328 N 
ATOM      5  H   UNL     1       9.970   2.555  21.604  0.00  0.00    +0.145 HD
ATOM      6  H   UNL     1       9.202   1.497  20.470  0.00  0.00    +0.145 HD
ENDBRANCH   1   2
BRANCH   1   7
ATOM      7  N   UNL     1      10.081  -1.566  21.468  0.00  0.00    -0.320 NA
ATOM      8  H   UNL     1       9.759  -1.916  20.562  0.00  0.00    +0.119 HD
ATOM      9  H   UNL     1      10.911  -1.015  21.256  0.00  0.00    +0.119 HD
ENDBRANCH   1   7
BRANCH   1  10
ATOM     10  C   UNL     1       8.316  -1.306  23.216  0.00  0.00    +0.063 C 
BRANCH  10  11
ATOM     11  C   UNL     1       7.752  -2.694  22.977  0.00  0.00    -0.045 A 
ATOM     12  C   UNL     1       6.703  -2.871  22.060  0.00  0.00    +0.007 A 
ATOM     13  C   UNL     1       6.200  -4.148  21.793  0.00  0.00    +0.045 A 
ATOM     14  C   UNL     1       6.736  -5.249  22.445  0.00  0.00    +0.117 A 
ATOM     15  C   UNL     1       7.742  -5.095  23.388  0.00  0.00    +0.045 A 
ATOM     16  C   UNL     1       8.235  -3.818  23.665  0.00  0.00    +0.007 A 
BRANCH  14  17
ATOM     17  O   UNL     1       6.248  -6.482  22.130  0.00  0.00    -0.507 OA
ATOM     18  H   UNL     1       5.312  -6.385  21.890  0.00  0.00    +0.292 HD
ENDBRANCH  14  17
ENDBRANCH  10  11
ENDBRANCH   1  10
TORSDOF 5
ENDMDL
MODEL 8
REMARK VINA RESULT:      -4.9      2.383      5.749
REMARK  Name = 
REMARK  5 active torsions:
REMARK  status: ('A' for Active; 'I' for Inactive)
REMARK    1  A    between atoms: C_2  and  N_3
REMARK    2  A    between atoms: C_2  and  C_4
REMARK    3  A    between atoms: C_2  and  C_12
REMARK    4  A    between atoms: C_4  and  C_5
REMARK    5  A    between atoms: C_8  and  O_9
REMARK                            x       y       z     vdW  Elec       q    Type
REMARK                         _______ _______ _______ _____ _____    ______ ____
ROOT
ATOM      1  C   UNL     1       7.918  -1.433  23.093  0.00  0.00    +0.142 C 
ENDROOT
BRANCH   1   2
ATOM      2  C   UNL     1       8.764  -0.557  22.145  0.00  0.00    +0.228 C 
ATOM      3  O   UNL     1       8.533   0.632  21.943  0.00  0.00    -0.274 OA
ATOM      4  N   UNL     1       9.777  -1.190  21.478  0.00  0.00    -0.328 N 
ATOM      5  H   UNL     1      10.391  -0.595  20.935  0.00  0.00    +0.145 HD
ATOM      6  H   UNL     1      10.126  -2.093  21.760  0.00  0.00    +0.145 HD
ENDBRANCH   1   2
BRANCH   1   7
ATOM      7  N   UNL     1       6.484  -1.113  22.904  0.00  0.00    -0.320 NA
ATOM      8  H   UNL     1       6.411  -0.491  22.094  0.00  0.00    +0.119 HD
ATOM      9  H   UNL     1       5.984  -1.958  22.632  0.00  0.00    +0.119 HD
ENDBRANCH   1   7
BRANCH   1  10
ATOM     10  C   UNL     1       8.191  -2.936  22.885  0.00  0.00    +0.063 C 
BRANCH  10  11
ATOM     11  C   UNL     1       8.068  -3.789  24.134  0.00  0.00    -0.045 A 
ATOM     12  C   UNL     1       9.168  -3.924  24.997  0.00  0.00    +0.007 A 
ATOM     13  C   UNL     1       9.061  -4.668  26.175  0.00  0.00    +0.045 A 
ATOM     14  C   UNL     1       7.859  -5.286  26.491  0.00  0.00    +0.117 A 
ATOM     15  C   UNL     1       6.772  -5.205  25.632  0.00  0.00    +0.045 A 
ATOM     16  C   UNL     1       6.884  -4.473  24.449  0.00  0.00    +0.007 A 
BRANCH  14  17
ATOM     17  O   UNL     1       7.779  -5.971  27.667  0.00  0.00    -0.507 OA
ATOM     18  H   UNL     1       6.875  -5.881  28.009  0.00  0.00    +0.292 HD
ENDBRANCH  14  17
ENDBRANCH  10  11
ENDBRANCH   1  10
TORSDOF 5
ENDMDL
MODEL 9
REMARK VINA RESULT:      -4.8      4.098      6.467
REMARK  Name = 
REMARK  5 active torsions:
REMARK  status: ('A' for Active; 'I' for Inactive)
REMARK    1  A    between atoms: C_2  and  N_3
REMARK    2  A    between atoms: C_2  and  C_4
REMARK    3  A    between atoms: C_2  and  C_12
REMARK    4  A    between atoms: C_4  and  C_5
REMARK    5  A    between atoms: C_8  and  O_9
REMARK                            x       y       z     vdW  Elec       q    Type
REMARK                         _______ _______ _______ _____ _____    ______ ____
ROOT
ATOM      1  C   UNL     1       9.072   4.095  24.246  0.00  0.00    +0.142 C 
ENDROOT
BRANCH   1   2
ATOM      2  C   UNL     1       8.186   4.778  23.184  0.00  0.00    +0.228 C 
ATOM      3  O   UNL     1       7.151   4.280  22.751  0.00  0.00    -0.274 OA
ATOM      4  N   UNL     1       8.641   5.970  22.691  0.00  0.00    -0.328 N 
ATOM      5  H   UNL     1       8.012   6.464  22.069  0.00  0.00    +0.145 HD
ATOM      6  H   UNL     1       9.361   6.506  23.153  0.00  0.00    +0.145 HD
ENDBRANCH   1   2
BRANCH   1   7
ATOM      7  N   UNL     1       8.270   3.084  24.974  0.00  0.00    -0.320 NA
ATOM      8  H   UNL     1       8.565   3.103  25.954  0.00  0.00    +0.119 HD
ATOM      9  H   UNL     1       7.294   3.378  24.989  0.00  0.00    +0.119 HD
ENDBRANCH   1   7
BRANCH   1  10
ATOM     10  C   UNL     1      10.336   3.468  23.625  0.00  0.00    +0.063 C 
BRANCH  10  11
ATOM     11  C   UNL     1      10.174   2.038  23.146  0.00  0.00    -0.045 A 
ATOM     12  C   UNL     1       9.544   1.782  21.917  0.00  0.00    +0.007 A 
ATOM     13  C   UNL     1       9.425   0.475  21.436  0.00  0.00    +0.045 A 
ATOM     14  C   UNL     1       9.928  -0.581  22.184  0.00  0.00    +0.117 A 
ATOM     15  C   UNL     1      10.515  -0.358  23.422  0.00  0.00    +0.045 A 
ATOM     16  C   UNL     1      10.620   0.947  23.908  0.00  0.00    +0.007 A 
BRANCH  14  17
ATOM     17  O   UNL     1       9.830  -1.838  21.666  0.00  0.00    -0.507 OA
ATOM     18  H   UNL     1       8.913  -1.977  21.380  0.00  0.00    +0.292 HD
ENDBRANCH  14  17
ENDBRANCH  10  11
ENDBRANCH   1  10
TORSDOF 5
ENDMDL
