MODEL 1
REMARK VINA RESULT:      -4.7      0.000      0.000
REMARK  Name = 
REMARK  3 active torsions:
REMARK  status: ('A' for Active; 'I' for Inactive)
REMARK    1  A    between atoms: C_1  and  O_2
REMARK    2  A    between atoms: O_2  and  C_3
REMARK    3  A    between atoms: C_7  and  C_9
REMARK                            x       y       z     vdW  Elec       q    Type
REMARK                         _______ _______ _______ _____ _____    ______ ____
ROOT
ATOM      1  C   UNL     1       9.529  -2.045  23.015  0.00  0.00    +0.121 A 
ATOM      2  C   UNL     1       9.813  -2.844  24.122  0.00  0.00    +0.058 A 
ATOM      3  C   UNL     1       8.929  -3.858  24.521  0.00  0.00    +0.040 A 
ATOM      4  C   UNL     1       7.762  -4.079  23.779  0.00  0.00    +0.013 A 
ATOM      5  C   UNL     1       7.492  -3.298  22.651  0.00  0.00    +0.004 A 
ATOM      6  C   UNL     1       8.377  -2.288  22.268  0.00  0.00    +0.045 A 
ENDROOT
BRANCH   3   7
ATOM      7  C   UNL     1       9.300  -4.640  25.736  0.00  0.00    +0.242 C 
ATOM      8  O   UNL     1       8.843  -4.365  26.840  0.00  0.00    -0.270 OA
ATOM      9  N   UNL     1      10.156  -5.697  25.605  0.00  0.00    -0.325 N 
ATOM     10  H   UNL     1      10.353  -6.220  26.449  0.00  0.00    +0.145 HD
ATOM     11  H   UNL     1      10.543  -6.031  24.738  0.00  0.00    +0.145 HD
ENDBRANCH   3   7
BRANCH   1  13
ATOM     12  C   UNL     1       9.686  -0.101  21.691  0.00  0.00    +0.277 C 
ATOM     13  O   UNL     1      10.329  -1.030  22.563  0.00  0.00    -0.495 OA
ENDBRANCH   1  13
TORSDOF 2
ENDMDL
MODEL 2
REMARK VINA RESULT:      -4.7      2.042      3.042
REMARK  Name = 
REMARK  3 active torsions:
REMARK  status: ('A' for Active; 'I' for Inactive)
REMARK    1  A    between atoms: C_1  and  O_2
REMARK    2  A    between atoms: O_2  and  C_3
REMARK    3  A    between atoms: C_7  and  C_9
REMARK                            x       y       z     vdW  Elec       q    Type
REMARK                         _______ _______ _______ _____ _____    ______ ____
ROOT
ATOM      1  C   UNL     1       7.168  -4.005  22.433  0.00  0.00    +0.121 A 
ATOM      2  C   UNL     1       7.554  -4.799  23.513  0.00  0.00    +0.058 A 
ATOM      3  C   UNL     1       8.555  -4.370  24.397  0.00  0.00    +0.040 A 
ATOM      4  C   UNL     1       9.152  -3.119  24.199  0.00  0.00    +0.013 A 
ATOM      5  C   UNL     1       8.744  -2.310  23.135  0.00  0.00    +0.004 A 
ATOM      6  C   UNL     1       7.751  -2.751  22.259  0.00  0.00    +0.045 A 
ENDROOT
BRANCH   3   7
ATOM      7  C   UNL     1       8.925  -5.300  25.504  0.00  0.00    +0.242 C 
ATOM      8  O   UNL     1       8.077  -5.768  26.256  0.00  0.00    -0.270 OA
ATOM      9  N   UNL     1      10.235  -5.647  25.665  0.00  0.00    -0.325 N 
ATOM     10  H   UNL     1      10.436  -6.306  26.407  0.00  0.00    +0.145 HD
ATOM     11  H   UNL     1      10.994  -5.357  25.070  0.00  0.00    +0.145 HD
ENDBRANCH   3   7
BRANCH   1  13
ATOM     12  C   UNL     1       6.282  -5.696  21.051  0.00  0.00    +0.277 C 
ATOM     13  O   UNL     1       6.210  -4.350  21.518  0.00  0.00    -0.495 OA
ENDBRANCH   1  13
TORSDOF 2
ENDMDL
MODEL 3
REMARK VINA RESULT:      -4.7      2.282      3.190
REMARK  Name = 
REMARK  3 active torsions:
REMARK  status: ('A' for Active; 'I' for Inactive)
REMARK    1  A    between atoms: C_1  and  O_2
REMARK    2  A    between atoms: O_2  and  C_3
REMARK    3  A    between atoms: C_7  and  C_9
REMARK                            x       y       z     vdW  Elec       q    Type
REMARK                         _______ _______ _______ _____ _____    ______ ____
ROOT
ATOM      1  C   UNL     1      10.311   0.718  23.480  0.00  0.00    +0.121 A 
ATOM      2  C   UNL     1      10.083  -0.511  24.100  0.00  0.00    +0.058 A 
ATOM      3  C   UNL     1       9.491  -1.571  23.396  0.00  0.00    +0.040 A 
ATOM      4  C   UNL     1       9.149  -1.391  22.050  0.00  0.00    +0.013 A 
ATOM      5  C   UNL     1       9.404  -0.169  21.420  0.00  0.00    +0.004 A 
ATOM      6  C   UNL     1       9.989   0.879  22.133  0.00  0.00    +0.045 A 
ENDROOT
BRANCH   3   7
ATOM      7  C   UNL     1       9.257  -2.836  24.150  0.00  0.00    +0.242 C 
ATOM      8  O   UNL     1      10.127  -3.695  24.245  0.00  0.00    -0.270 OA
ATOM      9  N   UNL     1       8.051  -3.028  24.761  0.00  0.00    -0.325 N 
ATOM     10  H   UNL     1       7.948  -3.886  25.289  0.00  0.00    +0.145 HD
ATOM     11  H   UNL     1       7.294  -2.364  24.783  0.00  0.00    +0.145 HD
ENDBRANCH   3   7
BRANCH   1  13
ATOM     12  C   UNL     1      10.672   3.046  23.418  0.00  0.00    +0.277 C 
ATOM     13  O   UNL     1      10.873   1.806  24.093  0.00  0.00    -0.495 OA
ENDBRANCH   1  13
TORSDOF 2
ENDMDL
MODEL 4
REMARK VINA RESULT:      -4.5      1.702      2.141
REMARK  Name = 
REMARK  3 active torsions:
REMARK  status: ('A' for Active; 'I' for Inactive)
REMARK    1  A    between atoms: C_1  and  O_2
REMARK    2  A    between atoms: O_2  and  C_3
REMARK    3  A    between atoms: C_7  and  C_9
REMARK                            x       y       z     vdW  Elec       q    Type
REMARK                         _______ _______ _______ _____ _____    ______ ____
ROOT
ATOM      1  C   UNL     1       9.873  -1.219  24.034  0.00  0.00    +0.121 A 
ATOM      2  C   UNL     1       9.817  -2.611  23.959  0.00  0.00    +0.058 A 
ATOM      3  C   UNL     1       9.183  -3.360  24.962  0.00  0.00    +0.040 A 
ATOM      4  C   UNL     1       8.582  -2.692  26.037  0.00  0.00    +0.013 A 
ATOM      5  C   UNL     1       8.612  -1.295  26.097  0.00  0.00    +0.004 A 
ATOM      6  C   UNL     1       9.251  -0.563  25.095  0.00  0.00    +0.045 A 
ENDROOT
BRANCH   3   7
ATOM      7  C   UNL     1       9.201  -4.844  24.813  0.00  0.00    +0.242 C 
ATOM      8  O   UNL     1       8.584  -5.405  23.915  0.00  0.00    -0.270 OA
ATOM      9  N   UNL     1       9.938  -5.587  25.690  0.00  0.00    -0.325 N 
ATOM     10  H   UNL     1       9.949  -6.586  25.531  0.00  0.00    +0.145 HD
ATOM     11  H   UNL     1      10.517  -5.217  26.427  0.00  0.00    +0.145 HD
ENDBRANCH   3   7
BRANCH   1  13
ATOM     12  C   UNL     1       9.772  -0.283  21.874  0.00  0.00    +0.277 C 
ATOM     13  O   UNL     1      10.478  -0.414  23.107  0.00  0.00    -0.495 OA
ENDBRANCH   1  13
TORSDOF 2
ENDMDL
MODEL 5
REMARK VINA RESULT:      -4.5      3.808      5.862
REMARK  Name = 
REMARK  3 active torsions:
REMARK  status: ('A' for Active; 'I' for Inactive)
REMARK    1  A    between atoms: C_1  and  O_2
REMARK    2  A    between atoms: O_2  and  C_3
REMARK    3  A    between atoms: C_7  and  C_9
REMARK                            x       y       z     vdW  Elec       q    Type
REMARK                         _______ _______ _______ _____ _____    ______ ____
ROOT
ATOM      1  C   UNL     1       9.830  -0.502  23.754  0.00  0.00    +0.121 A 
ATOM      2  C   UNL     1      10.106   0.825  24.085  0.00  0.00    +0.058 A 
ATOM      3  C   UNL     1      10.102   1.826  23.102  0.00  0.00    +0.040 A 
ATOM      4  C   UNL     1       9.793   1.484  21.779  0.00  0.00    +0.013 A 
ATOM      5  C   UNL     1       9.488   0.159  21.453  0.00  0.00    +0.004 A 
ATOM      6  C   UNL     1       9.500  -0.828  22.439  0.00  0.00    +0.045 A 
ENDROOT
BRANCH   3   7
ATOM      7  C   UNL     1      10.439   3.210  23.544  0.00  0.00    +0.242 C 
ATOM      8  O   UNL     1      11.550   3.691  23.349  0.00  0.00    -0.270 OA
ATOM      9  N   UNL     1       9.479   3.958  24.162  0.00  0.00    -0.325 N 
ATOM     10  H   UNL     1       9.742   4.903  24.415  0.00  0.00    +0.145 HD
ATOM     11  H   UNL     1       8.527   3.672  24.322  0.00  0.00    +0.145 HD
ENDBRANCH   3   7
BRANCH   1  13
ATOM     12  C   UNL     1       9.671  -2.833  24.062  0.00  0.00    +0.277 C 
ATOM     13  O   UNL     1       9.822  -1.540  24.646  0.00  0.00    -0.495 OA
ENDBRANCH   1  13
TORSDOF 2
ENDMDL
MODEL 6
REMARK VINA RESULT:      -4.5      3.142      4.202
REMARK  Name = 
REMARK  3 active torsions:
REMARK  status: ('A' for Active; 'I' for Inactive)
REMARK    1  A    between atoms: C_1  and  O_2
REMARK    2  A    between atoms: O_2  and  C_3
REMARK    3  A    between atoms: C_7  and  C_9
REMARK                            x       y       z     vdW  Elec       q    Type
REMARK                         _______ _______ _______ _____ _____    ______ ____
ROOT
ATOM      1  C   UNL     1       8.540  -4.534  24.573  0.00  0.00    +0.121 A 
ATOM      2  C   UNL     1       7.630  -4.722  23.533  0.00  0.00    +0.058 A 
ATOM      3  C   UNL     1       6.357  -5.256  23.781  0.00  0.00    +0.040 A 
ATOM      4  C   UNL     1       5.995  -5.580  25.095  0.00  0.00    +0.013 A 
ATOM      5  C   UNL     1       6.897  -5.363  26.142  0.00  0.00    +0.004 A 
ATOM      6  C   UNL     1       8.163  -4.836  25.880  0.00  0.00    +0.045 A 
ENDROOT
BRANCH   3   7
ATOM      7  C   UNL     1       5.463  -5.452  22.603  0.00  0.00    +0.242 C 
ATOM      8  O   UNL     1       4.431  -4.803  22.468  0.00  0.00    -0.270 OA
ATOM      9  N   UNL     1       5.817  -6.362  21.649  0.00  0.00    -0.325 N 
ATOM     10  H   UNL     1       5.199  -6.437  20.851  0.00  0.00    +0.145 HD
ATOM     11  H   UNL     1       6.665  -6.904  21.645  0.00  0.00    +0.145 HD
ENDBRANCH   3   7
BRANCH   1  13
ATOM     12  C   UNL     1       9.860  -2.683  23.951  0.00  0.00    +0.277 C 
ATOM     13  O   UNL     1       9.804  -4.030  24.418  0.00  0.00    -0.495 OA
ENDBRANCH   1  13
TORSDOF 2
ENDMDL
MODEL 7
REMARK VINA RESULT:      -4.5      3.712      5.503
REMARK  Name = 
REMARK  3 active torsions:
REMARK  status: ('A' for Active; 'I' for Inactive)
REMARK    1  A    between atoms: C_1  and  O_2
REMARK    2  A    between atoms: O_2  and  C_3
REMARK    3  A    between atoms: C_7  and  C_9
REMARK                            x       y       z     vdW  Elec       q    Type
REMARK                         _______ _______ _______ _____ _____    ______ ____
ROOT
ATOM      1  C   UNL     1       9.785  -1.268  24.137  0.00  0.00    +0.121 A 
ATOM      2  C   UNL     1      10.230  -0.158  23.417  0.00  0.00    +0.058 A 
ATOM      3  C   UNL     1       9.843   1.139  23.786  0.00  0.00    +0.040 A 
ATOM      4  C   UNL     1       9.018   1.315  24.904  0.00  0.00    +0.013 A 
ATOM      5  C   UNL     1       8.596   0.205  25.643  0.00  0.00    +0.004 A 
ATOM      6  C   UNL     1       8.984  -1.081  25.262  0.00  0.00    +0.045 A 
ENDROOT
BRANCH   3   7
ATOM      7  C   UNL     1      10.342   2.260  22.938  0.00  0.00    +0.242 C 
ATOM      8  O   UNL     1      10.970   3.196  23.421  0.00  0.00    -0.270 OA
ATOM      9  N   UNL     1      10.106   2.228  21.594  0.00  0.00    -0.325 N 
ATOM     10  H   UNL     1      10.492   2.992  21.053  0.00  0.00    +0.145 HD
ATOM     11  H   UNL     1       9.646   1.482  21.099  0.00  0.00    +0.145 HD
ENDBRANCH   3   7
BRANCH   1  13
ATOM     12  C   UNL     1       9.168  -3.536  24.306  0.00  0.00    +0.277 C 
ATOM     13  O   UNL     1      10.105  -2.566  23.841  0.00  0.00    -0.495 OA
ENDBRANCH   1  13
TORSDOF 2
ENDMDL
MODEL 8
REMARK VINA RESULT:      -4.4      2.705      3.464
REMARK  Name = 
REMARK  3 active torsions:
REMARK  status: ('A' for Active; 'I' for Inactive)
REMARK    1  A    between atoms: C_1  and  O_2
REMARK    2  A    between atoms: O_2  and  C_3
REMARK    3  A    between atoms: C_7  and  C_9
REMARK                            x       y       z     vdW  Elec       q    Type
REMARK                         _______ _______ _______ _____ _____    ______ ____
ROOT
ATOM      1  C   UNL     1       8.443  -2.436  23.106  0.00  0.00    +0.121 A 
ATOM      2  C   UNL     1       7.560  -3.200  22.343  0.00  0.00    +0.058 A 
ATOM      3  C   UNL     1       7.331  -4.550  22.648  0.00  0.00    +0.040 A 
ATOM      4  C   UNL     1       7.984  -5.124  23.746  0.00  0.00    +0.013 A 
ATOM      5  C   UNL     1       8.846  -4.350  24.529  0.00  0.00    +0.004 A 
ATOM      6  C   UNL     1       9.070  -3.010  24.212  0.00  0.00    +0.045 A 
ENDROOT
BRANCH   3   7
ATOM      7  C   UNL     1       6.394  -5.295  21.758  0.00  0.00    +0.242 C 
ATOM      8  O   UNL     1       5.861  -4.756  20.794  0.00  0.00    -0.270 OA
ATOM      9  N   UNL     1       6.144  -6.612  22.017  0.00  0.00    -0.325 N 
ATOM     10  H   UNL     1       5.529  -7.087  21.368  0.00  0.00    +0.145 HD
ATOM     11  H   UNL     1       6.570  -7.155  22.750  0.00  0.00    +0.145 HD
ENDBRANCH   3   7
BRANCH   1  13
ATOM     12  C   UNL     1       9.546  -0.875  21.728  0.00  0.00    +0.277 C 
ATOM     13  O   UNL     1       8.732  -1.118  22.874  0.00  0.00    -0.495 OA
ENDBRANCH   1  13
TORSDOF 2
ENDMDL
MODEL 9
REMARK VINA RESULT:      -4.4      2.710      4.519
REMARK  Name = 
REMARK  3 active torsions:
REMARK  status: ('A' for Active; 'I' for Inactive)
REMARK    1  A    between atoms: C_1  and  O_2
REMARK    2  A    between atoms: O_2  and  C_3
REMARK    3  A    between atoms: C_7  and  C_9
REMARK                            x       y       z     vdW  Elec       q    Type
REMARK                         _______ _______ _______ _____ _____    ______ ____
ROOT
ATOM      1  C   UNL     1       7.565  -4.646  23.280  0.00  0.00    +0.121 A 
ATOM      2  C   UNL     1       7.728  -3.436  22.606  0.00  0.00    +0.058 A 
ATOM      3  C   UNL     1       8.691  -2.505  23.025  0.00  0.00    +0.040 A 
ATOM      4  C   UNL     1       9.509  -2.814  24.120  0.00  0.00    +0.013 A 
ATOM      5  C   UNL     1       9.365  -4.040  24.777  0.00  0.00    +0.004 A 
ATOM      6  C   UNL     1       8.399  -4.954  24.353  0.00  0.00    +0.045 A 
ENDROOT
BRANCH   3   7
ATOM      7  C   UNL     1       8.772  -1.225  22.264  0.00  0.00    +0.242 C 
ATOM      8  O   UNL     1       8.012  -0.292  22.497  0.00  0.00    -0.270 OA
ATOM      9  N   UNL     1       9.729  -1.091  21.299  0.00  0.00    -0.325 N 
ATOM     10  H   UNL     1       9.770  -0.194  20.831  0.00  0.00    +0.145 HD
ATOM     11  H   UNL     1      10.429  -1.777  21.070  0.00  0.00    +0.145 HD
ENDBRANCH   3   7
BRANCH   1  13
ATOM     12  C   UNL     1       6.553  -5.886  21.550  0.00  0.00    +0.277 C 
ATOM     13  O   UNL     1       6.645  -5.604  22.945  0.00  0.00    -0.495 OA
ENDBRANCH   1  13
TORSDOF 2
ENDMDL
