MODEL 1
REMARK VINA RESULT:      -5.8      0.000      0.000
REMARK  Name = 
REMARK  19 active torsions:
REMARK  status: ('A' for Active; 'I' for Inactive)
REMARK    1  A    between atoms: C_2  and  O_3
REMARK    2  A    between atoms: C_2  and  C_4
REMARK    3  A    between atoms: C_2  and  C_7
REMARK    4  A    between atoms: C_4  and  O_5
REMARK    5  A    between atoms: O_5  and  C_6
REMARK    6  A    between atoms: C_7  and  C_9
REMARK    7  A    between atoms: C_7  and  N_13
REMARK    8  A    between atoms: C_9  and  C_10
REMARK    9  A    between atoms: C_10  and  C_11
REMARK   10  A    between atoms: C_10  and  C_12
REMARK   11  A    between atoms: C_14  and  C_16
REMARK   12  A    between atoms: C_16  and  C_18
REMARK   13  A    between atoms: C_16  and  N_22
REMARK   14  A    between atoms: C_18  and  C_19
REMARK   15  A    between atoms: C_19  and  C_20
REMARK   16  A    between atoms: C_19  and  C_21
REMARK   17  A    between atoms: C_23  and  O_25
REMARK   18  A    between atoms: O_25  and  C_26
REMARK   19  A    between atoms: C_26  and  C_27
REMARK                            x       y       z     vdW  Elec       q    Type
REMARK                         _______ _______ _______ _____ _____    ______ ____
ROOT
ATOM      1  C   UNL     1       8.220  -4.493  24.493  0.00  0.00    +0.162 C 
ENDROOT
BRANCH   1   4
ATOM      2  N   UNL     1       8.331  -2.041  24.386  0.00  0.00    -0.308 N 
ATOM      3  H   UNL     1       7.330  -2.102  24.513  0.00  0.00    +0.149 HD
ATOM      4  C   UNL     1       9.046  -3.212  24.247  0.00  0.00    +0.234 C 
ATOM      5  O   UNL     1      10.235  -3.244  23.935  0.00  0.00    -0.274 OA
BRANCH   2   6
ATOM      6  C   UNL     1       8.935  -0.715  24.190  0.00  0.00    +0.104 C 
BRANCH   6   7
ATOM      7  C   UNL     1       9.115   0.036  25.536  0.00  0.00    +0.160 C 
BRANCH   7   8
ATOM      8  O   UNL     1      10.457   0.549  25.626  0.00  0.00    -0.388 OA
ATOM      9  H   UNL     1      10.983  -0.007  25.016  0.00  0.00    +0.210 HD
ENDBRANCH   7   8
BRANCH   7  10
ATOM     10  C   UNL     1       8.847  -0.815  26.784  0.00  0.00    +0.192 C 
BRANCH  10  11
ATOM     11  O   UNL     1       7.428  -1.006  26.892  0.00  0.00    -0.380 OA
ATOM     12  C   UNL     1       6.760   0.223  27.158  0.00  0.00    +0.194 C 
ENDBRANCH  10  11
ENDBRANCH   7  10
ENDBRANCH   6   7
BRANCH   6  13
ATOM     13  C   UNL     1       8.112   0.058  23.140  0.00  0.00    +0.028 C 
BRANCH  13  14
ATOM     14  C   UNL     1       8.851   0.436  21.842  0.00  0.00    -0.015 C 
ATOM     15  C   UNL     1       9.573  -0.794  21.284  0.00  0.00    +0.007 C 
ATOM     16  C   UNL     1       9.855   1.570  22.055  0.00  0.00    +0.007 C 
ENDBRANCH  13  14
ENDBRANCH   6  13
ENDBRANCH   2   6
ENDBRANCH   1   4
BRANCH   1  17
ATOM     17  N   UNL     1       7.080  -4.218  25.350  0.00  0.00    -0.270 N 
ATOM     18  H   UNL     1       6.505  -3.405  25.165  0.00  0.00    +0.153 HD
ATOM     19  C   UNL     1       6.822  -4.942  26.471  0.00  0.00    +0.401 C 
ATOM     20  O   UNL     1       7.504  -5.879  26.860  0.00  0.00    -0.226 OA
BRANCH  19  21
ATOM     21  O   UNL     1       5.702  -4.479  27.070  0.00  0.00    -0.446 OA
BRANCH  21  22
ATOM     22  C   UNL     1       4.646  -5.432  27.237  0.00  0.00    +0.269 C 
BRANCH  22  23
ATOM     23  C   UNL     1       3.986  -5.674  25.904  0.00  0.00    -0.010 A 
ATOM     24  C   UNL     1       3.416  -4.605  25.197  0.00  0.00    +0.007 A 
ATOM     25  C   UNL     1       2.814  -4.819  23.957  0.00  0.00    +0.000 A 
ATOM     26  C   UNL     1       2.781  -6.100  23.408  0.00  0.00    +0.000 A 
ATOM     27  C   UNL     1       3.350  -7.168  24.100  0.00  0.00    +0.000 A 
ATOM     28  C   UNL     1       3.953  -6.957  25.341  0.00  0.00    +0.007 A 
ENDBRANCH  22  23
ENDBRANCH  21  22
ENDBRANCH  19  21
ENDBRANCH   1  17
BRANCH   1  29
ATOM     29  C   UNL     1       7.806  -5.246  23.213  0.00  0.00    +0.035 C 
BRANCH  29  30
ATOM     30  C   UNL     1       6.359  -5.045  22.710  0.00  0.00    -0.015 C 
ATOM     31  C   UNL     1       6.026  -6.128  21.677  0.00  0.00    +0.007 C 
ATOM     32  C   UNL     1       6.114  -3.674  22.081  0.00  0.00    +0.007 C 
ENDBRANCH  29  30
ENDBRANCH   1  29
TORSDOF 14
ENDMDL
MODEL 2
REMARK VINA RESULT:      -5.6      2.834      5.006
REMARK  Name = 
REMARK  19 active torsions:
REMARK  status: ('A' for Active; 'I' for Inactive)
REMARK    1  A    between atoms: C_2  and  O_3
REMARK    2  A    between atoms: C_2  and  C_4
REMARK    3  A    between atoms: C_2  and  C_7
REMARK    4  A    between atoms: C_4  and  O_5
REMARK    5  A    between atoms: O_5  and  C_6
REMARK    6  A    between atoms: C_7  and  C_9
REMARK    7  A    between atoms: C_7  and  N_13
REMARK    8  A    between atoms: C_9  and  C_10
REMARK    9  A    between atoms: C_10  and  C_11
REMARK   10  A    between atoms: C_10  and  C_12
REMARK   11  A    between atoms: C_14  and  C_16
REMARK   12  A    between atoms: C_16  and  C_18
REMARK   13  A    between atoms: C_16  and  N_22
REMARK   14  A    between atoms: C_18  and  C_19
REMARK   15  A    between atoms: C_19  and  C_20
REMARK   16  A    between atoms: C_19  and  C_21
REMARK   17  A    between atoms: C_23  and  O_25
REMARK   18  A    between atoms: O_25  and  C_26
REMARK   19  A    between atoms: C_26  and  C_27
REMARK                            x       y       z     vdW  Elec       q    Type
REMARK                         _______ _______ _______ _____ _____    ______ ____
ROOT
ATOM      1  C   UNL     1       6.529  -0.379  23.556  0.00  0.00    +0.162 C 
ENDROOT
BRANCH   1   4
ATOM      2  N   UNL     1       7.934   1.588  23.995  0.00  0.00    -0.308 N 
ATOM      3  H   UNL     1       7.874   1.277  24.954  0.00  0.00    +0.149 HD
ATOM      4  C   UNL     1       7.207   0.907  23.040  0.00  0.00    +0.234 C 
ATOM      5  O   UNL     1       7.089   1.296  21.879  0.00  0.00    -0.274 OA
BRANCH   2   6
ATOM      6  C   UNL     1       8.652   2.837  23.703  0.00  0.00    +0.104 C 
BRANCH   6   7
ATOM      7  C   UNL     1      10.104   2.565  23.229  0.00  0.00    +0.160 C 
BRANCH   7   8
ATOM      8  O   UNL     1      10.111   2.332  21.809  0.00  0.00    -0.388 OA
ATOM      9  H   UNL     1       9.483   1.596  21.669  0.00  0.00    +0.210 HD
ENDBRANCH   7   8
BRANCH   7  10
ATOM     10  C   UNL     1      10.786   1.372  23.910  0.00  0.00    +0.192 C 
BRANCH  10  11
ATOM     11  O   UNL     1      10.573   0.213  23.090  0.00  0.00    -0.380 OA
ATOM     12  C   UNL     1      10.439  -0.962  23.882  0.00  0.00    +0.194 C 
ENDBRANCH  10  11
ENDBRANCH   7  10
ENDBRANCH   6   7
BRANCH   6  13
ATOM     13  C   UNL     1       8.550   3.768  24.929  0.00  0.00    +0.028 C 
BRANCH  13  14
ATOM     14  C   UNL     1       8.410   5.273  24.629  0.00  0.00    -0.015 C 
ATOM     15  C   UNL     1       7.785   5.465  23.244  0.00  0.00    +0.007 C 
ATOM     16  C   UNL     1       9.750   6.005  24.696  0.00  0.00    +0.007 C 
ENDBRANCH  13  14
ENDBRANCH   6  13
ENDBRANCH   2   6
ENDBRANCH   1   4
BRANCH   1  17
ATOM     17  N   UNL     1       7.291  -1.556  23.178  0.00  0.00    -0.270 N 
ATOM     18  H   UNL     1       8.292  -1.568  23.330  0.00  0.00    +0.153 HD
ATOM     19  C   UNL     1       6.733  -2.600  22.511  0.00  0.00    +0.401 C 
ATOM     20  O   UNL     1       5.559  -2.657  22.175  0.00  0.00    -0.226 OA
BRANCH  19  21
ATOM     21  O   UNL     1       7.662  -3.558  22.295  0.00  0.00    -0.446 OA
BRANCH  21  22
ATOM     22  C   UNL     1       7.298  -4.882  22.702  0.00  0.00    +0.269 C 
BRANCH  22  23
ATOM     23  C   UNL     1       7.455  -4.998  24.196  0.00  0.00    -0.010 A 
ATOM     24  C   UNL     1       8.683  -4.690  24.800  0.00  0.00    +0.007 A 
ATOM     25  C   UNL     1       8.833  -4.784  26.184  0.00  0.00    +0.000 A 
ATOM     26  C   UNL     1       7.758  -5.179  26.978  0.00  0.00    +0.000 A 
ATOM     27  C   UNL     1       6.532  -5.482  26.388  0.00  0.00    +0.000 A 
ATOM     28  C   UNL     1       6.379  -5.389  25.004  0.00  0.00    +0.007 A 
ENDBRANCH  22  23
ENDBRANCH  21  22
ENDBRANCH  19  21
ENDBRANCH   1  17
BRANCH   1  29
ATOM     29  C   UNL     1       6.198  -0.371  25.062  0.00  0.00    +0.035 C 
BRANCH  29  30
ATOM     30  C   UNL     1       6.780  -1.516  25.921  0.00  0.00    -0.015 C 
ATOM     31  C   UNL     1       5.715  -1.997  26.914  0.00  0.00    +0.007 C 
ATOM     32  C   UNL     1       8.036  -1.124  26.698  0.00  0.00    +0.007 C 
ENDBRANCH  29  30
ENDBRANCH   1  29
TORSDOF 14
ENDMDL
MODEL 3
REMARK VINA RESULT:      -5.6      2.855      8.008
REMARK  Name = 
REMARK  19 active torsions:
REMARK  status: ('A' for Active; 'I' for Inactive)
REMARK    1  A    between atoms: C_2  and  O_3
REMARK    2  A    between atoms: C_2  and  C_4
REMARK    3  A    between atoms: C_2  and  C_7
REMARK    4  A    between atoms: C_4  and  O_5
REMARK    5  A    between atoms: O_5  and  C_6
REMARK    6  A    between atoms: C_7  and  C_9
REMARK    7  A    between atoms: C_7  and  N_13
REMARK    8  A    between atoms: C_9  and  C_10
REMARK    9  A    between atoms: C_10  and  C_11
REMARK   10  A    between atoms: C_10  and  C_12
REMARK   11  A    between atoms: C_14  and  C_16
REMARK   12  A    between atoms: C_16  and  C_18
REMARK   13  A    between atoms: C_16  and  N_22
REMARK   14  A    between atoms: C_18  and  C_19
REMARK   15  A    between atoms: C_19  and  C_20
REMARK   16  A    between atoms: C_19  and  C_21
REMARK   17  A    between atoms: C_23  and  O_25
REMARK   18  A    between atoms: O_25  and  C_26
REMARK   19  A    between atoms: C_26  and  C_27
REMARK                            x       y       z     vdW  Elec       q    Type
REMARK                         _______ _______ _______ _____ _____    ______ ____
ROOT
ATOM      1  C   UNL     1       8.128  -0.930  22.687  0.00  0.00    +0.162 C 
ENDROOT
BRANCH   1   4
ATOM      2  N   UNL     1       7.972  -3.117  23.796  0.00  0.00    -0.308 N 
ATOM      3  H   UNL     1       8.962  -2.982  23.952  0.00  0.00    +0.149 HD
ATOM      4  C   UNL     1       7.295  -2.180  23.042  0.00  0.00    +0.234 C 
ATOM      5  O   UNL     1       6.133  -2.329  22.666  0.00  0.00    -0.274 OA
BRANCH   2   6
ATOM      6  C   UNL     1       7.356  -4.377  24.234  0.00  0.00    +0.104 C 
BRANCH   6   7
ATOM      7  C   UNL     1       7.808  -4.767  25.667  0.00  0.00    +0.160 C 
BRANCH   7   8
ATOM      8  O   UNL     1       8.922  -5.675  25.590  0.00  0.00    -0.388 OA
ATOM      9  H   UNL     1       9.684  -5.122  25.327  0.00  0.00    +0.210 HD
ENDBRANCH   7   8
BRANCH   7  10
ATOM     10  C   UNL     1       6.718  -5.423  26.524  0.00  0.00    +0.192 C 
BRANCH  10  11
ATOM     11  O   UNL     1       7.317  -5.837  27.761  0.00  0.00    -0.380 OA
ATOM     12  C   UNL     1       6.327  -6.210  28.714  0.00  0.00    +0.194 C 
ENDBRANCH  10  11
ENDBRANCH   7  10
ENDBRANCH   6   7
BRANCH   6  13
ATOM     13  C   UNL     1       7.624  -5.460  23.170  0.00  0.00    +0.028 C 
BRANCH  13  14
ATOM     14  C   UNL     1       6.382  -6.052  22.476  0.00  0.00    -0.015 C 
ATOM     15  C   UNL     1       6.330  -5.578  21.021  0.00  0.00    +0.007 C 
ATOM     16  C   UNL     1       5.083  -5.672  23.188  0.00  0.00    +0.007 C 
ENDBRANCH  13  14
ENDBRANCH   6  13
ENDBRANCH   2   6
ENDBRANCH   1   4
BRANCH   1  17
ATOM     17  N   UNL     1       7.338   0.280  22.836  0.00  0.00    -0.270 N 
ATOM     18  H   UNL     1       6.573   0.293  23.499  0.00  0.00    +0.153 HD
ATOM     19  C   UNL     1       7.506   1.362  22.031  0.00  0.00    +0.401 C 
ATOM     20  O   UNL     1       8.323   1.427  21.124  0.00  0.00    -0.226 OA
BRANCH  19  21
ATOM     21  O   UNL     1       6.651   2.343  22.395  0.00  0.00    -0.446 OA
BRANCH  21  22
ATOM     22  C   UNL     1       6.851   2.890  23.704  0.00  0.00    +0.269 C 
BRANCH  22  23
ATOM     23  C   UNL     1       7.778   4.074  23.606  0.00  0.00    -0.010 A 
ATOM     24  C   UNL     1       9.064   4.009  24.164  0.00  0.00    +0.007 A 
ATOM     25  C   UNL     1       9.932   5.096  24.066  0.00  0.00    +0.000 A 
ATOM     26  C   UNL     1       9.529   6.256  23.406  0.00  0.00    +0.000 A 
ATOM     27  C   UNL     1       8.256   6.328  22.843  0.00  0.00    +0.000 A 
ATOM     28  C   UNL     1       7.385   5.242  22.939  0.00  0.00    +0.007 A 
ENDBRANCH  22  23
ENDBRANCH  21  22
ENDBRANCH  19  21
ENDBRANCH   1  17
BRANCH   1  29
ATOM     29  C   UNL     1       9.479  -0.827  23.423  0.00  0.00    +0.035 C 
BRANCH  29  30
ATOM     30  C   UNL     1       9.569   0.171  24.598  0.00  0.00    -0.015 C 
ATOM     31  C   UNL     1      10.985   0.758  24.657  0.00  0.00    +0.007 C 
ATOM     32  C   UNL     1       9.238  -0.447  25.955  0.00  0.00    +0.007 C 
ENDBRANCH  29  30
ENDBRANCH   1  29
TORSDOF 14
ENDMDL
MODEL 4
REMARK VINA RESULT:      -5.5      1.862      7.668
REMARK  Name = 
REMARK  19 active torsions:
REMARK  status: ('A' for Active; 'I' for Inactive)
REMARK    1  A    between atoms: C_2  and  O_3
REMARK    2  A    between atoms: C_2  and  C_4
REMARK    3  A    between atoms: C_2  and  C_7
REMARK    4  A    between atoms: C_4  and  O_5
REMARK    5  A    between atoms: O_5  and  C_6
REMARK    6  A    between atoms: C_7  and  C_9
REMARK    7  A    between atoms: C_7  and  N_13
REMARK    8  A    between atoms: C_9  and  C_10
REMARK    9  A    between atoms: C_10  and  C_11
REMARK   10  A    between atoms: C_10  and  C_12
REMARK   11  A    between atoms: C_14  and  C_16
REMARK   12  A    between atoms: C_16  and  C_18
REMARK   13  A    between atoms: C_16  and  N_22
REMARK   14  A    between atoms: C_18  and  C_19
REMARK   15  A    between atoms: C_19  and  C_20
REMARK   16  A    between atoms: C_19  and  C_21
REMARK   17  A    between atoms: C_23  and  O_25
REMARK   18  A    between atoms: O_25  and  C_26
REMARK   19  A    between atoms: C_26  and  C_27
REMARK                            x       y       z     vdW  Elec       q    Type
REMARK                         _______ _______ _______ _____ _____    ______ ____
ROOT
ATOM      1  C   UNL     1       7.744  -3.032  25.513  0.00  0.00    +0.162 C 
ENDROOT
BRANCH   1   4
ATOM      2  N   UNL     1       5.999  -4.758  25.406  0.00  0.00    -0.308 N 
ATOM      3  H   UNL     1       5.372  -3.966  25.420  0.00  0.00    +0.149 HD
ATOM      4  C   UNL     1       7.352  -4.525  25.542  0.00  0.00    +0.234 C 
ATOM      5  O   UNL     1       8.179  -5.422  25.693  0.00  0.00    -0.274 OA
BRANCH   2   6
ATOM      6  C   UNL     1       5.423  -6.111  25.411  0.00  0.00    +0.104 C 
BRANCH   6   7
ATOM      7  C   UNL     1       4.348  -6.280  24.305  0.00  0.00    +0.160 C 
BRANCH   7   8
ATOM      8  O   UNL     1       4.218  -7.674  23.968  0.00  0.00    -0.388 OA
ATOM      9  H   UNL     1       5.063  -7.911  23.536  0.00  0.00    +0.210 HD
ENDBRANCH   7   8
BRANCH   7  10
ATOM     10  C   UNL     1       4.633  -5.504  23.013  0.00  0.00    +0.192 C 
BRANCH  10  11
ATOM     11  O   UNL     1       5.988  -5.776  22.622  0.00  0.00    -0.380 OA
ATOM     12  C   UNL     1       6.113  -5.840  21.206  0.00  0.00    +0.194 C 
ENDBRANCH  10  11
ENDBRANCH   7  10
ENDBRANCH   6   7
BRANCH   6  13
ATOM     13  C   UNL     1       4.924  -6.435  26.834  0.00  0.00    +0.028 C 
BRANCH  13  14
ATOM     14  C   UNL     1       4.492  -5.231  27.693  0.00  0.00    -0.015 C 
ATOM     15  C   UNL     1       5.397  -5.126  28.924  0.00  0.00    +0.007 C 
ATOM     16  C   UNL     1       3.031  -5.326  28.133  0.00  0.00    +0.007 C 
ENDBRANCH  13  14
ENDBRANCH   6  13
ENDBRANCH   2   6
ENDBRANCH   1   4
BRANCH   1  17
ATOM     17  N   UNL     1       7.916  -2.567  24.148  0.00  0.00    -0.270 N 
ATOM     18  H   UNL     1       7.105  -2.265  23.621  0.00  0.00    +0.153 HD
ATOM     19  C   UNL     1       9.109  -2.635  23.502  0.00  0.00    +0.401 C 
ATOM     20  O   UNL     1      10.136  -3.080  23.993  0.00  0.00    -0.226 OA
BRANCH  19  21
ATOM     21  O   UNL     1       8.987  -2.129  22.254  0.00  0.00    -0.446 OA
BRANCH  21  22
ATOM     22  C   UNL     1      10.041  -1.256  21.830  0.00  0.00    +0.269 C 
BRANCH  22  23
ATOM     23  C   UNL     1       9.766   0.133  22.345  0.00  0.00    -0.010 A 
ATOM     24  C   UNL     1       8.894   0.982  21.647  0.00  0.00    +0.007 A 
ATOM     25  C   UNL     1       8.625   2.265  22.124  0.00  0.00    +0.000 A 
ATOM     26  C   UNL     1       9.218   2.711  23.304  0.00  0.00    +0.000 A 
ATOM     27  C   UNL     1      10.083   1.873  24.007  0.00  0.00    +0.000 A 
ATOM     28  C   UNL     1      10.353   0.589  23.532  0.00  0.00    +0.007 A 
ENDBRANCH  22  23
ENDBRANCH  21  22
ENDBRANCH  19  21
ENDBRANCH   1  17
BRANCH   1  29
ATOM     29  C   UNL     1       6.811  -2.107  26.320  0.00  0.00    +0.035 C 
BRANCH  29  30
ATOM     30  C   UNL     1       7.388  -0.751  26.784  0.00  0.00    -0.015 C 
ATOM     31  C   UNL     1       6.992   0.338  25.779  0.00  0.00    +0.007 C 
ATOM     32  C   UNL     1       8.908  -0.751  26.936  0.00  0.00    +0.007 C 
ENDBRANCH  29  30
ENDBRANCH   1  29
TORSDOF 14
ENDMDL
MODEL 5
REMARK VINA RESULT:      -5.4      1.842      7.200
REMARK  Name = 
REMARK  19 active torsions:
REMARK  status: ('A' for Active; 'I' for Inactive)
REMARK    1  A    between atoms: C_2  and  O_3
REMARK    2  A    between atoms: C_2  and  C_4
REMARK    3  A    between atoms: C_2  and  C_7
REMARK    4  A    between atoms: C_4  and  O_5
REMARK    5  A    between atoms: O_5  and  C_6
REMARK    6  A    between atoms: C_7  and  C_9
REMARK    7  A    between atoms: C_7  and  N_13
REMARK    8  A    between atoms: C_9  and  C_10
REMARK    9  A    between atoms: C_10  and  C_11
REMARK   10  A    between atoms: C_10  and  C_12
REMARK   11  A    between atoms: C_14  and  C_16
REMARK   12  A    between atoms: C_16  and  C_18
REMARK   13  A    between atoms: C_16  and  N_22
REMARK   14  A    between atoms: C_18  and  C_19
REMARK   15  A    between atoms: C_19  and  C_20
REMARK   16  A    between atoms: C_19  and  C_21
REMARK   17  A    between atoms: C_23  and  O_25
REMARK   18  A    between atoms: O_25  and  C_26
REMARK   19  A    between atoms: C_26  and  C_27
REMARK                            x       y       z     vdW  Elec       q    Type
REMARK                         _______ _______ _______ _____ _____    ______ ____
ROOT
ATOM      1  C   UNL     1       6.203  -1.733  24.906  0.00  0.00    +0.162 C 
ENDROOT
BRANCH   1   4
ATOM      2  N   UNL     1       5.618  -4.082  24.489  0.00  0.00    -0.308 N 
ATOM      3  H   UNL     1       6.588  -4.158  24.214  0.00  0.00    +0.149 HD
ATOM      4  C   UNL     1       5.128  -2.837  24.823  0.00  0.00    +0.234 C 
ATOM      5  O   UNL     1       3.934  -2.612  25.019  0.00  0.00    -0.274 OA
BRANCH   2   6
ATOM      6  C   UNL     1       4.755  -5.265  24.356  0.00  0.00    +0.104 C 
BRANCH   6   7
ATOM      7  C   UNL     1       4.663  -6.059  25.686  0.00  0.00    +0.160 C 
BRANCH   7   8
ATOM      8  O   UNL     1       3.357  -5.879  26.265  0.00  0.00    -0.388 OA
ATOM      9  H   UNL     1       3.099  -6.765  26.590  0.00  0.00    +0.210 HD
ENDBRANCH   7   8
BRANCH   7  10
ATOM     10  C   UNL     1       5.707  -5.666  26.739  0.00  0.00    +0.192 C 
BRANCH  10  11
ATOM     11  O   UNL     1       7.008  -5.944  26.196  0.00  0.00    -0.380 OA
ATOM     12  C   UNL     1       8.009  -5.150  26.825  0.00  0.00    +0.194 C 
ENDBRANCH  10  11
ENDBRANCH   7  10
ENDBRANCH   6   7
BRANCH   6  13
ATOM     13  C   UNL     1       5.236  -6.100  23.153  0.00  0.00    +0.028 C 
BRANCH  13  14
ATOM     14  C   UNL     1       6.378  -5.492  22.316  0.00  0.00    -0.015 C 
ATOM     15  C   UNL     1       6.097  -5.708  20.827  0.00  0.00    +0.007 C 
ATOM     16  C   UNL     1       7.740  -6.087  22.675  0.00  0.00    +0.007 C 
ENDBRANCH  13  14
ENDBRANCH   6  13
ENDBRANCH   2   6
ENDBRANCH   1   4
BRANCH   1  17
ATOM     17  N   UNL     1       6.858  -1.548  23.623  0.00  0.00    -0.270 N 
ATOM     18  H   UNL     1       6.405  -0.985  22.913  0.00  0.00    +0.153 HD
ATOM     19  C   UNL     1       8.001  -2.202  23.289  0.00  0.00    +0.401 C 
ATOM     20  O   UNL     1       8.584  -2.990  24.019  0.00  0.00    -0.226 OA
BRANCH  19  21
ATOM     21  O   UNL     1       8.393  -1.839  22.048  0.00  0.00    -0.446 OA
BRANCH  21  22
ATOM     22  C   UNL     1       9.779  -1.505  21.905  0.00  0.00    +0.269 C 
BRANCH  22  23
ATOM     23  C   UNL     1      10.023  -0.147  22.510  0.00  0.00    -0.010 A 
ATOM     24  C   UNL     1       9.699   1.013  21.790  0.00  0.00    +0.007 A 
ATOM     25  C   UNL     1       9.910   2.274  22.349  0.00  0.00    +0.000 A 
ATOM     26  C   UNL     1      10.440   2.389  23.633  0.00  0.00    +0.000 A 
ATOM     27  C   UNL     1      10.761   1.243  24.359  0.00  0.00    +0.000 A 
ATOM     28  C   UNL     1      10.550  -0.020  23.802  0.00  0.00    +0.007 A 
ENDBRANCH  22  23
ENDBRANCH  21  22
ENDBRANCH  19  21
ENDBRANCH   1  17
BRANCH   1  29
ATOM     29  C   UNL     1       5.709  -0.397  25.496  0.00  0.00    +0.035 C 
BRANCH  29  30
ATOM     30  C   UNL     1       6.733   0.452  26.281  0.00  0.00    -0.015 C 
ATOM     31  C   UNL     1       7.206   1.617  25.403  0.00  0.00    +0.007 C 
ATOM     32  C   UNL     1       7.955  -0.338  26.749  0.00  0.00    +0.007 C 
ENDBRANCH  29  30
ENDBRANCH   1  29
TORSDOF 14
ENDMDL
MODEL 6
REMARK VINA RESULT:      -5.4      2.270      7.174
REMARK  Name = 
REMARK  19 active torsions:
REMARK  status: ('A' for Active; 'I' for Inactive)
REMARK    1  A    between atoms: C_2  and  O_3
REMARK    2  A    between atoms: C_2  and  C_4
REMARK    3  A    between atoms: C_2  and  C_7
REMARK    4  A    between atoms: C_4  and  O_5
REMARK    5  A    between atoms: O_5  and  C_6
REMARK    6  A    between atoms: C_7  and  C_9
REMARK    7  A    between atoms: C_7  and  N_13
REMARK    8  A    between atoms: C_9  and  C_10
REMARK    9  A    between atoms: C_10  and  C_11
REMARK   10  A    between atoms: C_10  and  C_12
REMARK   11  A    between atoms: C_14  and  C_16
REMARK   12  A    between atoms: C_16  and  C_18
REMARK   13  A    between atoms: C_16  and  N_22
REMARK   14  A    between atoms: C_18  and  C_19
REMARK   15  A    between atoms: C_19  and  C_20
REMARK   16  A    between atoms: C_19  and  C_21
REMARK   17  A    between atoms: C_23  and  O_25
REMARK   18  A    between atoms: O_25  and  C_26
REMARK   19  A    between atoms: C_26  and  C_27
REMARK                            x       y       z     vdW  Elec       q    Type
REMARK                         _______ _______ _______ _____ _____    ______ ____
ROOT
ATOM      1  C   UNL     1       8.604  -0.923  23.060  0.00  0.00    +0.162 C 
ENDROOT
BRANCH   1   4
ATOM      2  N   UNL     1       7.641  -3.065  23.780  0.00  0.00    -0.308 N 
ATOM      3  H   UNL     1       6.778  -2.541  23.802  0.00  0.00    +0.149 HD
ATOM      4  C   UNL     1       8.810  -2.389  23.495  0.00  0.00    +0.234 C 
ATOM      5  O   UNL     1       9.925  -2.898  23.595  0.00  0.00    -0.274 OA
BRANCH   2   6
ATOM      6  C   UNL     1       7.623  -4.469  24.213  0.00  0.00    +0.104 C 
BRANCH   6   7
ATOM      7  C   UNL     1       8.685  -4.743  25.311  0.00  0.00    +0.160 C 
BRANCH   7   8
ATOM      8  O   UNL     1       9.596  -5.762  24.858  0.00  0.00    -0.388 OA
ATOM      9  H   UNL     1      10.361  -5.274  24.493  0.00  0.00    +0.210 HD
ENDBRANCH   7   8
BRANCH   7  10
ATOM     10  C   UNL     1       8.108  -5.189  26.661  0.00  0.00    +0.192 C 
BRANCH  10  11
ATOM     11  O   UNL     1       6.949  -5.996  26.402  0.00  0.00    -0.380 OA
ATOM     12  C   UNL     1       5.887  -5.674  27.293  0.00  0.00    +0.194 C 
ENDBRANCH  10  11
ENDBRANCH   7  10
ENDBRANCH   6   7
BRANCH   6  13
ATOM     13  C   UNL     1       7.749  -5.376  22.972  0.00  0.00    +0.028 C 
BRANCH  13  14
ATOM     14  C   UNL     1       6.450  -6.049  22.489  0.00  0.00    -0.015 C 
ATOM     15  C   UNL     1       6.188  -5.673  21.027  0.00  0.00    +0.007 C 
ATOM     16  C   UNL     1       5.243  -5.662  23.344  0.00  0.00    +0.007 C 
ENDBRANCH  13  14
ENDBRANCH   6  13
ENDBRANCH   2   6
ENDBRANCH   1   4
BRANCH   1  17
ATOM     17  N   UNL     1       8.646  -0.031  24.205  0.00  0.00    -0.270 N 
ATOM     18  H   UNL     1       9.540   0.308  24.538  0.00  0.00    +0.153 HD
ATOM     19  C   UNL     1       7.537   0.272  24.931  0.00  0.00    +0.401 C 
ATOM     20  O   UNL     1       6.418  -0.160  24.696  0.00  0.00    -0.226 OA
BRANCH  19  21
ATOM     21  O   UNL     1       7.860   1.125  25.929  0.00  0.00    -0.446 OA
BRANCH  21  22
ATOM     22  C   UNL     1       6.984   2.247  26.097  0.00  0.00    +0.269 C 
BRANCH  22  23
ATOM     23  C   UNL     1       7.300   3.279  25.046  0.00  0.00    -0.010 A 
ATOM     24  C   UNL     1       8.570   3.873  25.003  0.00  0.00    +0.007 A 
ATOM     25  C   UNL     1       8.873   4.821  24.025  0.00  0.00    +0.000 A 
ATOM     26  C   UNL     1       7.916   5.180  23.079  0.00  0.00    +0.000 A 
ATOM     27  C   UNL     1       6.652   4.592  23.110  0.00  0.00    +0.000 A 
ATOM     28  C   UNL     1       6.346   3.643  24.086  0.00  0.00    +0.007 A 
ENDBRANCH  22  23
ENDBRANCH  21  22
ENDBRANCH  19  21
ENDBRANCH   1  17
BRANCH   1  29
ATOM     29  C   UNL     1       9.542  -0.449  21.931  0.00  0.00    +0.035 C 
BRANCH  29  30
ATOM     30  C   UNL     1       9.353   0.994  21.413  0.00  0.00    -0.015 C 
ATOM     31  C   UNL     1      10.250   1.943  22.218  0.00  0.00    +0.007 C 
ATOM     32  C   UNL     1       7.911   1.492  21.497  0.00  0.00    +0.007 C 
ENDBRANCH  29  30
ENDBRANCH   1  29
TORSDOF 14
ENDMDL
MODEL 7
REMARK VINA RESULT:      -5.4      2.346      7.463
REMARK  Name = 
REMARK  19 active torsions:
REMARK  status: ('A' for Active; 'I' for Inactive)
REMARK    1  A    between atoms: C_2  and  O_3
REMARK    2  A    between atoms: C_2  and  C_4
REMARK    3  A    between atoms: C_2  and  C_7
REMARK    4  A    between atoms: C_4  and  O_5
REMARK    5  A    between atoms: O_5  and  C_6
REMARK    6  A    between atoms: C_7  and  C_9
REMARK    7  A    between atoms: C_7  and  N_13
REMARK    8  A    between atoms: C_9  and  C_10
REMARK    9  A    between atoms: C_10  and  C_11
REMARK   10  A    between atoms: C_10  and  C_12
REMARK   11  A    between atoms: C_14  and  C_16
REMARK   12  A    between atoms: C_16  and  C_18
REMARK   13  A    between atoms: C_16  and  N_22
REMARK   14  A    between atoms: C_18  and  C_19
REMARK   15  A    between atoms: C_19  and  C_20
REMARK   16  A    between atoms: C_19  and  C_21
REMARK   17  A    between atoms: C_23  and  O_25
REMARK   18  A    between atoms: O_25  and  C_26
REMARK   19  A    between atoms: C_26  and  C_27
REMARK                            x       y       z     vdW  Elec       q    Type
REMARK                         _______ _______ _______ _____ _____    ______ ____
ROOT
ATOM      1  C   UNL     1       9.401  -1.178  24.675  0.00  0.00    +0.162 C 
ENDROOT
BRANCH   1   4
ATOM      2  N   UNL     1       7.934  -2.980  23.877  0.00  0.00    -0.308 N 
ATOM      3  H   UNL     1       7.196  -2.342  24.136  0.00  0.00    +0.149 HD
ATOM      4  C   UNL     1       9.238  -2.622  24.156  0.00  0.00    +0.234 C 
ATOM      5  O   UNL     1      10.190  -3.389  24.024  0.00  0.00    -0.274 OA
BRANCH   2   6
ATOM      6  C   UNL     1       7.569  -4.313  23.375  0.00  0.00    +0.104 C 
BRANCH   6   7
ATOM      7  C   UNL     1       6.498  -4.229  22.255  0.00  0.00    +0.160 C 
BRANCH   7   8
ATOM      8  O   UNL     1       5.690  -3.053  22.447  0.00  0.00    -0.388 OA
ATOM      9  H   UNL     1       6.316  -2.359  22.734  0.00  0.00    +0.210 HD
ENDBRANCH   7   8
BRANCH   7  10
ATOM     10  C   UNL     1       5.561  -5.441  22.176  0.00  0.00    +0.192 C 
BRANCH  10  11
ATOM     11  O   UNL     1       4.236  -4.999  22.511  0.00  0.00    -0.380 OA
ATOM     12  C   UNL     1       3.519  -6.006  23.217  0.00  0.00    +0.194 C 
ENDBRANCH  10  11
ENDBRANCH   7  10
ENDBRANCH   6   7
BRANCH   6  13
ATOM     13  C   UNL     1       7.167  -5.202  24.570  0.00  0.00    +0.028 C 
BRANCH  13  14
ATOM     14  C   UNL     1       6.774  -4.464  25.864  0.00  0.00    -0.015 C 
ATOM     15  C   UNL     1       7.265  -5.258  27.078  0.00  0.00    +0.007 C 
ATOM     16  C   UNL     1       5.265  -4.241  25.970  0.00  0.00    +0.007 C 
ENDBRANCH  13  14
ENDBRANCH   6  13
ENDBRANCH   2   6
ENDBRANCH   1   4
BRANCH   1  17
ATOM     17  N   UNL     1       9.562  -0.246  23.573  0.00  0.00    -0.270 N 
ATOM     18  H   UNL     1       9.026  -0.383  22.725  0.00  0.00    +0.153 HD
ATOM     19  C   UNL     1      10.499   0.739  23.585  0.00  0.00    +0.401 C 
ATOM     20  O   UNL     1      11.279   0.939  24.504  0.00  0.00    -0.226 OA
BRANCH  19  21
ATOM     21  O   UNL     1      10.423   1.460  22.444  0.00  0.00    -0.446 OA
BRANCH  21  22
ATOM     22  C   UNL     1       9.199   1.338  21.710  0.00  0.00    +0.269 C 
BRANCH  22  23
ATOM     23  C   UNL     1       8.218   2.363  22.218  0.00  0.00    -0.010 A 
ATOM     24  C   UNL     1       6.846   2.208  21.968  0.00  0.00    +0.007 A 
ATOM     25  C   UNL     1       5.930   3.146  22.446  0.00  0.00    +0.000 A 
ATOM     26  C   UNL     1       6.374   4.244  23.181  0.00  0.00    +0.000 A 
ATOM     27  C   UNL     1       7.734   4.405  23.439  0.00  0.00    +0.000 A 
ATOM     28  C   UNL     1       8.653   3.467  22.963  0.00  0.00    +0.007 A 
ENDBRANCH  22  23
ENDBRANCH  21  22
ENDBRANCH  19  21
ENDBRANCH   1  17
BRANCH   1  29
ATOM     29  C   UNL     1       8.304  -0.720  25.657  0.00  0.00    +0.035 C 
BRANCH  29  30
ATOM     30  C   UNL     1       7.287   0.325  25.145  0.00  0.00    -0.015 C 
ATOM     31  C   UNL     1       7.403   1.600  25.989  0.00  0.00    +0.007 C 
ATOM     32  C   UNL     1       5.839  -0.160  25.182  0.00  0.00    +0.007 C 
ENDBRANCH  29  30
ENDBRANCH   1  29
TORSDOF 14
ENDMDL
MODEL 8
REMARK VINA RESULT:      -5.3      1.250      1.721
REMARK  Name = 
REMARK  19 active torsions:
REMARK  status: ('A' for Active; 'I' for Inactive)
REMARK    1  A    between atoms: C_2  and  O_3
REMARK    2  A    between atoms: C_2  and  C_4
REMARK    3  A    between atoms: C_2  and  C_7
REMARK    4  A    between atoms: C_4  and  O_5
REMARK    5  A    between atoms: O_5  and  C_6
REMARK    6  A    between atoms: C_7  and  C_9
REMARK    7  A    between atoms: C_7  and  N_13
REMARK    8  A    between atoms: C_9  and  C_10
REMARK    9  A    between atoms: C_10  and  C_11
REMARK   10  A    between atoms: C_10  and  C_12
REMARK   11  A    between atoms: C_14  and  C_16
REMARK   12  A    between atoms: C_16  and  C_18
REMARK   13  A    between atoms: C_16  and  N_22
REMARK   14  A    between atoms: C_18  and  C_19
REMARK   15  A    between atoms: C_19  and  C_20
REMARK   16  A    between atoms: C_19  and  C_21
REMARK   17  A    between atoms: C_23  and  O_25
REMARK   18  A    between atoms: O_25  and  C_26
REMARK   19  A    between atoms: C_26  and  C_27
REMARK                            x       y       z     vdW  Elec       q    Type
REMARK                         _______ _______ _______ _____ _____    ______ ____
ROOT
ATOM      1  C   UNL     1       8.363  -3.826  24.155  0.00  0.00    +0.162 C 
ENDROOT
BRANCH   1   4
ATOM      2  N   UNL     1       8.103  -1.395  23.918  0.00  0.00    -0.308 N 
ATOM      3  H   UNL     1       7.116  -1.614  23.912  0.00  0.00    +0.149 HD
ATOM      4  C   UNL     1       9.005  -2.438  23.947  0.00  0.00    +0.234 C 
ATOM      5  O   UNL     1      10.217  -2.286  23.800  0.00  0.00    -0.274 OA
BRANCH   2   6
ATOM      6  C   UNL     1       8.513   0.004  23.727  0.00  0.00    +0.104 C 
BRANCH   6   7
ATOM      7  C   UNL     1       8.786   0.710  25.082  0.00  0.00    +0.160 C 
BRANCH   7   8
ATOM      8  O   UNL     1      10.131   0.430  25.510  0.00  0.00    -0.388 OA
ATOM      9  H   UNL     1      10.194  -0.546  25.529  0.00  0.00    +0.210 HD
ENDBRANCH   7   8
BRANCH   7  10
ATOM     10  C   UNL     1       7.833   0.309  26.215  0.00  0.00    +0.192 C 
BRANCH  10  11
ATOM     11  O   UNL     1       7.067   1.467  26.580  0.00  0.00    -0.380 OA
ATOM     12  C   UNL     1       6.842   1.514  27.985  0.00  0.00    +0.194 C 
ENDBRANCH  10  11
ENDBRANCH   7  10
ENDBRANCH   6   7
BRANCH   6  13
ATOM     13  C   UNL     1       7.469   0.714  22.842  0.00  0.00    +0.028 C 
BRANCH  13  14
ATOM     14  C   UNL     1       8.021   1.727  21.821  0.00  0.00    -0.015 C 
ATOM     15  C   UNL     1       9.537   1.555  21.692  0.00  0.00    +0.007 C 
ATOM     16  C   UNL     1       7.697   3.172  22.204  0.00  0.00    +0.007 C 
ENDBRANCH  13  14
ENDBRANCH   6  13
ENDBRANCH   2   6
ENDBRANCH   1   4
BRANCH   1  17
ATOM     17  N   UNL     1       7.563  -3.852  25.366  0.00  0.00    -0.270 N 
ATOM     18  H   UNL     1       6.659  -3.394  25.373  0.00  0.00    +0.153 HD
ATOM     19  C   UNL     1       8.031  -4.361  26.536  0.00  0.00    +0.401 C 
ATOM     20  O   UNL     1       9.145  -4.842  26.683  0.00  0.00    -0.226 OA
BRANCH  19  21
ATOM     21  O   UNL     1       7.081  -4.265  27.493  0.00  0.00    -0.446 OA
BRANCH  21  22
ATOM     22  C   UNL     1       6.380  -5.477  27.798  0.00  0.00    +0.269 C 
BRANCH  22  23
ATOM     23  C   UNL     1       5.182  -5.593  26.893  0.00  0.00    -0.010 A 
ATOM     24  C   UNL     1       4.946  -6.782  26.187  0.00  0.00    +0.007 A 
ATOM     25  C   UNL     1       3.832  -6.902  25.356  0.00  0.00    +0.000 A 
ATOM     26  C   UNL     1       2.940  -5.839  25.226  0.00  0.00    +0.000 A 
ATOM     27  C   UNL     1       3.162  -4.655  25.927  0.00  0.00    +0.000 A 
ATOM     28  C   UNL     1       4.276  -4.533  26.759  0.00  0.00    +0.007 A 
ENDBRANCH  22  23
ENDBRANCH  21  22
ENDBRANCH  19  21
ENDBRANCH   1  17
BRANCH   1  29
ATOM     29  C   UNL     1       7.580  -4.360  22.939  0.00  0.00    +0.035 C 
BRANCH  29  30
ATOM     30  C   UNL     1       6.125  -4.820  23.182  0.00  0.00    -0.015 C 
ATOM     31  C   UNL     1       5.858  -6.102  22.383  0.00  0.00    +0.007 C 
ATOM     32  C   UNL     1       5.079  -3.774  22.797  0.00  0.00    +0.007 C 
ENDBRANCH  29  30
ENDBRANCH   1  29
TORSDOF 14
ENDMDL
MODEL 9
REMARK VINA RESULT:      -5.2      2.064      7.522
REMARK  Name = 
REMARK  19 active torsions:
REMARK  status: ('A' for Active; 'I' for Inactive)
REMARK    1  A    between atoms: C_2  and  O_3
REMARK    2  A    between atoms: C_2  and  C_4
REMARK    3  A    between atoms: C_2  and  C_7
REMARK    4  A    between atoms: C_4  and  O_5
REMARK    5  A    between atoms: O_5  and  C_6
REMARK    6  A    between atoms: C_7  and  C_9
REMARK    7  A    between atoms: C_7  and  N_13
REMARK    8  A    between atoms: C_9  and  C_10
REMARK    9  A    between atoms: C_10  and  C_11
REMARK   10  A    between atoms: C_10  and  C_12
REMARK   11  A    between atoms: C_14  and  C_16
REMARK   12  A    between atoms: C_16  and  C_18
REMARK   13  A    between atoms: C_16  and  N_22
REMARK   14  A    between atoms: C_18  and  C_19
REMARK   15  A    between atoms: C_19  and  C_20
REMARK   16  A    between atoms: C_19  and  C_21
REMARK   17  A    between atoms: C_23  and  O_25
REMARK   18  A    between atoms: O_25  and  C_26
REMARK   19  A    between atoms: C_26  and  C_27
REMARK                            x       y       z     vdW  Elec       q    Type
REMARK                         _______ _______ _______ _____ _____    ______ ____
ROOT
ATOM      1  C   UNL     1       6.175  -1.659  25.176  0.00  0.00    +0.162 C 
ENDROOT
BRANCH   1   4
ATOM      2  N   UNL     1       5.360  -3.960  24.901  0.00  0.00    -0.308 N 
ATOM      3  H   UNL     1       6.307  -4.141  24.601  0.00  0.00    +0.149 HD
ATOM      4  C   UNL     1       4.999  -2.658  25.183  0.00  0.00    +0.234 C 
ATOM      5  O   UNL     1       3.840  -2.312  25.404  0.00  0.00    -0.274 OA
BRANCH   2   6
ATOM      6  C   UNL     1       4.386  -5.060  24.857  0.00  0.00    +0.104 C 
BRANCH   6   7
ATOM      7  C   UNL     1       5.008  -6.395  25.345  0.00  0.00    +0.160 C 
BRANCH   7   8
ATOM      8  O   UNL     1       4.241  -7.500  24.832  0.00  0.00    -0.388 OA
ATOM      9  H   UNL     1       4.431  -8.244  25.438  0.00  0.00    +0.210 HD
ENDBRANCH   7   8
BRANCH   7  10
ATOM     10  C   UNL     1       5.092  -6.542  26.870  0.00  0.00    +0.192 C 
BRANCH  10  11
ATOM     11  O   UNL     1       4.605  -5.326  27.458  0.00  0.00    -0.380 OA
ATOM     12  C   UNL     1       5.333  -4.995  28.636  0.00  0.00    +0.194 C 
ENDBRANCH  10  11
ENDBRANCH   7  10
ENDBRANCH   6   7
BRANCH   6  13
ATOM     13  C   UNL     1       3.773  -5.127  23.443  0.00  0.00    +0.028 C 
BRANCH  13  14
ATOM     14  C   UNL     1       2.234  -5.121  23.369  0.00  0.00    -0.015 C 
ATOM     15  C   UNL     1       1.652  -4.966  24.777  0.00  0.00    +0.007 C 
ATOM     16  C   UNL     1       1.679  -6.388  22.719  0.00  0.00    +0.007 C 
ENDBRANCH  13  14
ENDBRANCH   6  13
ENDBRANCH   2   6
ENDBRANCH   1   4
BRANCH   1  17
ATOM     17  N   UNL     1       7.114  -1.971  24.113  0.00  0.00    -0.270 N 
ATOM     18  H   UNL     1       6.791  -1.984  23.153  0.00  0.00    +0.153 HD
ATOM     19  C   UNL     1       8.390  -2.369  24.363  0.00  0.00    +0.401 C 
ATOM     20  O   UNL     1       8.866  -2.497  25.481  0.00  0.00    -0.226 OA
BRANCH  19  21
ATOM     21  O   UNL     1       9.041  -2.584  23.198  0.00  0.00    -0.446 OA
BRANCH  21  22
ATOM     22  C   UNL     1      10.351  -2.009  23.102  0.00  0.00    +0.269 C 
BRANCH  22  23
ATOM     23  C   UNL     1      10.224  -0.511  23.004  0.00  0.00    -0.010 A 
ATOM     24  C   UNL     1      10.671   0.303  24.055  0.00  0.00    +0.007 A 
ATOM     25  C   UNL     1      10.569   1.691  23.966  0.00  0.00    +0.000 A 
ATOM     26  C   UNL     1      10.026   2.280  22.826  0.00  0.00    +0.000 A 
ATOM     27  C   UNL     1       9.583   1.481  21.773  0.00  0.00    +0.000 A 
ATOM     28  C   UNL     1       9.685   0.091  21.860  0.00  0.00    +0.007 A 
ENDBRANCH  22  23
ENDBRANCH  21  22
ENDBRANCH  19  21
ENDBRANCH   1  17
BRANCH   1  29
ATOM     29  C   UNL     1       5.758  -0.175  25.154  0.00  0.00    +0.035 C 
BRANCH  29  30
ATOM     30  C   UNL     1       6.773   0.838  24.579  0.00  0.00    -0.015 C 
ATOM     31  C   UNL     1       7.295   1.731  25.712  0.00  0.00    +0.007 C 
ATOM     32  C   UNL     1       6.197   1.727  23.478  0.00  0.00    +0.007 C 
ENDBRANCH  29  30
ENDBRANCH   1  29
TORSDOF 14
ENDMDL
