MODEL 1
REMARK VINA RESULT:      -5.6      0.000      0.000
REMARK  Name = 
REMARK  13 active torsions:
REMARK  status: ('A' for Active; 'I' for Inactive)
REMARK    1  A    between atoms: C_1  and  C_2
REMARK    2  A    between atoms: N_4  and  C_5
REMARK    3  A    between atoms: C_7  and  O_9
REMARK    4  A    between atoms: C_11  and  C_12
REMARK    5  A    between atoms: C_11  and  C_26
REMARK    6  A    between atoms: C_12  and  C_13
REMARK    7  A    between atoms: C_16  and  C_18
REMARK    8  A    between atoms: C_18  and  O_20
REMARK    9  A    between atoms: C_18  and  C_21
REMARK   10  A    between atoms: C_21  and  O_23
REMARK   11  A    between atoms: C_21  and  C_24
REMARK   12  A    between atoms: C_24  and  O_25
REMARK   13  A    between atoms: C_26  and  O_27
REMARK                            x       y       z     vdW  Elec       q    Type
REMARK                         _______ _______ _______ _____ _____    ______ ____
ROOT
ATOM      1  C   UNL     1       6.966  -1.734  24.915  0.00  0.00    +0.133 C 
ATOM      2  C   UNL     1       8.343  -2.418  25.083  0.00  0.00    +0.173 C 
ATOM      3  O   UNL     1       9.409  -1.429  24.952  0.00  0.00    -0.354 OA
ATOM      4  C   UNL     1       9.432  -0.635  23.740  0.00  0.00    +0.171 C 
ATOM      5  C   UNL     1       8.071   0.057  23.526  0.00  0.00    +0.080 C 
ATOM      6  C   UNL     1       6.917  -0.942  23.591  0.00  0.00    +0.141 C 
ENDROOT
BRANCH   1   9
ATOM      7  C   UNL     1       5.331   0.455  27.586  0.00  0.00    +0.109 C 
ATOM      8  C   UNL     1       5.411  -0.540  26.459  0.00  0.00    +0.210 C 
ATOM      9  N   UNL     1       6.695  -0.845  26.063  0.00  0.00    -0.308 N 
ATOM     10  H   UNL     1       7.464  -0.302  26.442  0.00  0.00    +0.149 HD
ATOM     11  O   UNL     1       4.413  -1.015  25.927  0.00  0.00    -0.276 OA
ENDBRANCH   1   9
BRANCH   4  12
ATOM     12  C   UNL     1      10.002  -1.414  22.513  0.00  0.00    +0.337 C 
ATOM     13  O   UNL     1      10.917  -2.224  22.612  0.00  0.00    -0.248 OA
BRANCH  12  14
ATOM     14  O   UNL     1       9.437  -1.169  21.309  0.00  0.00    -0.479 OA
ATOM     15  H   UNL     1       8.938  -1.937  20.938  0.00  0.00    +0.295 HD
ENDBRANCH  12  14
ENDBRANCH   4  12
BRANCH   6  16
ATOM     16  O   UNL     1       7.018  -1.789  22.444  0.00  0.00    -0.390 OA
ATOM     17  H   UNL     1       7.786  -1.467  21.912  0.00  0.00    +0.210 HD
ENDBRANCH   6  16
BRANCH   2  18
ATOM     18  C   UNL     1       8.677  -3.675  24.229  0.00  0.00    +0.176 C 
BRANCH  18  19
ATOM     19  O   UNL     1       9.999  -4.116  24.602  0.00  0.00    -0.387 OA
ATOM     20  H   UNL     1      10.535  -4.074  23.782  0.00  0.00    +0.210 HD
ENDBRANCH  18  19
BRANCH  18  21
ATOM     21  C   UNL     1       7.729  -4.892  24.251  0.00  0.00    +0.171 C 
BRANCH  21  22
ATOM     22  O   UNL     1       6.631  -4.683  23.357  0.00  0.00    -0.387 OA
ATOM     23  H   UNL     1       6.895  -5.087  22.506  0.00  0.00    +0.210 HD
ENDBRANCH  21  22
BRANCH  21  24
ATOM     24  C   UNL     1       7.239  -5.310  25.643  0.00  0.00    +0.189 C 
BRANCH  24  25
ATOM     25  O   UNL     1       8.278  -5.819  26.465  0.00  0.00    -0.392 OA
ATOM     26  H   UNL     1       9.083  -5.911  25.912  0.00  0.00    +0.210 HD
ENDBRANCH  24  25
ENDBRANCH  21  24
ENDBRANCH  18  21
ENDBRANCH   2  18
BRANCH   4  27
ATOM     27  C   UNL     1      10.543   0.453  23.936  0.00  0.00    +0.073 C 
BRANCH  27  28
ATOM     28  C   UNL     1      10.071   1.876  24.078  0.00  0.00    -0.031 C 
ATOM     29  C   UNL     1      10.585   2.902  23.387  0.00  0.00    +0.004 C 
ENDBRANCH  27  28
ENDBRANCH   4  27
TORSDOF 12
ENDMDL
MODEL 2
REMARK VINA RESULT:      -5.6      2.307      5.582
REMARK  Name = 
REMARK  13 active torsions:
REMARK  status: ('A' for Active; 'I' for Inactive)
REMARK    1  A    between atoms: C_1  and  C_2
REMARK    2  A    between atoms: N_4  and  C_5
REMARK    3  A    between atoms: C_7  and  O_9
REMARK    4  A    between atoms: C_11  and  C_12
REMARK    5  A    between atoms: C_11  and  C_26
REMARK    6  A    between atoms: C_12  and  C_13
REMARK    7  A    between atoms: C_16  and  C_18
REMARK    8  A    between atoms: C_18  and  O_20
REMARK    9  A    between atoms: C_18  and  C_21
REMARK   10  A    between atoms: C_21  and  O_23
REMARK   11  A    between atoms: C_21  and  C_24
REMARK   12  A    between atoms: C_24  and  O_25
REMARK   13  A    between atoms: C_26  and  O_27
REMARK                            x       y       z     vdW  Elec       q    Type
REMARK                         _______ _______ _______ _____ _____    ______ ____
ROOT
ATOM      1  C   UNL     1       7.265  -2.411  22.680  0.00  0.00    +0.133 C 
ATOM      2  C   UNL     1       8.655  -1.938  23.164  0.00  0.00    +0.173 C 
ATOM      3  O   UNL     1       8.929  -2.477  24.493  0.00  0.00    -0.354 OA
ATOM      4  C   UNL     1       7.959  -2.203  25.534  0.00  0.00    +0.171 C 
ATOM      5  C   UNL     1       6.552  -2.649  25.087  0.00  0.00    +0.080 C 
ATOM      6  C   UNL     1       6.184  -2.064  23.725  0.00  0.00    +0.141 C 
ENDROOT
BRANCH   1   9
ATOM      7  C   UNL     1       6.517  -5.956  21.464  0.00  0.00    +0.109 C 
ATOM      8  C   UNL     1       6.410  -4.457  21.531  0.00  0.00    +0.210 C 
ATOM      9  N   UNL     1       7.285  -3.865  22.417  0.00  0.00    -0.308 N 
ATOM     10  H   UNL     1       7.822  -4.459  23.040  0.00  0.00    +0.149 HD
ATOM     11  O   UNL     1       5.595  -3.823  20.869  0.00  0.00    -0.276 OA
ENDBRANCH   1   9
BRANCH   4  12
ATOM     12  C   UNL     1       8.067  -0.751  26.099  0.00  0.00    +0.337 C 
ATOM     13  O   UNL     1       7.083  -0.051  26.311  0.00  0.00    -0.248 OA
BRANCH  12  14
ATOM     14  O   UNL     1       9.307  -0.281  26.360  0.00  0.00    -0.479 OA
ATOM     15  H   UNL     1       9.805  -0.816  27.025  0.00  0.00    +0.295 HD
ENDBRANCH  12  14
ENDBRANCH   4  12
BRANCH   6  16
ATOM     16  O   UNL     1       6.022  -0.654  23.894  0.00  0.00    -0.390 OA
ATOM     17  H   UNL     1       6.079  -0.246  22.997  0.00  0.00    +0.210 HD
ENDBRANCH   6  16
BRANCH   2  18
ATOM     18  C   UNL     1       8.997  -0.420  23.126  0.00  0.00    +0.176 C 
BRANCH  18  19
ATOM     19  O   UNL     1      10.392  -0.280  23.462  0.00  0.00    -0.387 OA
ATOM     20  H   UNL     1      10.644   0.627  23.185  0.00  0.00    +0.210 HD
ENDBRANCH  18  19
BRANCH  18  21
ATOM     21  C   UNL     1       8.714   0.398  21.849  0.00  0.00    +0.171 C 
BRANCH  21  22
ATOM     22  O   UNL     1       9.396  -0.177  20.729  0.00  0.00    -0.387 OA
ATOM     23  H   UNL     1      10.119   0.443  20.505  0.00  0.00    +0.210 HD
ENDBRANCH  21  22
BRANCH  21  24
ATOM     24  C   UNL     1       9.001   1.901  21.961  0.00  0.00    +0.189 C 
BRANCH  24  25
ATOM     25  O   UNL     1      10.344   2.232  21.643  0.00  0.00    -0.392 OA
ATOM     26  H   UNL     1      10.734   2.691  22.418  0.00  0.00    +0.210 HD
ENDBRANCH  24  25
ENDBRANCH  21  24
ENDBRANCH  18  21
ENDBRANCH   2  18
BRANCH   4  27
ATOM     27  C   UNL     1       8.395  -3.037  26.786  0.00  0.00    +0.073 C 
BRANCH  27  28
ATOM     28  C   UNL     1       8.519  -4.525  26.592  0.00  0.00    -0.031 C 
ATOM     29  C   UNL     1       7.644  -5.414  27.081  0.00  0.00    +0.004 C 
ENDBRANCH  27  28
ENDBRANCH   4  27
TORSDOF 12
ENDMDL
MODEL 3
REMARK VINA RESULT:      -5.4      2.477      5.460
REMARK  Name = 
REMARK  13 active torsions:
REMARK  status: ('A' for Active; 'I' for Inactive)
REMARK    1  A    between atoms: C_1  and  C_2
REMARK    2  A    between atoms: N_4  and  C_5
REMARK    3  A    between atoms: C_7  and  O_9
REMARK    4  A    between atoms: C_11  and  C_12
REMARK    5  A    between atoms: C_11  and  C_26
REMARK    6  A    between atoms: C_12  and  C_13
REMARK    7  A    between atoms: C_16  and  C_18
REMARK    8  A    between atoms: C_18  and  O_20
REMARK    9  A    between atoms: C_18  and  C_21
REMARK   10  A    between atoms: C_21  and  O_23
REMARK   11  A    between atoms: C_21  and  C_24
REMARK   12  A    between atoms: C_24  and  O_25
REMARK   13  A    between atoms: C_26  and  O_27
REMARK                            x       y       z     vdW  Elec       q    Type
REMARK                         _______ _______ _______ _____ _____    ______ ____
ROOT
ATOM      1  C   UNL     1       8.518   0.984  24.993  0.00  0.00    +0.133 C 
ATOM      2  C   UNL     1       8.283   1.211  23.482  0.00  0.00    +0.173 C 
ATOM      3  O   UNL     1       7.697   0.015  22.884  0.00  0.00    -0.354 OA
ATOM      4  C   UNL     1       8.413  -1.233  23.058  0.00  0.00    +0.171 C 
ATOM      5  C   UNL     1       8.681  -1.494  24.554  0.00  0.00    +0.080 C 
ATOM      6  C   UNL     1       9.352  -0.295  25.221  0.00  0.00    +0.141 C 
ENDROOT
BRANCH   1   9
ATOM      7  C   UNL     1       5.483   1.599  27.231  0.00  0.00    +0.109 C 
ATOM      8  C   UNL     1       6.773   1.908  26.521  0.00  0.00    +0.210 C 
ATOM      9  N   UNL     1       7.226   0.895  25.703  0.00  0.00    -0.308 N 
ATOM     10  H   UNL     1       6.757  -0.005  25.737  0.00  0.00    +0.149 HD
ATOM     11  O   UNL     1       7.378   2.963  26.679  0.00  0.00    -0.276 OA
ENDBRANCH   1   9
BRANCH   4  12
ATOM     12  C   UNL     1       9.648  -1.363  22.111  0.00  0.00    +0.337 C 
ATOM     13  O   UNL     1      10.708  -1.860  22.473  0.00  0.00    -0.248 OA
BRANCH  12  14
ATOM     14  O   UNL     1       9.507  -0.904  20.846  0.00  0.00    -0.479 OA
ATOM     15  H   UNL     1      10.071  -1.376  20.186  0.00  0.00    +0.295 HD
ENDBRANCH  12  14
ENDBRANCH   4  12
BRANCH   6  16
ATOM     16  O   UNL     1      10.672  -0.189  24.684  0.00  0.00    -0.390 OA
ATOM     17  H   UNL     1      10.661   0.552  24.031  0.00  0.00    +0.210 HD
ENDBRANCH   6  16
BRANCH   2  18
ATOM     18  C   UNL     1       9.457   1.726  22.599  0.00  0.00    +0.176 C 
BRANCH  18  19
ATOM     19  O   UNL     1       8.921   2.018  21.291  0.00  0.00    -0.387 OA
ATOM     20  H   UNL     1       8.893   1.160  20.817  0.00  0.00    +0.210 HD
ENDBRANCH  18  19
BRANCH  18  21
ATOM     21  C   UNL     1      10.297   2.932  23.066  0.00  0.00    +0.171 C 
BRANCH  21  22
ATOM     22  O   UNL     1      11.359   2.496  23.921  0.00  0.00    -0.387 OA
ATOM     23  H   UNL     1      11.126   2.804  24.820  0.00  0.00    +0.210 HD
ENDBRANCH  21  22
BRANCH  21  24
ATOM     24  C   UNL     1       9.498   4.072  23.711  0.00  0.00    +0.189 C 
BRANCH  24  25
ATOM     25  O   UNL     1       8.593   4.692  22.809  0.00  0.00    -0.392 OA
ATOM     26  H   UNL     1       8.132   5.411  23.292  0.00  0.00    +0.210 HD
ENDBRANCH  24  25
ENDBRANCH  21  24
ENDBRANCH  18  21
ENDBRANCH   2  18
BRANCH   4  27
ATOM     27  C   UNL     1       7.490  -2.364  22.490  0.00  0.00    +0.073 C 
BRANCH  27  28
ATOM     28  C   UNL     1       7.726  -3.754  23.021  0.00  0.00    -0.031 C 
ATOM     29  C   UNL     1       7.203  -4.858  22.473  0.00  0.00    +0.004 C 
ENDBRANCH  27  28
ENDBRANCH   4  27
TORSDOF 12
ENDMDL
MODEL 4
REMARK VINA RESULT:      -5.2      2.176      4.266
REMARK  Name = 
REMARK  13 active torsions:
REMARK  status: ('A' for Active; 'I' for Inactive)
REMARK    1  A    between atoms: C_1  and  C_2
REMARK    2  A    between atoms: N_4  and  C_5
REMARK    3  A    between atoms: C_7  and  O_9
REMARK    4  A    between atoms: C_11  and  C_12
REMARK    5  A    between atoms: C_11  and  C_26
REMARK    6  A    between atoms: C_12  and  C_13
REMARK    7  A    between atoms: C_16  and  C_18
REMARK    8  A    between atoms: C_18  and  O_20
REMARK    9  A    between atoms: C_18  and  C_21
REMARK   10  A    between atoms: C_21  and  O_23
REMARK   11  A    between atoms: C_21  and  C_24
REMARK   12  A    between atoms: C_24  and  O_25
REMARK   13  A    between atoms: C_26  and  O_27
REMARK                            x       y       z     vdW  Elec       q    Type
REMARK                         _______ _______ _______ _____ _____    ______ ____
ROOT
ATOM      1  C   UNL     1       7.434  -3.334  24.259  0.00  0.00    +0.133 C 
ATOM      2  C   UNL     1       6.793  -1.973  23.902  0.00  0.00    +0.173 C 
ATOM      3  O   UNL     1       7.735  -1.166  23.133  0.00  0.00    -0.354 OA
ATOM      4  C   UNL     1       9.037  -0.923  23.721  0.00  0.00    +0.171 C 
ATOM      5  C   UNL     1       9.709  -2.257  24.104  0.00  0.00    +0.080 C 
ATOM      6  C   UNL     1       8.790  -3.121  24.965  0.00  0.00    +0.141 C 
ENDROOT
BRANCH   1   9
ATOM      7  C   UNL     1       7.148  -5.973  21.509  0.00  0.00    +0.109 C 
ATOM      8  C   UNL     1       6.761  -5.198  22.740  0.00  0.00    +0.210 C 
ATOM      9  N   UNL     1       7.606  -4.152  23.040  0.00  0.00    -0.308 N 
ATOM     10  H   UNL     1       8.472  -4.060  22.519  0.00  0.00    +0.149 HD
ATOM     11  O   UNL     1       5.788  -5.492  23.426  0.00  0.00    -0.276 OA
ENDBRANCH   1   9
BRANCH   4  12
ATOM     12  C   UNL     1       9.007   0.171  24.836  0.00  0.00    +0.337 C 
ATOM     13  O   UNL     1       8.268   1.147  24.782  0.00  0.00    -0.248 OA
BRANCH  12  14
ATOM     14  O   UNL     1       9.836   0.000  25.890  0.00  0.00    -0.479 OA
ATOM     15  H   UNL     1       9.867  -0.928  26.227  0.00  0.00    +0.295 HD
ENDBRANCH  12  14
ENDBRANCH   4  12
BRANCH   6  16
ATOM     16  O   UNL     1       8.650  -2.471  26.230  0.00  0.00    -0.390 OA
ATOM     17  H   UNL     1       7.975  -2.977  26.743  0.00  0.00    +0.210 HD
ENDBRANCH   6  16
BRANCH   2  18
ATOM     18  C   UNL     1       6.156  -1.113  25.032  0.00  0.00    +0.176 C 
BRANCH  18  19
ATOM     19  O   UNL     1       5.525   0.025  24.410  0.00  0.00    -0.387 OA
ATOM     20  H   UNL     1       6.030   0.809  24.715  0.00  0.00    +0.210 HD
ENDBRANCH  18  19
BRANCH  18  21
ATOM     21  C   UNL     1       5.154  -1.756  26.012  0.00  0.00    +0.171 C 
BRANCH  21  22
ATOM     22  O   UNL     1       5.846  -2.332  27.126  0.00  0.00    -0.387 OA
ATOM     23  H   UNL     1       6.765  -2.001  27.073  0.00  0.00    +0.210 HD
ENDBRANCH  21  22
BRANCH  21  24
ATOM     24  C   UNL     1       4.181  -2.762  25.383  0.00  0.00    +0.189 C 
BRANCH  24  25
ATOM     25  O   UNL     1       4.418  -4.097  25.805  0.00  0.00    -0.392 OA
ATOM     26  H   UNL     1       5.039  -4.510  25.167  0.00  0.00    +0.210 HD
ENDBRANCH  24  25
ENDBRANCH  21  24
ENDBRANCH  18  21
ENDBRANCH   2  18
BRANCH   4  27
ATOM     27  C   UNL     1       9.897  -0.203  22.628  0.00  0.00    +0.073 C 
BRANCH  27  28
ATOM     28  C   UNL     1       9.148   0.374  21.456  0.00  0.00    -0.031 C 
ATOM     29  C   UNL     1       8.715   1.641  21.401  0.00  0.00    +0.004 C 
ENDBRANCH  27  28
ENDBRANCH   4  27
TORSDOF 12
ENDMDL
MODEL 5
REMARK VINA RESULT:      -5.0      2.259      3.194
REMARK  Name = 
REMARK  13 active torsions:
REMARK  status: ('A' for Active; 'I' for Inactive)
REMARK    1  A    between atoms: C_1  and  C_2
REMARK    2  A    between atoms: N_4  and  C_5
REMARK    3  A    between atoms: C_7  and  O_9
REMARK    4  A    between atoms: C_11  and  C_12
REMARK    5  A    between atoms: C_11  and  C_26
REMARK    6  A    between atoms: C_12  and  C_13
REMARK    7  A    between atoms: C_16  and  C_18
REMARK    8  A    between atoms: C_18  and  O_20
REMARK    9  A    between atoms: C_18  and  C_21
REMARK   10  A    between atoms: C_21  and  O_23
REMARK   11  A    between atoms: C_21  and  C_24
REMARK   12  A    between atoms: C_24  and  O_25
REMARK   13  A    between atoms: C_26  and  O_27
REMARK                            x       y       z     vdW  Elec       q    Type
REMARK                         _______ _______ _______ _____ _____    ______ ____
ROOT
ATOM      1  C   UNL     1       7.599   0.328  25.299  0.00  0.00    +0.133 C 
ATOM      2  C   UNL     1       8.940   0.142  24.551  0.00  0.00    +0.173 C 
ATOM      3  O   UNL     1       9.587   1.437  24.359  0.00  0.00    -0.354 OA
ATOM      4  C   UNL     1       8.822   2.469  23.688  0.00  0.00    +0.171 C 
ATOM      5  C   UNL     1       7.468   2.679  24.396  0.00  0.00    +0.080 C 
ATOM      6  C   UNL     1       6.715   1.361  24.569  0.00  0.00    +0.141 C 
ENDROOT
BRANCH   1   9
ATOM      7  C   UNL     1       7.334   1.060  29.040  0.00  0.00    +0.109 C 
ATOM      8  C   UNL     1       6.957   0.471  27.707  0.00  0.00    +0.210 C 
ATOM      9  N   UNL     1       7.848   0.749  26.693  0.00  0.00    -0.308 N 
ATOM     10  H   UNL     1       8.592   1.417  26.868  0.00  0.00    +0.149 HD
ATOM     11  O   UNL     1       5.931  -0.179  27.539  0.00  0.00    -0.276 OA
ENDBRANCH   1   9
BRANCH   4  12
ATOM     12  C   UNL     1       8.759   2.270  22.140  0.00  0.00    +0.337 C 
ATOM     13  O   UNL     1       7.717   2.374  21.504  0.00  0.00    -0.248 OA
BRANCH  12  14
ATOM     14  O   UNL     1       9.918   1.979  21.508  0.00  0.00    -0.479 OA
ATOM     15  H   UNL     1      10.258   2.713  20.940  0.00  0.00    +0.295 HD
ENDBRANCH  12  14
ENDBRANCH   4  12
BRANCH   6  16
ATOM     16  O   UNL     1       6.319   0.920  23.269  0.00  0.00    -0.390 OA
ATOM     17  H   UNL     1       7.118   0.528  22.840  0.00  0.00    +0.210 HD
ENDBRANCH   6  16
BRANCH   2  18
ATOM     18  C   UNL     1       8.962  -0.664  23.219  0.00  0.00    +0.176 C 
BRANCH  18  19
ATOM     19  O   UNL     1      10.336  -0.761  22.793  0.00  0.00    -0.387 OA
ATOM     20  H   UNL     1      10.773   0.056  23.113  0.00  0.00    +0.210 HD
ENDBRANCH  18  19
BRANCH  18  21
ATOM     21  C   UNL     1       8.330  -2.070  23.164  0.00  0.00    +0.171 C 
BRANCH  21  22
ATOM     22  O   UNL     1       6.905  -1.971  23.060  0.00  0.00    -0.387 OA
ATOM     23  H   UNL     1       6.722  -1.639  22.158  0.00  0.00    +0.210 HD
ENDBRANCH  21  22
BRANCH  21  24
ATOM     24  C   UNL     1       8.739  -3.014  24.301  0.00  0.00    +0.189 C 
BRANCH  24  25
ATOM     25  O   UNL     1      10.078  -3.470  24.187  0.00  0.00    -0.392 OA
ATOM     26  H   UNL     1      10.670  -2.749  24.495  0.00  0.00    +0.210 HD
ENDBRANCH  24  25
ENDBRANCH  21  24
ENDBRANCH  18  21
ENDBRANCH   2  18
BRANCH   4  27
ATOM     27  C   UNL     1       9.666   3.785  23.779  0.00  0.00    +0.073 C 
BRANCH  27  28
ATOM     28  C   UNL     1       8.915   5.041  24.138  0.00  0.00    -0.031 C 
ATOM     29  C   UNL     1       9.328   5.914  25.066  0.00  0.00    +0.004 C 
ENDBRANCH  27  28
ENDBRANCH   4  27
TORSDOF 12
ENDMDL
MODEL 6
REMARK VINA RESULT:      -5.0      2.458      5.372
REMARK  Name = 
REMARK  13 active torsions:
REMARK  status: ('A' for Active; 'I' for Inactive)
REMARK    1  A    between atoms: C_1  and  C_2
REMARK    2  A    between atoms: N_4  and  C_5
REMARK    3  A    between atoms: C_7  and  O_9
REMARK    4  A    between atoms: C_11  and  C_12
REMARK    5  A    between atoms: C_11  and  C_26
REMARK    6  A    between atoms: C_12  and  C_13
REMARK    7  A    between atoms: C_16  and  C_18
REMARK    8  A    between atoms: C_18  and  O_20
REMARK    9  A    between atoms: C_18  and  C_21
REMARK   10  A    between atoms: C_21  and  O_23
REMARK   11  A    between atoms: C_21  and  C_24
REMARK   12  A    between atoms: C_24  and  O_25
REMARK   13  A    between atoms: C_26  and  O_27
REMARK                            x       y       z     vdW  Elec       q    Type
REMARK                         _______ _______ _______ _____ _____    ______ ____
ROOT
ATOM      1  C   UNL     1       7.337   0.934  23.888  0.00  0.00    +0.133 C 
ATOM      2  C   UNL     1       8.000   0.042  22.814  0.00  0.00    +0.173 C 
ATOM      3  O   UNL     1       7.205  -1.165  22.608  0.00  0.00    -0.354 OA
ATOM      4  C   UNL     1       6.921  -1.979  23.773  0.00  0.00    +0.171 C 
ATOM      5  C   UNL     1       6.267  -1.124  24.878  0.00  0.00    +0.080 C 
ATOM      6  C   UNL     1       7.090   0.126  25.180  0.00  0.00    +0.141 C 
ENDROOT
BRANCH   1   9
ATOM      7  C   UNL     1       4.646   3.113  22.271  0.00  0.00    +0.109 C 
ATOM      8  C   UNL     1       6.033   2.647  22.624  0.00  0.00    +0.210 C 
ATOM      9  N   UNL     1       6.069   1.492  23.375  0.00  0.00    -0.308 N 
ATOM     10  H   UNL     1       5.198   1.123  23.743  0.00  0.00    +0.149 HD
ATOM     11  O   UNL     1       7.040   3.261  22.290  0.00  0.00    -0.276 OA
ENDBRANCH   1   9
BRANCH   4  12
ATOM     12  C   UNL     1       8.137  -2.853  24.217  0.00  0.00    +0.337 C 
ATOM     13  O   UNL     1       8.954  -3.300  23.419  0.00  0.00    -0.248 OA
BRANCH  12  14
ATOM     14  O   UNL     1       8.268  -3.103  25.539  0.00  0.00    -0.479 OA
ATOM     15  H   UNL     1       8.350  -4.063  25.758  0.00  0.00    +0.295 HD
ENDBRANCH  12  14
ENDBRANCH   4  12
BRANCH   6  16
ATOM     16  O   UNL     1       8.307  -0.300  25.797  0.00  0.00    -0.390 OA
ATOM     17  H   UNL     1       8.969   0.420  25.662  0.00  0.00    +0.210 HD
ENDBRANCH   6  16
BRANCH   2  18
ATOM     18  C   UNL     1       9.504  -0.331  22.959  0.00  0.00    +0.176 C 
BRANCH  18  19
ATOM     19  O   UNL     1       9.930  -0.916  21.711  0.00  0.00    -0.387 OA
ATOM     20  H   UNL     1       9.253  -1.591  21.488  0.00  0.00    +0.210 HD
ENDBRANCH  18  19
BRANCH  18  21
ATOM     21  C   UNL     1      10.526   0.749  23.368  0.00  0.00    +0.171 C 
BRANCH  21  22
ATOM     22  O   UNL     1      10.738   0.721  24.784  0.00  0.00    -0.387 OA
ATOM     23  H   UNL     1       9.850   0.780  25.191  0.00  0.00    +0.210 HD
ENDBRANCH  21  22
BRANCH  21  24
ATOM     24  C   UNL     1      10.205   2.168  22.883  0.00  0.00    +0.189 C 
BRANCH  24  25
ATOM     25  O   UNL     1       9.967   2.233  21.485  0.00  0.00    -0.392 OA
ATOM     26  H   UNL     1       9.741   3.162  21.260  0.00  0.00    +0.210 HD
ENDBRANCH  24  25
ENDBRANCH  21  24
ENDBRANCH  18  21
ENDBRANCH   2  18
BRANCH   4  27
ATOM     27  C   UNL     1       5.916  -3.089  23.312  0.00  0.00    +0.073 C 
BRANCH  27  28
ATOM     28  C   UNL     1       6.005  -3.519  21.872  0.00  0.00    -0.031 C 
ATOM     29  C   UNL     1       6.333  -4.759  21.485  0.00  0.00    +0.004 C 
ENDBRANCH  27  28
ENDBRANCH   4  27
TORSDOF 12
ENDMDL
MODEL 7
REMARK VINA RESULT:      -5.0      3.879      6.833
REMARK  Name = 
REMARK  13 active torsions:
REMARK  status: ('A' for Active; 'I' for Inactive)
REMARK    1  A    between atoms: C_1  and  C_2
REMARK    2  A    between atoms: N_4  and  C_5
REMARK    3  A    between atoms: C_7  and  O_9
REMARK    4  A    between atoms: C_11  and  C_12
REMARK    5  A    between atoms: C_11  and  C_26
REMARK    6  A    between atoms: C_12  and  C_13
REMARK    7  A    between atoms: C_16  and  C_18
REMARK    8  A    between atoms: C_18  and  O_20
REMARK    9  A    between atoms: C_18  and  C_21
REMARK   10  A    between atoms: C_21  and  O_23
REMARK   11  A    between atoms: C_21  and  C_24
REMARK   12  A    between atoms: C_24  and  O_25
REMARK   13  A    between atoms: C_26  and  O_27
REMARK                            x       y       z     vdW  Elec       q    Type
REMARK                         _______ _______ _______ _____ _____    ______ ____
ROOT
ATOM      1  C   UNL     1       6.383  -4.166  24.421  0.00  0.00    +0.133 C 
ATOM      2  C   UNL     1       6.718  -5.251  25.471  0.00  0.00    +0.173 C 
ATOM      3  O   UNL     1       5.496  -5.935  25.886  0.00  0.00    -0.354 OA
ATOM      4  C   UNL     1       4.417  -5.115  26.397  0.00  0.00    +0.171 C 
ATOM      5  C   UNL     1       4.058  -4.009  25.384  0.00  0.00    +0.080 C 
ATOM      6  C   UNL     1       5.292  -3.216  24.959  0.00  0.00    +0.141 C 
ENDROOT
BRANCH   1   9
ATOM      7  C   UNL     1       6.217  -5.988  21.066  0.00  0.00    +0.109 C 
ATOM      8  C   UNL     1       6.819  -5.500  22.357  0.00  0.00    +0.210 C 
ATOM      9  N   UNL     1       5.947  -4.796  23.158  0.00  0.00    -0.308 N 
ATOM     10  H   UNL     1       5.038  -4.543  22.784  0.00  0.00    +0.149 HD
ATOM     11  O   UNL     1       7.993  -5.695  22.652  0.00  0.00    -0.276 OA
ENDBRANCH   1   9
BRANCH   4  12
ATOM     12  C   UNL     1       4.654  -4.643  27.867  0.00  0.00    +0.337 C 
ATOM     13  O   UNL     1       4.439  -3.494  28.234  0.00  0.00    -0.248 OA
BRANCH  12  14
ATOM     14  O   UNL     1       5.108  -5.566  28.745  0.00  0.00    -0.479 OA
ATOM     15  H   UNL     1       5.361  -6.424  28.327  0.00  0.00    +0.295 HD
ENDBRANCH  12  14
ENDBRANCH   4  12
BRANCH   6  16
ATOM     16  O   UNL     1       5.732  -2.466  26.093  0.00  0.00    -0.390 OA
ATOM     17  H   UNL     1       5.131  -2.694  26.843  0.00  0.00    +0.210 HD
ENDBRANCH   6  16
BRANCH   2  18
ATOM     18  C   UNL     1       7.561  -4.865  26.721  0.00  0.00    +0.176 C 
BRANCH  18  19
ATOM     19  O   UNL     1       7.798  -6.072  27.474  0.00  0.00    -0.387 OA
ATOM     20  H   UNL     1       6.998  -6.626  27.350  0.00  0.00    +0.210 HD
ENDBRANCH  18  19
BRANCH  18  21
ATOM     21  C   UNL     1       8.902  -4.126  26.542  0.00  0.00    +0.171 C 
BRANCH  21  22
ATOM     22  O   UNL     1       8.691  -2.709  26.528  0.00  0.00    -0.387 OA
ATOM     23  H   UNL     1       9.304  -2.351  25.855  0.00  0.00    +0.210 HD
ENDBRANCH  21  22
BRANCH  21  24
ATOM     24  C   UNL     1       9.738  -4.574  25.336  0.00  0.00    +0.189 C 
BRANCH  24  25
ATOM     25  O   UNL     1       9.879  -5.984  25.255  0.00  0.00    -0.392 OA
ATOM     26  H   UNL     1       9.842  -6.344  26.168  0.00  0.00    +0.210 HD
ENDBRANCH  24  25
ENDBRANCH  21  24
ENDBRANCH  18  21
ENDBRANCH   2  18
BRANCH   4  27
ATOM     27  C   UNL     1       3.184  -6.062  26.590  0.00  0.00    +0.073 C 
BRANCH  27  28
ATOM     28  C   UNL     1       3.164  -7.317  25.756  0.00  0.00    -0.031 C 
ATOM     29  C   UNL     1       2.602  -7.395  24.543  0.00  0.00    +0.004 C 
ENDBRANCH  27  28
ENDBRANCH   4  27
TORSDOF 12
ENDMDL
MODEL 8
REMARK VINA RESULT:      -4.9      2.237      5.191
REMARK  Name = 
REMARK  13 active torsions:
REMARK  status: ('A' for Active; 'I' for Inactive)
REMARK    1  A    between atoms: C_1  and  C_2
REMARK    2  A    between atoms: N_4  and  C_5
REMARK    3  A    between atoms: C_7  and  O_9
REMARK    4  A    between atoms: C_11  and  C_12
REMARK    5  A    between atoms: C_11  and  C_26
REMARK    6  A    between atoms: C_12  and  C_13
REMARK    7  A    between atoms: C_16  and  C_18
REMARK    8  A    between atoms: C_18  and  O_20
REMARK    9  A    between atoms: C_18  and  C_21
REMARK   10  A    between atoms: C_21  and  O_23
REMARK   11  A    between atoms: C_21  and  C_24
REMARK   12  A    between atoms: C_24  and  O_25
REMARK   13  A    between atoms: C_26  and  O_27
REMARK                            x       y       z     vdW  Elec       q    Type
REMARK                         _______ _______ _______ _____ _____    ______ ____
ROOT
ATOM      1  C   UNL     1       8.020  -1.492  24.059  0.00  0.00    +0.133 C 
ATOM      2  C   UNL     1       8.623  -0.160  24.560  0.00  0.00    +0.173 C 
ATOM      3  O   UNL     1       7.857   0.335  25.701  0.00  0.00    -0.354 OA
ATOM      4  C   UNL     1       6.431   0.513  25.515  0.00  0.00    +0.171 C 
ATOM      5  C   UNL     1       5.789  -0.791  25.002  0.00  0.00    +0.080 C 
ATOM      6  C   UNL     1       6.513  -1.325  23.768  0.00  0.00    +0.141 C 
ENDROOT
BRANCH   1   9
ATOM      7  C   UNL     1       9.276  -4.542  25.989  0.00  0.00    +0.109 C 
ATOM      8  C   UNL     1       9.265  -3.474  24.928  0.00  0.00    +0.210 C 
ATOM      9  N   UNL     1       8.241  -2.559  25.056  0.00  0.00    -0.308 N 
ATOM     10  H   UNL     1       7.513  -2.736  25.741  0.00  0.00    +0.149 HD
ATOM     11  O   UNL     1      10.085  -3.440  24.018  0.00  0.00    -0.276 OA
ENDBRANCH   1   9
BRANCH   4  12
ATOM     12  C   UNL     1       6.078   1.808  24.715  0.00  0.00    +0.337 C 
ATOM     13  O   UNL     1       6.696   2.857  24.853  0.00  0.00    -0.248 OA
BRANCH  12  14
ATOM     14  O   UNL     1       5.051   1.731  23.839  0.00  0.00    -0.479 OA
ATOM     15  H   UNL     1       4.398   1.021  24.051  0.00  0.00    +0.295 HD
ENDBRANCH  12  14
ENDBRANCH   4  12
BRANCH   6  16
ATOM     16  O   UNL     1       6.262  -0.414  22.696  0.00  0.00    -0.390 OA
ATOM     17  H   UNL     1       6.933  -0.598  21.995  0.00  0.00    +0.210 HD
ENDBRANCH   6  16
BRANCH   2  18
ATOM     18  C   UNL     1       8.868   0.994  23.545  0.00  0.00    +0.176 C 
BRANCH  18  19
ATOM     19  O   UNL     1       9.313   2.144  24.293  0.00  0.00    -0.387 OA
ATOM     20  H   UNL     1       8.842   2.102  25.152  0.00  0.00    +0.210 HD
ENDBRANCH  18  19
BRANCH  18  21
ATOM     21  C   UNL     1       9.828   0.779  22.357  0.00  0.00    +0.171 C 
BRANCH  21  22
ATOM     22  O   UNL     1       9.998   2.000  21.628  0.00  0.00    -0.387 OA
ATOM     23  H   UNL     1       9.234   2.564  21.863  0.00  0.00    +0.210 HD
ENDBRANCH  21  22
BRANCH  21  24
ATOM     24  C   UNL     1       9.457  -0.379  21.421  0.00  0.00    +0.189 C 
BRANCH  24  25
ATOM     25  O   UNL     1      10.299  -1.510  21.581  0.00  0.00    -0.392 OA
ATOM     26  H   UNL     1      10.453  -1.900  20.693  0.00  0.00    +0.210 HD
ENDBRANCH  24  25
ENDBRANCH  21  24
ENDBRANCH  18  21
ENDBRANCH   2  18
BRANCH   4  27
ATOM     27  C   UNL     1       5.835   0.868  26.920  0.00  0.00    +0.073 C 
BRANCH  27  28
ATOM     28  C   UNL     1       6.819   1.290  27.980  0.00  0.00    -0.031 C 
ATOM     29  C   UNL     1       6.901   2.537  28.464  0.00  0.00    +0.004 C 
ENDBRANCH  27  28
ENDBRANCH   4  27
TORSDOF 12
ENDMDL
MODEL 9
REMARK VINA RESULT:      -4.9      2.110      4.731
REMARK  Name = 
REMARK  13 active torsions:
REMARK  status: ('A' for Active; 'I' for Inactive)
REMARK    1  A    between atoms: C_1  and  C_2
REMARK    2  A    between atoms: N_4  and  C_5
REMARK    3  A    between atoms: C_7  and  O_9
REMARK    4  A    between atoms: C_11  and  C_12
REMARK    5  A    between atoms: C_11  and  C_26
REMARK    6  A    between atoms: C_12  and  C_13
REMARK    7  A    between atoms: C_16  and  C_18
REMARK    8  A    between atoms: C_18  and  O_20
REMARK    9  A    between atoms: C_18  and  C_21
REMARK   10  A    between atoms: C_21  and  O_23
REMARK   11  A    between atoms: C_21  and  C_24
REMARK   12  A    between atoms: C_24  and  O_25
REMARK   13  A    between atoms: C_26  and  O_27
REMARK                            x       y       z     vdW  Elec       q    Type
REMARK                         _______ _______ _______ _____ _____    ______ ____
ROOT
ATOM      1  C   UNL     1       8.226  -2.467  22.790  0.00  0.00    +0.133 C 
ATOM      2  C   UNL     1       6.704  -2.649  22.993  0.00  0.00    +0.173 C 
ATOM      3  O   UNL     1       6.299  -2.068  24.269  0.00  0.00    -0.354 OA
ATOM      4  C   UNL     1       6.983  -2.535  25.458  0.00  0.00    +0.171 C 
ATOM      5  C   UNL     1       8.509  -2.384  25.294  0.00  0.00    +0.080 C 
ATOM      6  C   UNL     1       9.001  -3.030  24.001  0.00  0.00    +0.141 C 
ENDROOT
BRANCH   1   9
ATOM      7  C   UNL     1       9.944   0.863  22.043  0.00  0.00    +0.109 C 
ATOM      8  C   UNL     1       9.767  -0.630  22.094  0.00  0.00    +0.210 C 
ATOM      9  N   UNL     1       8.546  -1.040  22.586  0.00  0.00    -0.308 N 
ATOM     10  H   UNL     1       7.928  -0.346  22.994  0.00  0.00    +0.149 HD
ATOM     11  O   UNL     1      10.646  -1.411  21.748  0.00  0.00    -0.276 OA
ENDBRANCH   1   9
BRANCH   4  12
ATOM     12  C   UNL     1       6.484  -3.936  25.936  0.00  0.00    +0.337 C 
ATOM     13  O   UNL     1       7.246  -4.803  26.349  0.00  0.00    -0.248 OA
BRANCH  12  14
ATOM     14  O   UNL     1       5.152  -4.167  25.885  0.00  0.00    -0.479 OA
ATOM     15  H   UNL     1       4.805  -4.674  26.659  0.00  0.00    +0.295 HD
ENDBRANCH  12  14
ENDBRANCH   4  12
BRANCH   6  16
ATOM     16  O   UNL     1       8.843  -4.443  24.140  0.00  0.00    -0.390 OA
ATOM     17  H   UNL     1       7.947  -4.599  24.526  0.00  0.00    +0.210 HD
ENDBRANCH   6  16
BRANCH   2  18
ATOM     18  C   UNL     1       6.079  -4.065  22.832  0.00  0.00    +0.176 C 
BRANCH  18  19
ATOM     19  O   UNL     1       4.647  -3.904  22.767  0.00  0.00    -0.387 OA
ATOM     20  H   UNL     1       4.297  -4.760  22.440  0.00  0.00    +0.210 HD
ENDBRANCH  18  19
BRANCH  18  21
ATOM     21  C   UNL     1       6.525  -4.973  21.668  0.00  0.00    +0.171 C 
BRANCH  21  22
ATOM     22  O   UNL     1       5.848  -4.603  20.462  0.00  0.00    -0.387 OA
ATOM     23  H   UNL     1       5.404  -3.752  20.651  0.00  0.00    +0.210 HD
ENDBRANCH  21  22
BRANCH  21  24
ATOM     24  C   UNL     1       6.405  -6.479  21.932  0.00  0.00    +0.189 C 
BRANCH  24  25
ATOM     25  O   UNL     1       5.452  -6.789  22.937  0.00  0.00    -0.392 OA
ATOM     26  H   UNL     1       4.888  -7.521  22.603  0.00  0.00    +0.210 HD
ENDBRANCH  24  25
ENDBRANCH  21  24
ENDBRANCH  18  21
ENDBRANCH   2  18
BRANCH   4  27
ATOM     27  C   UNL     1       6.495  -1.633  26.642  0.00  0.00    +0.073 C 
BRANCH  27  28
ATOM     28  C   UNL     1       7.217  -0.324  26.830  0.00  0.00    -0.031 C 
ATOM     29  C   UNL     1       6.776   0.844  26.345  0.00  0.00    +0.004 C 
ENDBRANCH  27  28
ENDBRANCH   4  27
TORSDOF 12
ENDMDL
