MODEL 1
REMARK VINA RESULT:      -4.7      0.000      0.000
REMARK  Name = 
REMARK  3 active torsions:
REMARK  status: ('A' for Active; 'I' for Inactive)
REMARK    1  A    between atoms: C_1  and  C_2
REMARK    2  A    between atoms: C_5  and  C_6
REMARK    3  A    between atoms: C_6  and  O_7
REMARK                            x       y       z     vdW  Elec       q    Type
REMARK                         _______ _______ _______ _____ _____    ______ ____
ROOT
ATOM      1  C   UNL     1      10.087  -1.762  22.985  0.00  0.00    +0.088 C 
ATOM      2  C   UNL     1       9.350  -2.706  23.882  0.00  0.00    +0.128 A 
ATOM      3  N   UNL     1      10.024  -3.770  24.350  0.00  0.00    -0.218 NA
ATOM      4  C   UNL     1       9.363  -4.606  25.163  0.00  0.00    +0.125 A 
ATOM      5  N   UNL     1      10.108  -5.702  25.612  0.00  0.00    -0.343 N 
ATOM      6  H   UNL     1      11.051  -5.573  25.246  0.00  0.00    +0.144 HD
ATOM      7  H   UNL     1      10.118  -5.725  26.631  0.00  0.00    +0.144 HD
ATOM      8  C   UNL     1       8.037  -4.434  25.515  0.00  0.00    +0.035 A 
ATOM      9  C   UNL     1       7.445  -3.305  24.978  0.00  0.00    +0.122 A 
ATOM     10  N   UNL     1       8.070  -2.429  24.171  0.00  0.00    -0.240 NA
ENDROOT
BRANCH   8  11
ATOM     11  C   UNL     1       7.217  -5.334  26.391  0.00  0.00    +0.196 C 
BRANCH  11  12
ATOM     12  O   UNL     1       7.890  -5.851  27.532  0.00  0.00    -0.390 OA
ATOM     13  H   UNL     1       8.788  -6.104  27.236  0.00  0.00    +0.210 HD
ENDBRANCH  11  12
ENDBRANCH   8  11
TORSDOF 2
ENDMDL
MODEL 2
REMARK VINA RESULT:      -4.5      2.259      2.570
REMARK  Name = 
REMARK  3 active torsions:
REMARK  status: ('A' for Active; 'I' for Inactive)
REMARK    1  A    between atoms: C_1  and  C_2
REMARK    2  A    between atoms: C_5  and  C_6
REMARK    3  A    between atoms: C_6  and  O_7
REMARK                            x       y       z     vdW  Elec       q    Type
REMARK                         _______ _______ _______ _____ _____    ______ ____
ROOT
ATOM      1  C   UNL     1       7.111  -5.622  21.505  0.00  0.00    +0.088 C 
ATOM      2  C   UNL     1       7.176  -5.449  22.989  0.00  0.00    +0.128 A 
ATOM      3  N   UNL     1       8.380  -5.566  23.574  0.00  0.00    -0.218 NA
ATOM      4  C   UNL     1       8.435  -5.397  24.904  0.00  0.00    +0.125 A 
ATOM      5  N   UNL     1       9.710  -5.540  25.461  0.00  0.00    -0.343 N 
ATOM      6  H   UNL     1      10.348  -5.687  24.680  0.00  0.00    +0.144 HD
ATOM      7  H   UNL     1       9.963  -4.698  25.977  0.00  0.00    +0.144 HD
ATOM      8  C   UNL     1       7.324  -5.136  25.684  0.00  0.00    +0.035 A 
ATOM      9  C   UNL     1       6.140  -5.034  24.975  0.00  0.00    +0.122 A 
ATOM     10  N   UNL     1       6.035  -5.179  23.642  0.00  0.00    -0.240 NA
ENDROOT
BRANCH   8  11
ATOM     11  C   UNL     1       7.293  -4.965  27.173  0.00  0.00    +0.196 C 
BRANCH  11  12
ATOM     12  O   UNL     1       7.622  -6.124  27.926  0.00  0.00    -0.390 OA
ATOM     13  H   UNL     1       7.759  -6.847  27.282  0.00  0.00    +0.210 HD
ENDBRANCH  11  12
ENDBRANCH   8  11
TORSDOF 2
ENDMDL
MODEL 3
REMARK VINA RESULT:      -4.3      4.087      5.672
REMARK  Name = 
REMARK  3 active torsions:
REMARK  status: ('A' for Active; 'I' for Inactive)
REMARK    1  A    between atoms: C_1  and  C_2
REMARK    2  A    between atoms: C_5  and  C_6
REMARK    3  A    between atoms: C_6  and  O_7
REMARK                            x       y       z     vdW  Elec       q    Type
REMARK                         _______ _______ _______ _____ _____    ______ ____
ROOT
ATOM      1  C   UNL     1       9.590  -3.471  24.458  0.00  0.00    +0.088 C 
ATOM      2  C   UNL     1       9.515  -2.166  23.730  0.00  0.00    +0.128 A 
ATOM      3  N   UNL     1       9.972  -1.074  24.366  0.00  0.00    -0.218 NA
ATOM      4  C   UNL     1       9.914   0.091  23.704  0.00  0.00    +0.125 A 
ATOM      5  N   UNL     1      10.392   1.195  24.417  0.00  0.00    -0.343 N 
ATOM      6  H   UNL     1      10.750   0.832  25.300  0.00  0.00    +0.144 HD
ATOM      7  H   UNL     1      11.135   1.656  23.892  0.00  0.00    +0.144 HD
ATOM      8  C   UNL     1       9.394   0.216  22.429  0.00  0.00    +0.035 A 
ATOM      9  C   UNL     1       8.957  -0.972  21.872  0.00  0.00    +0.122 A 
ATOM     10  N   UNL     1       9.008  -2.167  22.488  0.00  0.00    -0.240 NA
ENDROOT
BRANCH   8  11
ATOM     11  C   UNL     1       9.265   1.480  21.633  0.00  0.00    +0.196 C 
BRANCH  11  12
ATOM     12  O   UNL     1      10.403   2.332  21.655  0.00  0.00    -0.390 OA
ATOM     13  H   UNL     1      10.279   2.946  22.407  0.00  0.00    +0.210 HD
ENDBRANCH  11  12
ENDBRANCH   8  11
TORSDOF 2
ENDMDL
MODEL 4
REMARK VINA RESULT:      -4.3      3.927      5.602
REMARK  Name = 
REMARK  3 active torsions:
REMARK  status: ('A' for Active; 'I' for Inactive)
REMARK    1  A    between atoms: C_1  and  C_2
REMARK    2  A    between atoms: C_5  and  C_6
REMARK    3  A    between atoms: C_6  and  O_7
REMARK                            x       y       z     vdW  Elec       q    Type
REMARK                         _______ _______ _______ _____ _____    ______ ____
ROOT
ATOM      1  C   UNL     1       8.986  -3.236  25.074  0.00  0.00    +0.088 C 
ATOM      2  C   UNL     1       9.292  -1.948  24.377  0.00  0.00    +0.128 A 
ATOM      3  N   UNL     1       9.340  -1.965  23.034  0.00  0.00    -0.218 NA
ATOM      4  C   UNL     1       9.602  -0.806  22.414  0.00  0.00    +0.125 A 
ATOM      5  N   UNL     1       9.650  -0.884  21.018  0.00  0.00    -0.343 N 
ATOM      6  H   UNL     1       9.401  -1.843  20.778  0.00  0.00    +0.144 HD
ATOM      7  H   UNL     1       8.987  -0.228  20.608  0.00  0.00    +0.144 HD
ATOM      8  C   UNL     1       9.843   0.378  23.086  0.00  0.00    +0.035 A 
ATOM      9  C   UNL     1       9.765   0.279  24.463  0.00  0.00    +0.122 A 
ATOM     10  N   UNL     1       9.490  -0.856  25.131  0.00  0.00    -0.240 NA
ENDROOT
BRANCH   8  11
ATOM     11  C   UNL     1      10.172   1.707  22.473  0.00  0.00    +0.196 C 
BRANCH  11  12
ATOM     12  O   UNL     1       9.411   2.052  21.323  0.00  0.00    -0.390 OA
ATOM     13  H   UNL     1       8.479   1.838  21.530  0.00  0.00    +0.210 HD
ENDBRANCH  11  12
ENDBRANCH   8  11
TORSDOF 2
ENDMDL
MODEL 5
REMARK VINA RESULT:      -4.2      3.489      4.669
REMARK  Name = 
REMARK  3 active torsions:
REMARK  status: ('A' for Active; 'I' for Inactive)
REMARK    1  A    between atoms: C_1  and  C_2
REMARK    2  A    between atoms: C_5  and  C_6
REMARK    3  A    between atoms: C_6  and  O_7
REMARK                            x       y       z     vdW  Elec       q    Type
REMARK                         _______ _______ _______ _____ _____    ______ ____
ROOT
ATOM      1  C   UNL     1      10.663   3.032  23.335  0.00  0.00    +0.088 C 
ATOM      2  C   UNL     1      10.303   1.599  23.571  0.00  0.00    +0.128 A 
ATOM      3  N   UNL     1      10.228   0.794  22.498  0.00  0.00    -0.218 NA
ATOM      4  C   UNL     1       9.918  -0.492  22.716  0.00  0.00    +0.125 A 
ATOM      5  N   UNL     1       9.842  -1.282  21.564  0.00  0.00    -0.343 N 
ATOM      6  H   UNL     1      10.114  -0.680  20.788  0.00  0.00    +0.144 HD
ATOM      7  H   UNL     1      10.477  -2.076  21.642  0.00  0.00    +0.144 HD
ATOM      8  C   UNL     1       9.656  -1.009  23.972  0.00  0.00    +0.035 A 
ATOM      9  C   UNL     1       9.766  -0.091  25.001  0.00  0.00    +0.122 A 
ATOM     10  N   UNL     1      10.089   1.204  24.835  0.00  0.00    -0.240 NA
ENDROOT
BRANCH   8  11
ATOM     11  C   UNL     1       9.275  -2.421  24.299  0.00  0.00    +0.196 C 
BRANCH  11  12
ATOM     12  O   UNL     1      10.243  -3.407  23.965  0.00  0.00    -0.390 OA
ATOM     13  H   UNL     1      10.258  -4.047  24.705  0.00  0.00    +0.210 HD
ENDBRANCH  11  12
ENDBRANCH   8  11
TORSDOF 2
ENDMDL
MODEL 6
REMARK VINA RESULT:      -4.1      4.788      6.641
REMARK  Name = 
REMARK  3 active torsions:
REMARK  status: ('A' for Active; 'I' for Inactive)
REMARK    1  A    between atoms: C_1  and  C_2
REMARK    2  A    between atoms: C_5  and  C_6
REMARK    3  A    between atoms: C_6  and  O_7
REMARK                            x       y       z     vdW  Elec       q    Type
REMARK                         _______ _______ _______ _____ _____    ______ ____
ROOT
ATOM      1  C   UNL     1       8.777  -2.201  23.508  0.00  0.00    +0.088 C 
ATOM      2  C   UNL     1       9.328  -0.810  23.531  0.00  0.00    +0.128 A 
ATOM      3  N   UNL     1       9.091  -0.032  22.461  0.00  0.00    -0.218 NA
ATOM      4  C   UNL     1       9.576   1.218  22.491  0.00  0.00    +0.125 A 
ATOM      5  N   UNL     1       9.310   1.979  21.349  0.00  0.00    -0.343 N 
ATOM      6  H   UNL     1       8.725   1.398  20.749  0.00  0.00    +0.144 HD
ATOM      7  H   UNL     1       8.821   2.836  21.605  0.00  0.00    +0.144 HD
ATOM      8  C   UNL     1      10.314   1.721  23.547  0.00  0.00    +0.035 A 
ATOM      9  C   UNL     1      10.492   0.834  24.593  0.00  0.00    +0.122 A 
ATOM     10  N   UNL     1      10.013  -0.422  24.617  0.00  0.00    -0.240 NA
ENDROOT
BRANCH   8  11
ATOM     11  C   UNL     1      10.916   3.091  23.647  0.00  0.00    +0.196 C 
BRANCH  11  12
ATOM     12  O   UNL     1      10.106   4.150  23.155  0.00  0.00    -0.390 OA
ATOM     13  H   UNL     1       9.464   3.747  22.537  0.00  0.00    +0.210 HD
ENDBRANCH  11  12
ENDBRANCH   8  11
TORSDOF 2
ENDMDL
MODEL 7
REMARK VINA RESULT:      -4.1      4.953      6.520
REMARK  Name = 
REMARK  3 active torsions:
REMARK  status: ('A' for Active; 'I' for Inactive)
REMARK    1  A    between atoms: C_1  and  C_2
REMARK    2  A    between atoms: C_5  and  C_6
REMARK    3  A    between atoms: C_6  and  O_7
REMARK                            x       y       z     vdW  Elec       q    Type
REMARK                         _______ _______ _______ _____ _____    ______ ____
ROOT
ATOM      1  C   UNL     1       9.866  -2.040  23.627  0.00  0.00    +0.088 C 
ATOM      2  C   UNL     1       9.201  -0.786  23.154  0.00  0.00    +0.128 A 
ATOM      3  N   UNL     1       9.984   0.172  22.629  0.00  0.00    -0.218 NA
ATOM      4  C   UNL     1       9.382   1.289  22.196  0.00  0.00    +0.125 A 
ATOM      5  N   UNL     1      10.245   2.255  21.669  0.00  0.00    -0.343 N 
ATOM      6  H   UNL     1      11.177   1.842  21.681  0.00  0.00    +0.144 HD
ATOM      7  H   UNL     1       9.969   2.490  20.716  0.00  0.00    +0.144 HD
ATOM      8  C   UNL     1       8.018   1.501  22.285  0.00  0.00    +0.035 A 
ATOM      9  C   UNL     1       7.312   0.448  22.839  0.00  0.00    +0.122 A 
ATOM     10  N   UNL     1       7.867  -0.697  23.273  0.00  0.00    -0.240 NA
ENDROOT
BRANCH   8  11
ATOM     11  C   UNL     1       7.271   2.727  21.854  0.00  0.00    +0.196 C 
BRANCH  11  12
ATOM     12  O   UNL     1       7.924   3.962  22.117  0.00  0.00    -0.390 OA
ATOM     13  H   UNL     1       7.245   4.661  22.031  0.00  0.00    +0.210 HD
ENDBRANCH  11  12
ENDBRANCH   8  11
TORSDOF 2
ENDMDL
MODEL 8
REMARK VINA RESULT:      -4.1      2.389      3.015
REMARK  Name = 
REMARK  3 active torsions:
REMARK  status: ('A' for Active; 'I' for Inactive)
REMARK    1  A    between atoms: C_1  and  C_2
REMARK    2  A    between atoms: C_5  and  C_6
REMARK    3  A    between atoms: C_6  and  O_7
REMARK                            x       y       z     vdW  Elec       q    Type
REMARK                         _______ _______ _______ _____ _____    ______ ____
ROOT
ATOM      1  C   UNL     1       9.430  -0.020  21.499  0.00  0.00    +0.088 C 
ATOM      2  C   UNL     1       9.221  -1.248  22.326  0.00  0.00    +0.128 A 
ATOM      3  N   UNL     1       8.114  -1.973  22.091  0.00  0.00    -0.218 NA
ATOM      4  C   UNL     1       7.938  -3.081  22.826  0.00  0.00    +0.125 A 
ATOM      5  N   UNL     1       6.765  -3.791  22.548  0.00  0.00    -0.343 N 
ATOM      6  H   UNL     1       6.320  -3.310  21.767  0.00  0.00    +0.144 HD
ATOM      7  H   UNL     1       6.989  -4.753  22.297  0.00  0.00    +0.144 HD
ATOM      8  C   UNL     1       8.818  -3.487  23.812  0.00  0.00    +0.035 A 
ATOM      9  C   UNL     1       9.922  -2.668  23.964  0.00  0.00    +0.122 A 
ATOM     10  N   UNL     1      10.152  -1.557  23.242  0.00  0.00    -0.240 NA
ENDROOT
BRANCH   8  11
ATOM     11  C   UNL     1       8.682  -4.690  24.696  0.00  0.00    +0.196 C 
BRANCH  11  12
ATOM     12  O   UNL     1       9.857  -5.477  24.840  0.00  0.00    -0.390 OA
ATOM     13  H   UNL     1      10.550  -4.882  25.192  0.00  0.00    +0.210 HD
ENDBRANCH  11  12
ENDBRANCH   8  11
TORSDOF 2
ENDMDL
MODEL 9
REMARK VINA RESULT:      -4.0      4.834      6.055
REMARK  Name = 
REMARK  3 active torsions:
REMARK  status: ('A' for Active; 'I' for Inactive)
REMARK    1  A    between atoms: C_1  and  C_2
REMARK    2  A    between atoms: C_5  and  C_6
REMARK    3  A    between atoms: C_6  and  O_7
REMARK                            x       y       z     vdW  Elec       q    Type
REMARK                         _______ _______ _______ _____ _____    ______ ____
ROOT
ATOM      1  C   UNL     1       8.654   4.283  23.478  0.00  0.00    +0.088 C 
ATOM      2  C   UNL     1       9.095   2.863  23.311  0.00  0.00    +0.128 A 
ATOM      3  N   UNL     1       9.476   2.198  24.415  0.00  0.00    -0.218 NA
ATOM      4  C   UNL     1       9.858   0.922  24.262  0.00  0.00    +0.125 A 
ATOM      5  N   UNL     1      10.253   0.282  25.441  0.00  0.00    -0.343 N 
ATOM      6  H   UNL     1      10.094   0.949  26.195  0.00  0.00    +0.144 HD
ATOM      7  H   UNL     1       9.699  -0.561  25.585  0.00  0.00    +0.144 HD
ATOM      8  C   UNL     1       9.897   0.282  23.037  0.00  0.00    +0.035 A 
ATOM      9  C   UNL     1       9.481   1.061  21.973  0.00  0.00    +0.122 A 
ATOM     10  N   UNL     1       9.075   2.339  22.076  0.00  0.00    -0.240 NA
ENDROOT
BRANCH   8  11
ATOM     11  C   UNL     1      10.338  -1.127  22.775  0.00  0.00    +0.196 C 
BRANCH  11  12
ATOM     12  O   UNL     1      10.138  -1.591  21.447  0.00  0.00    -0.390 OA
ATOM     13  H   UNL     1      11.010  -1.562  21.005  0.00  0.00    +0.210 HD
ENDBRANCH  11  12
ENDBRANCH   8  11
TORSDOF 2
ENDMDL
