MODEL 1
REMARK VINA RESULT:      -6.2      0.000      0.000
REMARK  Name = 
REMARK  19 active torsions:
REMARK  status: ('A' for Active; 'I' for Inactive)
REMARK    1  A    between atoms: C_2  and  C_4
REMARK    2  A    between atoms: C_4  and  C_6
REMARK    3  A    between atoms: C_4  and  N_16
REMARK    4  A    between atoms: C_6  and  C_7
REMARK    5  A    between atoms: C_17  and  C_19
REMARK    6  A    between atoms: C_19  and  C_21
REMARK    7  A    between atoms: C_19  and  C_30
REMARK    8  A    between atoms: C_21  and  C_22
REMARK    9  A    between atoms: C_22  and  C_23
REMARK   10  A    between atoms: C_23  and  C_24
REMARK   11  A    between atoms: C_30  and  P_31
REMARK   12  A    between atoms: P_31  and  O_32
REMARK   13  A    between atoms: P_31  and  C_34
REMARK   14  A    between atoms: C_34  and  C_36
REMARK   15  A    between atoms: C_34  and  N_43
REMARK   16  A    between atoms: C_36  and  C_37
REMARK   17  A    between atoms: C_44  and  O_46
REMARK   18  A    between atoms: O_46  and  C_47
REMARK   19  A    between atoms: C_47  and  C_48
REMARK                            x       y       z     vdW  Elec       q    Type
REMARK                         _______ _______ _______ _____ _____    ______ ____
ROOT
ATOM      1  C   UNL     1       4.725  -0.966  27.179  0.00  0.00    +0.084 C 
ENDROOT
BRANCH   1   4
ATOM      2  N   UNL     1       5.175  -3.373  27.626  0.00  0.00    -0.303 N 
ATOM      3  H   UNL     1       5.378  -3.441  26.628  0.00  0.00    +0.149 HD
ATOM      4  C   UNL     1       4.678  -2.190  28.128  0.00  0.00    +0.217 C 
ATOM      5  O   UNL     1       4.178  -2.139  29.270  0.00  0.00    -0.275 OA
BRANCH   2   6
ATOM      6  C   UNL     1       5.209  -4.683  28.359  0.00  0.00    +0.163 C 
BRANCH   6  10
ATOM      7  N   UNL     1       2.949  -5.088  29.418  0.00  0.00    -0.328 N 
ATOM      8  H   UNL     1       3.362  -5.161  30.340  0.00  0.00    +0.145 HD
ATOM      9  H   UNL     1       2.059  -5.565  29.329  0.00  0.00    +0.145 HD
ATOM     10  C   UNL     1       3.743  -5.199  28.313  0.00  0.00    +0.231 C 
ATOM     11  O   UNL     1       3.265  -5.696  27.291  0.00  0.00    -0.274 OA
ENDBRANCH   6  10
BRANCH   6  12
ATOM     12  C   UNL     1       6.263  -5.706  27.865  0.00  0.00    +0.069 C 
BRANCH  12  13
ATOM     13  C   UNL     1       7.082  -5.253  26.681  0.00  0.00    -0.020 A 
ATOM     14  C   UNL     1       6.666  -5.094  25.324  0.00  0.00    +0.003 A 
ATOM     15  C   UNL     1       7.832  -4.968  24.577  0.00  0.00    +0.047 A 
ATOM     16  C   UNL     1       7.857  -5.123  23.187  0.00  0.00    +0.026 A 
ATOM     17  C   UNL     1       6.672  -5.030  22.488  0.00  0.00    +0.002 A 
ATOM     18  C   UNL     1       5.483  -4.953  23.188  0.00  0.00    +0.001 A 
ATOM     19  N   UNL     1       8.784  -4.584  25.482  0.00  0.00    -0.360 N 
ATOM     20  H   UNL     1       9.621  -4.065  25.270  0.00  0.00    +0.165 HD
ATOM     21  C   UNL     1       5.466  -5.073  24.591  0.00  0.00    +0.010 A 
ATOM     22  C   UNL     1       8.415  -4.921  26.734  0.00  0.00    +0.087 A 
ENDBRANCH  12  13
ENDBRANCH   6  12
ENDBRANCH   2   6
ENDBRANCH   1   4
BRANCH   1  23
ATOM     23  C   UNL     1       3.669   0.143  27.547  0.00  0.00    +0.111 C 
BRANCH  23  24
ATOM     24  P   UNL     1       3.937   1.822  26.917  0.00  0.00    +0.223 P 
ATOM     25  O   UNL     1       3.418   2.864  27.845  0.00  0.00    -0.289 OA
BRANCH  24  26
ATOM     26  O   UNL     1       2.976   1.888  25.620  0.00  0.00    -0.342 OA
ATOM     27  H   UNL     1       3.198   1.209  24.952  0.00  0.00    +0.218 HD
ENDBRANCH  24  26
BRANCH  24  28
ATOM     28  C   UNL     1       5.566   2.427  26.351  0.00  0.00    +0.167 C 
BRANCH  28  29
ATOM     29  N   UNL     1       6.028   3.707  26.840  0.00  0.00    -0.269 N 
ATOM     30  H   UNL     1       6.057   4.467  26.169  0.00  0.00    +0.153 HD
ATOM     31  C   UNL     1       7.017   3.818  27.768  0.00  0.00    +0.401 C 
ATOM     32  O   UNL     1       7.218   3.038  28.681  0.00  0.00    -0.226 OA
BRANCH  31  33
ATOM     33  O   UNL     1       7.608   5.024  27.608  0.00  0.00    -0.446 OA
BRANCH  33  34
ATOM     34  C   UNL     1       6.981   5.897  26.656  0.00  0.00    +0.269 C 
BRANCH  34  35
ATOM     35  C   UNL     1       7.924   6.033  25.485  0.00  0.00    -0.010 A 
ATOM     36  C   UNL     1       7.469   5.989  24.162  0.00  0.00    +0.007 A 
ATOM     37  C   UNL     1       8.377   6.007  23.109  0.00  0.00    +0.000 A 
ATOM     38  C   UNL     1       9.726   6.188  23.368  0.00  0.00    +0.000 A 
ATOM     39  C   UNL     1      10.180   6.343  24.677  0.00  0.00    +0.000 A 
ATOM     40  C   UNL     1       9.297   6.154  25.718  0.00  0.00    +0.007 A 
ENDBRANCH  34  35
ENDBRANCH  33  34
ENDBRANCH  31  33
ENDBRANCH  28  29
BRANCH  28  41
ATOM     41  C   UNL     1       5.664   2.342  24.797  0.00  0.00    +0.067 C 
BRANCH  41  42
ATOM     42  C   UNL     1       7.032   2.250  24.135  0.00  0.00    -0.045 A 
ATOM     43  C   UNL     1       8.197   2.358  24.913  0.00  0.00    +0.004 A 
ATOM     44  C   UNL     1       9.461   2.472  24.319  0.00  0.00    +0.000 A 
ATOM     45  C   UNL     1       9.582   2.459  22.934  0.00  0.00    +0.000 A 
ATOM     46  C   UNL     1       8.441   2.315  22.138  0.00  0.00    +0.000 A 
ATOM     47  C   UNL     1       7.175   2.215  22.739  0.00  0.00    +0.004 A 
ENDBRANCH  41  42
ENDBRANCH  28  41
ENDBRANCH  24  28
ENDBRANCH  23  24
ENDBRANCH   1  23
BRANCH   1  48
ATOM     48  C   UNL     1       4.587  -1.588  25.752  0.00  0.00    +0.013 C 
BRANCH  48  49
ATOM     49  C   UNL     1       5.665  -1.357  24.698  0.00  0.00    +0.005 C 
BRANCH  49  50
ATOM     50  C   UNL     1       7.101  -1.301  25.258  0.00  0.00    +0.035 C 
BRANCH  50  51
ATOM     51  C   UNL     1       8.164  -1.324  24.176  0.00  0.00    -0.047 A 
ATOM     52  C   UNL     1       7.812  -1.454  22.828  0.00  0.00    +0.003 A 
ATOM     53  C   UNL     1       8.788  -1.383  21.833  0.00  0.00    +0.000 A 
ATOM     54  C   UNL     1      10.126  -1.177  22.168  0.00  0.00    +0.000 A 
ATOM     55  C   UNL     1      10.495  -1.068  23.505  0.00  0.00    +0.000 A 
ATOM     56  C   UNL     1       9.521  -1.158  24.501  0.00  0.00    +0.003 A 
ENDBRANCH  50  51
ENDBRANCH  49  50
ENDBRANCH  48  49
ENDBRANCH   1  48
TORSDOF 19
ENDMDL
MODEL 2
REMARK VINA RESULT:      -6.0      1.992      4.445
REMARK  Name = 
REMARK  19 active torsions:
REMARK  status: ('A' for Active; 'I' for Inactive)
REMARK    1  A    between atoms: C_2  and  C_4
REMARK    2  A    between atoms: C_4  and  C_6
REMARK    3  A    between atoms: C_4  and  N_16
REMARK    4  A    between atoms: C_6  and  C_7
REMARK    5  A    between atoms: C_17  and  C_19
REMARK    6  A    between atoms: C_19  and  C_21
REMARK    7  A    between atoms: C_19  and  C_30
REMARK    8  A    between atoms: C_21  and  C_22
REMARK    9  A    between atoms: C_22  and  C_23
REMARK   10  A    between atoms: C_23  and  C_24
REMARK   11  A    between atoms: C_30  and  P_31
REMARK   12  A    between atoms: P_31  and  O_32
REMARK   13  A    between atoms: P_31  and  C_34
REMARK   14  A    between atoms: C_34  and  C_36
REMARK   15  A    between atoms: C_34  and  N_43
REMARK   16  A    between atoms: C_36  and  C_37
REMARK   17  A    between atoms: C_44  and  O_46
REMARK   18  A    between atoms: O_46  and  C_47
REMARK   19  A    between atoms: C_47  and  C_48
REMARK                            x       y       z     vdW  Elec       q    Type
REMARK                         _______ _______ _______ _____ _____    ______ ____
ROOT
ATOM      1  C   UNL     1       4.937  -3.550  26.797  0.00  0.00    +0.084 C 
ENDROOT
BRANCH   1   4
ATOM      2  N   UNL     1       7.112  -3.469  25.590  0.00  0.00    -0.303 N 
ATOM      3  H   UNL     1       6.555  -3.266  24.760  0.00  0.00    +0.149 HD
ATOM      4  C   UNL     1       6.467  -3.790  26.764  0.00  0.00    +0.217 C 
ATOM      5  O   UNL     1       7.091  -4.291  27.722  0.00  0.00    -0.275 OA
BRANCH   2   6
ATOM      6  C   UNL     1       8.581  -3.639  25.330  0.00  0.00    +0.163 C 
BRANCH   6  10
ATOM      7  N   UNL     1       8.667  -6.019  26.181  0.00  0.00    -0.328 N 
ATOM      8  H   UNL     1       8.965  -5.709  27.099  0.00  0.00    +0.145 HD
ATOM      9  H   UNL     1       8.931  -6.973  25.965  0.00  0.00    +0.145 HD
ATOM     10  C   UNL     1       8.769  -5.168  25.118  0.00  0.00    +0.231 C 
ATOM     11  O   UNL     1       8.995  -5.642  24.003  0.00  0.00    -0.274 OA
ENDBRANCH   6  10
BRANCH   6  12
ATOM     12  C   UNL     1       9.173  -2.759  24.200  0.00  0.00    +0.069 C 
BRANCH  12  13
ATOM     13  C   UNL     1       9.290  -1.292  24.532  0.00  0.00    -0.020 A 
ATOM     14  C   UNL     1       9.489  -0.193  23.641  0.00  0.00    +0.003 A 
ATOM     15  C   UNL     1       9.838   0.890  24.438  0.00  0.00    +0.047 A 
ATOM     16  C   UNL     1      10.428   2.049  23.920  0.00  0.00    +0.026 A 
ATOM     17  C   UNL     1      10.329   2.294  22.566  0.00  0.00    +0.002 A 
ATOM     18  C   UNL     1       9.801   1.317  21.743  0.00  0.00    +0.001 A 
ATOM     19  N   UNL     1       9.384   0.564  25.687  0.00  0.00    -0.360 N 
ATOM     20  H   UNL     1       9.135   1.218  26.411  0.00  0.00    +0.165 HD
ATOM     21  C   UNL     1       9.465   0.049  22.256  0.00  0.00    +0.010 A 
ATOM     22  C   UNL     1       9.227  -0.771  25.803  0.00  0.00    +0.087 A 
ENDBRANCH  12  13
ENDBRANCH   6  12
ENDBRANCH   2   6
ENDBRANCH   1   4
BRANCH   1  23
ATOM     23  C   UNL     1       4.491  -2.551  27.930  0.00  0.00    +0.111 C 
BRANCH  23  24
ATOM     24  P   UNL     1       4.364  -0.790  27.516  0.00  0.00    +0.223 P 
ATOM     25  O   UNL     1       3.858   0.024  28.655  0.00  0.00    -0.289 OA
BRANCH  24  26
ATOM     26  O   UNL     1       3.187  -0.754  26.409  0.00  0.00    -0.342 OA
ATOM     27  H   UNL     1       3.263  -1.476  25.755  0.00  0.00    +0.218 HD
ENDBRANCH  24  26
BRANCH  24  28
ATOM     28  C   UNL     1       5.743   0.167  26.795  0.00  0.00    +0.167 C 
BRANCH  28  29
ATOM     29  N   UNL     1       5.969   1.512  27.279  0.00  0.00    -0.269 N 
ATOM     30  H   UNL     1       5.795   2.266  26.623  0.00  0.00    +0.153 HD
ATOM     31  C   UNL     1       6.980   1.815  28.138  0.00  0.00    +0.401 C 
ATOM     32  O   UNL     1       7.400   1.087  29.017  0.00  0.00    -0.226 OA
BRANCH  31  33
ATOM     33  O   UNL     1       7.299   3.118  27.964  0.00  0.00    -0.446 OA
BRANCH  33  34
ATOM     34  C   UNL     1       6.249   3.948  27.444  0.00  0.00    +0.269 C 
BRANCH  34  35
ATOM     35  C   UNL     1       6.808   4.684  26.252  0.00  0.00    -0.010 A 
ATOM     36  C   UNL     1       7.991   4.280  25.621  0.00  0.00    +0.007 A 
ATOM     37  C   UNL     1       8.535   5.045  24.596  0.00  0.00    +0.000 A 
ATOM     38  C   UNL     1       7.842   6.146  24.119  0.00  0.00    +0.000 A 
ATOM     39  C   UNL     1       6.608   6.496  24.666  0.00  0.00    +0.000 A 
ATOM     40  C   UNL     1       6.162   5.834  25.789  0.00  0.00    +0.007 A 
ENDBRANCH  34  35
ENDBRANCH  33  34
ENDBRANCH  31  33
ENDBRANCH  28  29
BRANCH  28  41
ATOM     41  C   UNL     1       5.673   0.127  25.237  0.00  0.00    +0.067 C 
BRANCH  41  42
ATOM     42  C   UNL     1       5.565   1.430  24.456  0.00  0.00    -0.045 A 
ATOM     43  C   UNL     1       4.451   2.267  24.640  0.00  0.00    +0.004 A 
ATOM     44  C   UNL     1       4.222   3.368  23.804  0.00  0.00    +0.000 A 
ATOM     45  C   UNL     1       5.117   3.662  22.781  0.00  0.00    +0.000 A 
ATOM     46  C   UNL     1       6.253   2.865  22.601  0.00  0.00    +0.000 A 
ATOM     47  C   UNL     1       6.469   1.755  23.434  0.00  0.00    +0.004 A 
ENDBRANCH  41  42
ENDBRANCH  28  41
ENDBRANCH  24  28
ENDBRANCH  23  24
ENDBRANCH   1  23
BRANCH   1  48
ATOM     48  C   UNL     1       4.330  -4.987  26.881  0.00  0.00    +0.013 C 
BRANCH  48  49
ATOM     49  C   UNL     1       4.618  -6.016  25.793  0.00  0.00    +0.005 C 
BRANCH  49  50
ATOM     50  C   UNL     1       3.925  -5.730  24.446  0.00  0.00    +0.035 C 
BRANCH  50  51
ATOM     51  C   UNL     1       4.849  -5.097  23.423  0.00  0.00    -0.047 A 
ATOM     52  C   UNL     1       5.714  -5.883  22.655  0.00  0.00    +0.003 A 
ATOM     53  C   UNL     1       6.494  -5.304  21.653  0.00  0.00    +0.000 A 
ATOM     54  C   UNL     1       6.417  -3.936  21.399  0.00  0.00    +0.000 A 
ATOM     55  C   UNL     1       5.577  -3.136  22.167  0.00  0.00    +0.000 A 
ATOM     56  C   UNL     1       4.811  -3.713  23.182  0.00  0.00    +0.003 A 
ENDBRANCH  50  51
ENDBRANCH  49  50
ENDBRANCH  48  49
ENDBRANCH   1  48
TORSDOF 19
ENDMDL
MODEL 3
REMARK VINA RESULT:      -6.0      2.060      3.273
REMARK  Name = 
REMARK  19 active torsions:
REMARK  status: ('A' for Active; 'I' for Inactive)
REMARK    1  A    between atoms: C_2  and  C_4
REMARK    2  A    between atoms: C_4  and  C_6
REMARK    3  A    between atoms: C_4  and  N_16
REMARK    4  A    between atoms: C_6  and  C_7
REMARK    5  A    between atoms: C_17  and  C_19
REMARK    6  A    between atoms: C_19  and  C_21
REMARK    7  A    between atoms: C_19  and  C_30
REMARK    8  A    between atoms: C_21  and  C_22
REMARK    9  A    between atoms: C_22  and  C_23
REMARK   10  A    between atoms: C_23  and  C_24
REMARK   11  A    between atoms: C_30  and  P_31
REMARK   12  A    between atoms: P_31  and  O_32
REMARK   13  A    between atoms: P_31  and  C_34
REMARK   14  A    between atoms: C_34  and  C_36
REMARK   15  A    between atoms: C_34  and  N_43
REMARK   16  A    between atoms: C_36  and  C_37
REMARK   17  A    between atoms: C_44  and  O_46
REMARK   18  A    between atoms: O_46  and  C_47
REMARK   19  A    between atoms: C_47  and  C_48
REMARK                            x       y       z     vdW  Elec       q    Type
REMARK                         _______ _______ _______ _____ _____    ______ ____
ROOT
ATOM      1  C   UNL     1       7.397  -2.574  26.793  0.00  0.00    +0.084 C 
ENDROOT
BRANCH   1   4
ATOM      2  N   UNL     1       6.117  -4.707  26.847  0.00  0.00    -0.303 N 
ATOM      3  H   UNL     1       5.291  -4.119  26.965  0.00  0.00    +0.149 HD
ATOM      4  C   UNL     1       7.363  -4.121  26.867  0.00  0.00    +0.217 C 
ATOM      5  O   UNL     1       8.395  -4.813  26.986  0.00  0.00    -0.275 OA
BRANCH   2   6
ATOM      6  C   UNL     1       5.847  -6.183  26.931  0.00  0.00    +0.163 C 
BRANCH   6  10
ATOM      7  N   UNL     1       6.354  -7.118  29.225  0.00  0.00    -0.328 N 
ATOM      8  H   UNL     1       6.925  -7.856  28.829  0.00  0.00    +0.145 HD
ATOM      9  H   UNL     1       5.975  -7.339  30.138  0.00  0.00    +0.145 HD
ATOM     10  C   UNL     1       5.487  -6.434  28.422  0.00  0.00    +0.231 C 
ATOM     11  O   UNL     1       4.437  -6.014  28.913  0.00  0.00    -0.274 OA
ENDBRANCH   6  10
BRANCH   6  12
ATOM     12  C   UNL     1       4.812  -6.738  25.921  0.00  0.00    +0.069 C 
BRANCH  12  13
ATOM     13  C   UNL     1       4.490  -5.818  24.770  0.00  0.00    -0.020 A 
ATOM     14  C   UNL     1       5.362  -5.342  23.743  0.00  0.00    +0.003 A 
ATOM     15  C   UNL     1       4.689  -4.297  23.120  0.00  0.00    +0.047 A 
ATOM     16  C   UNL     1       5.334  -3.371  22.293  0.00  0.00    +0.026 A 
ATOM     17  C   UNL     1       6.573  -3.694  21.777  0.00  0.00    +0.002 A 
ATOM     18  C   UNL     1       7.207  -4.839  22.219  0.00  0.00    +0.001 A 
ATOM     19  N   UNL     1       3.371  -4.499  23.430  0.00  0.00    -0.360 N 
ATOM     20  H   UNL     1       2.585  -4.181  22.887  0.00  0.00    +0.165 HD
ATOM     21  C   UNL     1       6.654  -5.613  23.257  0.00  0.00    +0.010 A 
ATOM     22  C   UNL     1       3.253  -5.266  24.533  0.00  0.00    +0.087 A 
ENDBRANCH  12  13
ENDBRANCH   6  12
ENDBRANCH   2   6
ENDBRANCH   1   4
BRANCH   1  23
ATOM     23  C   UNL     1       6.044  -1.949  26.283  0.00  0.00    +0.111 C 
BRANCH  23  24
ATOM     24  P   UNL     1       5.458  -0.422  27.065  0.00  0.00    +0.223 P 
ATOM     25  O   UNL     1       4.856  -0.667  28.404  0.00  0.00    -0.289 OA
BRANCH  24  26
ATOM     26  O   UNL     1       4.228   0.030  26.120  0.00  0.00    -0.342 OA
ATOM     27  H   UNL     1       4.474   0.744  25.499  0.00  0.00    +0.218 HD
ENDBRANCH  24  26
BRANCH  24  28
ATOM     28  C   UNL     1       6.502   1.065  27.254  0.00  0.00    +0.167 C 
BRANCH  28  29
ATOM     29  N   UNL     1       5.848   2.335  27.483  0.00  0.00    -0.269 N 
ATOM     30  H   UNL     1       5.174   2.632  26.785  0.00  0.00    +0.153 HD
ATOM     31  C   UNL     1       6.494   3.395  28.042  0.00  0.00    +0.401 C 
ATOM     32  O   UNL     1       7.357   3.325  28.896  0.00  0.00    -0.226 OA
BRANCH  31  33
ATOM     33  O   UNL     1       5.882   4.526  27.621  0.00  0.00    -0.446 OA
BRANCH  33  34
ATOM     34  C   UNL     1       4.524   4.367  27.181  0.00  0.00    +0.269 C 
BRANCH  34  35
ATOM     35  C   UNL     1       4.438   4.930  25.784  0.00  0.00    -0.010 A 
ATOM     36  C   UNL     1       3.718   4.286  24.770  0.00  0.00    +0.007 A 
ATOM     37  C   UNL     1       3.751   4.775  23.469  0.00  0.00    +0.000 A 
ATOM     38  C   UNL     1       4.399   5.970  23.200  0.00  0.00    +0.000 A 
ATOM     39  C   UNL     1       5.027   6.679  24.223  0.00  0.00    +0.000 A 
ATOM     40  C   UNL     1       5.133   6.102  25.470  0.00  0.00    +0.007 A 
ENDBRANCH  34  35
ENDBRANCH  33  34
ENDBRANCH  31  33
ENDBRANCH  28  29
BRANCH  28  41
ATOM     41  C   UNL     1       7.530   1.158  26.085  0.00  0.00    +0.067 C 
BRANCH  41  42
ATOM     42  C   UNL     1       7.178   1.955  24.836  0.00  0.00    -0.045 A 
ATOM     43  C   UNL     1       6.538   1.322  23.758  0.00  0.00    +0.004 A 
ATOM     44  C   UNL     1       6.375   1.970  22.526  0.00  0.00    +0.000 A 
ATOM     45  C   UNL     1       6.833   3.272  22.360  0.00  0.00    +0.000 A 
ATOM     46  C   UNL     1       7.441   3.937  23.431  0.00  0.00    +0.000 A 
ATOM     47  C   UNL     1       7.614   3.277  24.658  0.00  0.00    +0.004 A 
ENDBRANCH  41  42
ENDBRANCH  28  41
ENDBRANCH  24  28
ENDBRANCH  23  24
ENDBRANCH   1  23
BRANCH   1  48
ATOM     48  C   UNL     1       8.658  -2.264  25.923  0.00  0.00    +0.013 C 
BRANCH  48  49
ATOM     49  C   UNL     1       8.570  -2.268  24.401  0.00  0.00    +0.005 C 
BRANCH  49  50
ATOM     50  C   UNL     1       9.895  -1.934  23.686  0.00  0.00    +0.035 C 
BRANCH  50  51
ATOM     51  C   UNL     1      10.048  -0.458  23.373  0.00  0.00    -0.047 A 
ATOM     52  C   UNL     1      10.627   0.415  24.300  0.00  0.00    +0.003 A 
ATOM     53  C   UNL     1      10.847   1.753  23.970  0.00  0.00    +0.000 A 
ATOM     54  C   UNL     1      10.499   2.237  22.709  0.00  0.00    +0.000 A 
ATOM     55  C   UNL     1       9.903   1.387  21.783  0.00  0.00    +0.000 A 
ATOM     56  C   UNL     1       9.666   0.053  22.121  0.00  0.00    +0.003 A 
ENDBRANCH  50  51
ENDBRANCH  49  50
ENDBRANCH  48  49
ENDBRANCH   1  48
TORSDOF 19
ENDMDL
MODEL 4
REMARK VINA RESULT:      -6.0      1.547      2.534
REMARK  Name = 
REMARK  19 active torsions:
REMARK  status: ('A' for Active; 'I' for Inactive)
REMARK    1  A    between atoms: C_2  and  C_4
REMARK    2  A    between atoms: C_4  and  C_6
REMARK    3  A    between atoms: C_4  and  N_16
REMARK    4  A    between atoms: C_6  and  C_7
REMARK    5  A    between atoms: C_17  and  C_19
REMARK    6  A    between atoms: C_19  and  C_21
REMARK    7  A    between atoms: C_19  and  C_30
REMARK    8  A    between atoms: C_21  and  C_22
REMARK    9  A    between atoms: C_22  and  C_23
REMARK   10  A    between atoms: C_23  and  C_24
REMARK   11  A    between atoms: C_30  and  P_31
REMARK   12  A    between atoms: P_31  and  O_32
REMARK   13  A    between atoms: P_31  and  C_34
REMARK   14  A    between atoms: C_34  and  C_36
REMARK   15  A    between atoms: C_34  and  N_43
REMARK   16  A    between atoms: C_36  and  C_37
REMARK   17  A    between atoms: C_44  and  O_46
REMARK   18  A    between atoms: O_46  and  C_47
REMARK   19  A    between atoms: C_47  and  C_48
REMARK                            x       y       z     vdW  Elec       q    Type
REMARK                         _______ _______ _______ _____ _____    ______ ____
ROOT
ATOM      1  C   UNL     1       5.436   0.435  27.584  0.00  0.00    +0.084 C 
ENDROOT
BRANCH   1   4
ATOM      2  N   UNL     1       4.881  -1.972  27.283  0.00  0.00    -0.303 N 
ATOM      3  H   UNL     1       5.836  -2.152  27.595  0.00  0.00    +0.149 HD
ATOM      4  C   UNL     1       4.481  -0.672  27.069  0.00  0.00    +0.217 C 
ATOM      5  O   UNL     1       3.427  -0.419  26.451  0.00  0.00    -0.275 OA
BRANCH   2   6
ATOM      6  C   UNL     1       4.126  -3.197  26.852  0.00  0.00    +0.163 C 
BRANCH   6  10
ATOM      7  N   UNL     1       3.090  -3.347  29.154  0.00  0.00    -0.328 N 
ATOM      8  H   UNL     1       3.893  -3.852  29.513  0.00  0.00    +0.145 HD
ATOM      9  H   UNL     1       2.237  -3.511  29.676  0.00  0.00    +0.145 HD
ATOM     10  C   UNL     1       2.899  -3.260  27.805  0.00  0.00    +0.231 C 
ATOM     11  O   UNL     1       1.744  -3.215  27.376  0.00  0.00    -0.274 OA
ENDBRANCH   6  10
BRANCH   6  12
ATOM     12  C   UNL     1       3.770  -3.277  25.346  0.00  0.00    +0.069 C 
BRANCH  12  13
ATOM     13  C   UNL     1       4.759  -4.039  24.500  0.00  0.00    -0.020 A 
ATOM     14  C   UNL     1       6.036  -4.558  24.876  0.00  0.00    +0.003 A 
ATOM     15  C   UNL     1       6.681  -4.891  23.691  0.00  0.00    +0.047 A 
ATOM     16  C   UNL     1       8.059  -5.119  23.620  0.00  0.00    +0.026 A 
ATOM     17  C   UNL     1       8.747  -5.388  24.786  0.00  0.00    +0.002 A 
ATOM     18  C   UNL     1       8.092  -5.264  25.997  0.00  0.00    +0.001 A 
ATOM     19  N   UNL     1       5.674  -5.022  22.773  0.00  0.00    -0.360 N 
ATOM     20  H   UNL     1       5.710  -5.585  21.939  0.00  0.00    +0.165 HD
ATOM     21  C   UNL     1       6.775  -4.767  26.054  0.00  0.00    +0.010 A 
ATOM     22  C   UNL     1       4.573  -4.355  23.174  0.00  0.00    +0.087 A 
ENDBRANCH  12  13
ENDBRANCH   6  12
ENDBRANCH   2   6
ENDBRANCH   1   4
BRANCH   1  23
ATOM     23  C   UNL     1       4.733   1.837  27.736  0.00  0.00    +0.111 C 
BRANCH  23  24
ATOM     24  P   UNL     1       4.817   2.991  26.340  0.00  0.00    +0.223 P 
ATOM     25  O   UNL     1       3.955   4.187  26.542  0.00  0.00    -0.289 OA
BRANCH  24  26
ATOM     26  O   UNL     1       4.126   2.165  25.134  0.00  0.00    -0.342 OA
ATOM     27  H   UNL     1       4.588   2.286  24.282  0.00  0.00    +0.218 HD
ENDBRANCH  24  26
BRANCH  24  28
ATOM     28  C   UNL     1       6.392   3.622  25.660  0.00  0.00    +0.167 C 
BRANCH  28  29
ATOM     29  N   UNL     1       6.679   5.033  25.797  0.00  0.00    -0.269 N 
ATOM     30  H   UNL     1       6.794   5.559  24.938  0.00  0.00    +0.153 HD
ATOM     31  C   UNL     1       7.466   5.521  26.795  0.00  0.00    +0.401 C 
ATOM     32  O   UNL     1       7.532   5.072  27.924  0.00  0.00    -0.226 OA
BRANCH  31  33
ATOM     33  O   UNL     1       8.007   6.685  26.368  0.00  0.00    -0.446 OA
BRANCH  33  34
ATOM     34  C   UNL     1       8.252   6.771  24.956  0.00  0.00    +0.269 C 
BRANCH  34  35
ATOM     35  C   UNL     1       9.724   6.515  24.741  0.00  0.00    -0.010 A 
ATOM     36  C   UNL     1      10.700   7.059  25.584  0.00  0.00    +0.007 A 
ATOM     37  C   UNL     1      12.049   6.893  25.292  0.00  0.00    +0.000 A 
ATOM     38  C   UNL     1      12.428   6.086  24.231  0.00  0.00    +0.000 A 
ATOM     39  C   UNL     1      11.465   5.449  23.448  0.00  0.00    +0.000 A 
ATOM     40  C   UNL     1      10.136   5.756  23.641  0.00  0.00    +0.007 A 
ENDBRANCH  34  35
ENDBRANCH  33  34
ENDBRANCH  31  33
ENDBRANCH  28  29
BRANCH  28  41
ATOM     41  C   UNL     1       6.575   3.144  24.187  0.00  0.00    +0.067 C 
BRANCH  41  42
ATOM     42  C   UNL     1       7.952   2.707  23.705  0.00  0.00    -0.045 A 
ATOM     43  C   UNL     1       8.166   2.439  22.343  0.00  0.00    +0.004 A 
ATOM     44  C   UNL     1       9.356   1.852  21.894  0.00  0.00    +0.000 A 
ATOM     45  C   UNL     1      10.363   1.541  22.802  0.00  0.00    +0.000 A 
ATOM     46  C   UNL     1      10.189   1.831  24.160  0.00  0.00    +0.000 A 
ATOM     47  C   UNL     1       8.987   2.408  24.604  0.00  0.00    +0.004 A 
ENDBRANCH  41  42
ENDBRANCH  28  41
ENDBRANCH  24  28
ENDBRANCH  23  24
ENDBRANCH   1  23
BRANCH   1  48
ATOM     48  C   UNL     1       6.643   0.384  26.594  0.00  0.00    +0.013 C 
BRANCH  48  49
ATOM     49  C   UNL     1       7.996  -0.155  27.048  0.00  0.00    +0.005 C 
BRANCH  49  50
ATOM     50  C   UNL     1       8.358  -1.536  26.467  0.00  0.00    +0.035 C 
BRANCH  50  51
ATOM     51  C   UNL     1       8.479  -1.535  24.955  0.00  0.00    -0.047 A 
ATOM     52  C   UNL     1       9.692  -1.847  24.333  0.00  0.00    +0.003 A 
ATOM     53  C   UNL     1       9.771  -1.932  22.942  0.00  0.00    +0.000 A 
ATOM     54  C   UNL     1       8.642  -1.713  22.154  0.00  0.00    +0.000 A 
ATOM     55  C   UNL     1       7.433  -1.381  22.757  0.00  0.00    +0.000 A 
ATOM     56  C   UNL     1       7.358  -1.277  24.147  0.00  0.00    +0.003 A 
ENDBRANCH  50  51
ENDBRANCH  49  50
ENDBRANCH  48  49
ENDBRANCH   1  48
TORSDOF 19
ENDMDL
MODEL 5
REMARK VINA RESULT:      -6.0      1.566      2.141
REMARK  Name = 
REMARK  19 active torsions:
REMARK  status: ('A' for Active; 'I' for Inactive)
REMARK    1  A    between atoms: C_2  and  C_4
REMARK    2  A    between atoms: C_4  and  C_6
REMARK    3  A    between atoms: C_4  and  N_16
REMARK    4  A    between atoms: C_6  and  C_7
REMARK    5  A    between atoms: C_17  and  C_19
REMARK    6  A    between atoms: C_19  and  C_21
REMARK    7  A    between atoms: C_19  and  C_30
REMARK    8  A    between atoms: C_21  and  C_22
REMARK    9  A    between atoms: C_22  and  C_23
REMARK   10  A    between atoms: C_23  and  C_24
REMARK   11  A    between atoms: C_30  and  P_31
REMARK   12  A    between atoms: P_31  and  O_32
REMARK   13  A    between atoms: P_31  and  C_34
REMARK   14  A    between atoms: C_34  and  C_36
REMARK   15  A    between atoms: C_34  and  N_43
REMARK   16  A    between atoms: C_36  and  C_37
REMARK   17  A    between atoms: C_44  and  O_46
REMARK   18  A    between atoms: O_46  and  C_47
REMARK   19  A    between atoms: C_47  and  C_48
REMARK                            x       y       z     vdW  Elec       q    Type
REMARK                         _______ _______ _______ _____ _____    ______ ____
ROOT
ATOM      1  C   UNL     1       5.091  -0.897  27.430  0.00  0.00    +0.084 C 
ENDROOT
BRANCH   1   4
ATOM      2  N   UNL     1       3.761  -2.762  26.457  0.00  0.00    -0.303 N 
ATOM      3  H   UNL     1       3.906  -2.296  25.561  0.00  0.00    +0.149 HD
ATOM      4  C   UNL     1       4.182  -2.139  27.611  0.00  0.00    +0.217 C 
ATOM      5  O   UNL     1       3.803  -2.539  28.730  0.00  0.00    -0.275 OA
BRANCH   2   6
ATOM      6  C   UNL     1       2.862  -3.964  26.395  0.00  0.00    +0.163 C 
BRANCH   6  10
ATOM      7  N   UNL     1       1.461  -4.469  24.351  0.00  0.00    -0.328 N 
ATOM      8  H   UNL     1       2.181  -5.074  23.973  0.00  0.00    +0.145 HD
ATOM      9  H   UNL     1       0.839  -4.083  23.650  0.00  0.00    +0.145 HD
ATOM     10  C   UNL     1       1.776  -3.590  25.347  0.00  0.00    +0.231 C 
ATOM     11  O   UNL     1       1.171  -2.517  25.399  0.00  0.00    -0.274 OA
ENDBRANCH   6  10
BRANCH   6  12
ATOM     12  C   UNL     1       3.564  -5.320  26.133  0.00  0.00    +0.069 C 
BRANCH  12  13
ATOM     13  C   UNL     1       5.000  -5.215  25.680  0.00  0.00    -0.020 A 
ATOM     14  C   UNL     1       5.500  -4.858  24.391  0.00  0.00    +0.003 A 
ATOM     15  C   UNL     1       6.845  -5.207  24.390  0.00  0.00    +0.047 A 
ATOM     16  C   UNL     1       7.595  -5.318  23.214  0.00  0.00    +0.026 A 
ATOM     17  C   UNL     1       7.118  -4.721  22.065  0.00  0.00    +0.002 A 
ATOM     18  C   UNL     1       5.849  -4.176  22.068  0.00  0.00    +0.001 A 
ATOM     19  N   UNL     1       7.186  -5.281  25.714  0.00  0.00    -0.360 N 
ATOM     20  H   UNL     1       8.111  -5.151  26.090  0.00  0.00    +0.165 HD
ATOM     21  C   UNL     1       5.007  -4.319  23.189  0.00  0.00    +0.010 A 
ATOM     22  C   UNL     1       6.091  -5.469  26.477  0.00  0.00    +0.087 A 
ENDBRANCH  12  13
ENDBRANCH   6  12
ENDBRANCH   2   6
ENDBRANCH   1   4
BRANCH   1  23
ATOM     23  C   UNL     1       4.296   0.394  27.003  0.00  0.00    +0.111 C 
BRANCH  23  24
ATOM     24  P   UNL     1       5.019   2.011  27.390  0.00  0.00    +0.223 P 
ATOM     25  O   UNL     1       5.445   2.114  28.813  0.00  0.00    -0.289 OA
BRANCH  24  26
ATOM     26  O   UNL     1       3.766   3.021  27.246  0.00  0.00    -0.342 OA
ATOM     27  H   UNL     1       2.907   2.579  27.394  0.00  0.00    +0.218 HD
ENDBRANCH  24  26
BRANCH  24  28
ATOM     28  C   UNL     1       6.367   2.762  26.411  0.00  0.00    +0.167 C 
BRANCH  28  29
ATOM     29  N   UNL     1       6.382   4.200  26.258  0.00  0.00    -0.269 N 
ATOM     30  H   UNL     1       6.203   4.560  25.327  0.00  0.00    +0.153 HD
ATOM     31  C   UNL     1       7.244   4.996  26.949  0.00  0.00    +0.401 C 
ATOM     32  O   UNL     1       7.636   4.793  28.083  0.00  0.00    -0.226 OA
BRANCH  31  33
ATOM     33  O   UNL     1       7.434   6.127  26.232  0.00  0.00    -0.446 OA
BRANCH  33  34
ATOM     34  C   UNL     1       7.838   5.933  24.868  0.00  0.00    +0.269 C 
BRANCH  34  35
ATOM     35  C   UNL     1       9.338   6.087  24.819  0.00  0.00    -0.010 A 
ATOM     36  C   UNL     1      10.033   6.862  25.756  0.00  0.00    +0.007 A 
ATOM     37  C   UNL     1      11.400   7.070  25.616  0.00  0.00    +0.000 A 
ATOM     38  C   UNL     1      12.097   6.411  24.616  0.00  0.00    +0.000 A 
ATOM     39  C   UNL     1      11.433   5.549  23.743  0.00  0.00    +0.000 A 
ATOM     40  C   UNL     1      10.058   5.483  23.784  0.00  0.00    +0.007 A 
ENDBRANCH  34  35
ENDBRANCH  33  34
ENDBRANCH  31  33
ENDBRANCH  28  29
BRANCH  28  41
ATOM     41  C   UNL     1       6.502   2.042  25.034  0.00  0.00    +0.067 C 
BRANCH  41  42
ATOM     42  C   UNL     1       7.802   2.158  24.250  0.00  0.00    -0.045 A 
ATOM     43  C   UNL     1       7.768   2.450  22.877  0.00  0.00    +0.004 A 
ATOM     44  C   UNL     1       8.924   2.373  22.087  0.00  0.00    +0.000 A 
ATOM     45  C   UNL     1      10.138   2.020  22.666  0.00  0.00    +0.000 A 
ATOM     46  C   UNL     1      10.204   1.760  24.039  0.00  0.00    +0.000 A 
ATOM     47  C   UNL     1       9.040   1.826  24.822  0.00  0.00    +0.004 A 
ENDBRANCH  41  42
ENDBRANCH  28  41
ENDBRANCH  24  28
ENDBRANCH  23  24
ENDBRANCH   1  23
BRANCH   1  48
ATOM     48  C   UNL     1       6.193  -1.377  26.432  0.00  0.00    +0.013 C 
BRANCH  48  49
ATOM     49  C   UNL     1       7.669  -1.125  26.726  0.00  0.00    +0.005 C 
BRANCH  49  50
ATOM     50  C   UNL     1       8.632  -2.115  26.041  0.00  0.00    +0.035 C 
BRANCH  50  51
ATOM     51  C   UNL     1       8.756  -1.887  24.546  0.00  0.00    -0.047 A 
ATOM     52  C   UNL     1       7.656  -1.467  23.792  0.00  0.00    +0.003 A 
ATOM     53  C   UNL     1       7.801  -1.172  22.435  0.00  0.00    +0.000 A 
ATOM     54  C   UNL     1       9.044  -1.287  21.815  0.00  0.00    +0.000 A 
ATOM     55  C   UNL     1      10.144  -1.724  22.546  0.00  0.00    +0.000 A 
ATOM     56  C   UNL     1       9.995  -2.037  23.898  0.00  0.00    +0.003 A 
ENDBRANCH  50  51
ENDBRANCH  49  50
ENDBRANCH  48  49
ENDBRANCH   1  48
TORSDOF 19
ENDMDL
MODEL 6
REMARK VINA RESULT:      -6.0      2.841      8.777
REMARK  Name = 
REMARK  19 active torsions:
REMARK  status: ('A' for Active; 'I' for Inactive)
REMARK    1  A    between atoms: C_2  and  C_4
REMARK    2  A    between atoms: C_4  and  C_6
REMARK    3  A    between atoms: C_4  and  N_16
REMARK    4  A    between atoms: C_6  and  C_7
REMARK    5  A    between atoms: C_17  and  C_19
REMARK    6  A    between atoms: C_19  and  C_21
REMARK    7  A    between atoms: C_19  and  C_30
REMARK    8  A    between atoms: C_21  and  C_22
REMARK    9  A    between atoms: C_22  and  C_23
REMARK   10  A    between atoms: C_23  and  C_24
REMARK   11  A    between atoms: C_30  and  P_31
REMARK   12  A    between atoms: P_31  and  O_32
REMARK   13  A    between atoms: P_31  and  C_34
REMARK   14  A    between atoms: C_34  and  C_36
REMARK   15  A    between atoms: C_34  and  N_43
REMARK   16  A    between atoms: C_36  and  C_37
REMARK   17  A    between atoms: C_44  and  O_46
REMARK   18  A    between atoms: O_46  and  C_47
REMARK   19  A    between atoms: C_47  and  C_48
REMARK                            x       y       z     vdW  Elec       q    Type
REMARK                         _______ _______ _______ _____ _____    ______ ____
ROOT
ATOM      1  C   UNL     1       7.140  -2.167  22.968  0.00  0.00    +0.084 C 
ENDROOT
BRANCH   1   4
ATOM      2  N   UNL     1       6.614  -0.260  24.478  0.00  0.00    -0.303 N 
ATOM      3  H   UNL     1       7.569   0.049  24.293  0.00  0.00    +0.149 HD
ATOM      4  C   UNL     1       6.201  -1.481  23.992  0.00  0.00    +0.217 C 
ATOM      5  O   UNL     1       5.148  -2.011  24.403  0.00  0.00    -0.275 OA
BRANCH   2   6
ATOM      6  C   UNL     1       5.876   0.569  25.490  0.00  0.00    +0.163 C 
BRANCH   6  10
ATOM      7  N   UNL     1       8.162   0.285  26.535  0.00  0.00    -0.328 N 
ATOM      8  H   UNL     1       8.265  -0.638  26.126  0.00  0.00    +0.145 HD
ATOM      9  H   UNL     1       8.723   0.429  27.366  0.00  0.00    +0.145 HD
ATOM     10  C   UNL     1       6.924   0.856  26.603  0.00  0.00    +0.231 C 
ATOM     11  O   UNL     1       6.673   1.607  27.548  0.00  0.00    -0.274 OA
ENDBRANCH   6  10
BRANCH   6  12
ATOM     12  C   UNL     1       5.165   1.831  24.941  0.00  0.00    +0.069 C 
BRANCH  12  13
ATOM     13  C   UNL     1       5.952   2.608  23.914  0.00  0.00    -0.020 A 
ATOM     14  C   UNL     1       7.011   3.543  24.129  0.00  0.00    +0.003 A 
ATOM     15  C   UNL     1       7.188   4.208  22.922  0.00  0.00    +0.047 A 
ATOM     16  C   UNL     1       7.896   5.410  22.820  0.00  0.00    +0.026 A 
ATOM     17  C   UNL     1       8.751   5.764  23.843  0.00  0.00    +0.002 A 
ATOM     18  C   UNL     1       8.760   5.013  25.002  0.00  0.00    +0.001 A 
ATOM     19  N   UNL     1       6.634   3.379  21.984  0.00  0.00    -0.360 N 
ATOM     20  H   UNL     1       6.884   3.345  21.009  0.00  0.00    +0.165 HD
ATOM     21  C   UNL     1       7.837   3.964  25.187  0.00  0.00    +0.010 A 
ATOM     22  C   UNL     1       5.752   2.535  22.556  0.00  0.00    +0.087 A 
ENDBRANCH  12  13
ENDBRANCH   6  12
ENDBRANCH   2   6
ENDBRANCH   1   4
BRANCH   1  23
ATOM     23  C   UNL     1       6.362  -2.962  21.852  0.00  0.00    +0.111 C 
BRANCH  23  24
ATOM     24  P   UNL     1       6.123  -4.744  22.082  0.00  0.00    +0.223 P 
ATOM     25  O   UNL     1       7.350  -5.420  22.586  0.00  0.00    -0.289 OA
BRANCH  24  26
ATOM     26  O   UNL     1       5.926  -5.289  20.573  0.00  0.00    -0.342 OA
ATOM     27  H   UNL     1       6.697  -5.104  20.002  0.00  0.00    +0.218 HD
ENDBRANCH  24  26
BRANCH  24  28
ATOM     28  C   UNL     1       4.737  -5.450  23.041  0.00  0.00    +0.167 C 
BRANCH  28  29
ATOM     29  N   UNL     1       3.803  -4.538  23.664  0.00  0.00    -0.269 N 
ATOM     30  H   UNL     1       4.125  -4.055  24.496  0.00  0.00    +0.153 HD
ATOM     31  C   UNL     1       2.466  -4.788  23.714  0.00  0.00    +0.401 C 
ATOM     32  O   UNL     1       1.824  -5.362  22.854  0.00  0.00    -0.226 OA
BRANCH  31  33
ATOM     33  O   UNL     1       1.957  -4.131  24.781  0.00  0.00    -0.446 OA
BRANCH  33  34
ATOM     34  C   UNL     1       1.594  -4.956  25.899  0.00  0.00    +0.269 C 
BRANCH  34  35
ATOM     35  C   UNL     1       2.239  -4.359  27.125  0.00  0.00    -0.010 A 
ATOM     36  C   UNL     1       1.988  -4.857  28.409  0.00  0.00    +0.007 A 
ATOM     37  C   UNL     1       2.512  -4.213  29.524  0.00  0.00    +0.000 A 
ATOM     38  C   UNL     1       3.382  -3.147  29.357  0.00  0.00    +0.000 A 
ATOM     39  C   UNL     1       3.726  -2.710  28.078  0.00  0.00    +0.000 A 
ATOM     40  C   UNL     1       3.071  -3.244  26.990  0.00  0.00    +0.007 A 
ENDBRANCH  34  35
ENDBRANCH  33  34
ENDBRANCH  31  33
ENDBRANCH  28  29
BRANCH  28  41
ATOM     41  C   UNL     1       5.266  -6.507  24.059  0.00  0.00    +0.067 C 
BRANCH  41  42
ATOM     42  C   UNL     1       5.403  -6.131  25.529  0.00  0.00    -0.045 A 
ATOM     43  C   UNL     1       6.297  -5.118  25.912  0.00  0.00    +0.004 A 
ATOM     44  C   UNL     1       6.593  -4.881  27.261  0.00  0.00    +0.000 A 
ATOM     45  C   UNL     1       5.980  -5.642  28.251  0.00  0.00    +0.000 A 
ATOM     46  C   UNL     1       5.058  -6.632  27.896  0.00  0.00    +0.000 A 
ATOM     47  C   UNL     1       4.777  -6.874  26.541  0.00  0.00    +0.004 A 
ENDBRANCH  41  42
ENDBRANCH  28  41
ENDBRANCH  24  28
ENDBRANCH  23  24
ENDBRANCH   1  23
BRANCH   1  48
ATOM     48  C   UNL     1       8.112  -3.012  23.852  0.00  0.00    +0.013 C 
BRANCH  48  49
ATOM     49  C   UNL     1       9.536  -2.533  24.114  0.00  0.00    +0.005 C 
BRANCH  49  50
ATOM     50  C   UNL     1      10.223  -1.883  22.897  0.00  0.00    +0.035 C 
BRANCH  50  51
ATOM     51  C   UNL     1      10.206  -0.367  22.942  0.00  0.00    -0.047 A 
ATOM     52  C   UNL     1      10.685   0.322  24.060  0.00  0.00    +0.003 A 
ATOM     53  C   UNL     1      10.751   1.717  24.057  0.00  0.00    +0.000 A 
ATOM     54  C   UNL     1      10.344   2.441  22.937  0.00  0.00    +0.000 A 
ATOM     55  C   UNL     1       9.846   1.771  21.824  0.00  0.00    +0.000 A 
ATOM     56  C   UNL     1       9.762   0.378  21.835  0.00  0.00    +0.003 A 
ENDBRANCH  50  51
ENDBRANCH  49  50
ENDBRANCH  48  49
ENDBRANCH   1  48
TORSDOF 19
ENDMDL
MODEL 7
REMARK VINA RESULT:      -6.0      1.909      3.550
REMARK  Name = 
REMARK  19 active torsions:
REMARK  status: ('A' for Active; 'I' for Inactive)
REMARK    1  A    between atoms: C_2  and  C_4
REMARK    2  A    between atoms: C_4  and  C_6
REMARK    3  A    between atoms: C_4  and  N_16
REMARK    4  A    between atoms: C_6  and  C_7
REMARK    5  A    between atoms: C_17  and  C_19
REMARK    6  A    between atoms: C_19  and  C_21
REMARK    7  A    between atoms: C_19  and  C_30
REMARK    8  A    between atoms: C_21  and  C_22
REMARK    9  A    between atoms: C_22  and  C_23
REMARK   10  A    between atoms: C_23  and  C_24
REMARK   11  A    between atoms: C_30  and  P_31
REMARK   12  A    between atoms: P_31  and  O_32
REMARK   13  A    between atoms: P_31  and  C_34
REMARK   14  A    between atoms: C_34  and  C_36
REMARK   15  A    between atoms: C_34  and  N_43
REMARK   16  A    between atoms: C_36  and  C_37
REMARK   17  A    between atoms: C_44  and  O_46
REMARK   18  A    between atoms: O_46  and  C_47
REMARK   19  A    between atoms: C_47  and  C_48
REMARK                            x       y       z     vdW  Elec       q    Type
REMARK                         _______ _______ _______ _____ _____    ______ ____
ROOT
ATOM      1  C   UNL     1       5.507   0.243  28.040  0.00  0.00    +0.084 C 
ENDROOT
BRANCH   1   4
ATOM      2  N   UNL     1       4.538  -1.922  27.285  0.00  0.00    -0.303 N 
ATOM      3  H   UNL     1       4.930  -2.308  28.145  0.00  0.00    +0.149 HD
ATOM      4  C   UNL     1       4.828  -0.619  26.946  0.00  0.00    +0.217 C 
ATOM      5  O   UNL     1       4.592  -0.188  25.798  0.00  0.00    -0.275 OA
BRANCH   2   6
ATOM      6  C   UNL     1       3.903  -2.937  26.379  0.00  0.00    +0.163 C 
BRANCH   6  10
ATOM      7  N   UNL     1       1.766  -2.968  27.730  0.00  0.00    -0.328 N 
ATOM      8  H   UNL     1       2.110  -3.725  28.310  0.00  0.00    +0.145 HD
ATOM      9  H   UNL     1       0.755  -2.907  27.694  0.00  0.00    +0.145 HD
ATOM     10  C   UNL     1       2.374  -2.704  26.537  0.00  0.00    +0.231 C 
ATOM     11  O   UNL     1       1.688  -2.267  25.610  0.00  0.00    -0.274 OA
ENDBRANCH   6  10
BRANCH   6  12
ATOM     12  C   UNL     1       4.402  -2.939  24.912  0.00  0.00    +0.069 C 
BRANCH  12  13
ATOM     13  C   UNL     1       5.433  -3.994  24.593  0.00  0.00    -0.020 A 
ATOM     14  C   UNL     1       6.700  -4.213  25.215  0.00  0.00    +0.003 A 
ATOM     15  C   UNL     1       7.395  -5.077  24.378  0.00  0.00    +0.047 A 
ATOM     16  C   UNL     1       8.778  -5.267  24.470  0.00  0.00    +0.026 A 
ATOM     17  C   UNL     1       9.423  -4.892  25.631  0.00  0.00    +0.002 A 
ATOM     18  C   UNL     1       8.720  -4.195  26.595  0.00  0.00    +0.001 A 
ATOM     19  N   UNL     1       6.428  -5.684  23.623  0.00  0.00    -0.360 N 
ATOM     20  H   UNL     1       6.503  -6.589  23.189  0.00  0.00    +0.165 HD
ATOM     21  C   UNL     1       7.395  -3.778  26.358  0.00  0.00    +0.010 A 
ATOM     22  C   UNL     1       5.303  -4.939  23.604  0.00  0.00    +0.087 A 
ENDBRANCH  12  13
ENDBRANCH   6  12
ENDBRANCH   2   6
ENDBRANCH   1   4
BRANCH   1  23
ATOM     23  C   UNL     1       4.599   1.428  28.545  0.00  0.00    +0.111 C 
BRANCH  23  24
ATOM     24  P   UNL     1       3.998   2.625  27.324  0.00  0.00    +0.223 P 
ATOM     25  O   UNL     1       3.268   3.759  27.954  0.00  0.00    -0.289 OA
BRANCH  24  26
ATOM     26  O   UNL     1       2.874   1.793  26.512  0.00  0.00    -0.342 OA
ATOM     27  H   UNL     1       2.655   2.200  25.651  0.00  0.00    +0.218 HD
ENDBRANCH  24  26
BRANCH  24  28
ATOM     28  C   UNL     1       5.070   3.372  26.047  0.00  0.00    +0.167 C 
BRANCH  28  29
ATOM     29  N   UNL     1       5.471   2.552  24.925  0.00  0.00    -0.269 N 
ATOM     30  H   UNL     1       6.467   2.404  24.802  0.00  0.00    +0.153 HD
ATOM     31  C   UNL     1       4.816   2.581  23.732  0.00  0.00    +0.401 C 
ATOM     32  O   UNL     1       3.620   2.752  23.589  0.00  0.00    -0.226 OA
BRANCH  31  33
ATOM     33  O   UNL     1       5.687   2.205  22.768  0.00  0.00    -0.446 OA
BRANCH  33  34
ATOM     34  C   UNL     1       6.532   3.247  22.258  0.00  0.00    +0.269 C 
BRANCH  34  35
ATOM     35  C   UNL     1       7.960   2.797  22.444  0.00  0.00    -0.010 A 
ATOM     36  C   UNL     1       8.557   1.858  21.593  0.00  0.00    +0.007 A 
ATOM     37  C   UNL     1       9.836   1.385  21.860  0.00  0.00    +0.000 A 
ATOM     38  C   UNL     1      10.568   1.932  22.902  0.00  0.00    +0.000 A 
ATOM     39  C   UNL     1      10.026   2.946  23.690  0.00  0.00    +0.000 A 
ATOM     40  C   UNL     1       8.701   3.286  23.525  0.00  0.00    +0.007 A 
ENDBRANCH  34  35
ENDBRANCH  33  34
ENDBRANCH  31  33
ENDBRANCH  28  29
BRANCH  28  41
ATOM     41  C   UNL     1       6.298   4.068  26.710  0.00  0.00    +0.067 C 
BRANCH  41  42
ATOM     42  C   UNL     1       6.988   5.220  25.992  0.00  0.00    -0.045 A 
ATOM     43  C   UNL     1       6.349   5.857  24.915  0.00  0.00    +0.004 A 
ATOM     44  C   UNL     1       7.028   6.784  24.112  0.00  0.00    +0.000 A 
ATOM     45  C   UNL     1       8.353   7.104  24.387  0.00  0.00    +0.000 A 
ATOM     46  C   UNL     1       8.999   6.510  25.477  0.00  0.00    +0.000 A 
ATOM     47  C   UNL     1       8.318   5.571  26.270  0.00  0.00    +0.004 A 
ENDBRANCH  41  42
ENDBRANCH  28  41
ENDBRANCH  24  28
ENDBRANCH  23  24
ENDBRANCH   1  23
BRANCH   1  48
ATOM     48  C   UNL     1       6.872   0.657  27.403  0.00  0.00    +0.013 C 
BRANCH  48  49
ATOM     49  C   UNL     1       7.940  -0.392  27.110  0.00  0.00    +0.005 C 
BRANCH  49  50
ATOM     50  C   UNL     1       8.963   0.025  26.034  0.00  0.00    +0.035 C 
BRANCH  50  51
ATOM     51  C   UNL     1       8.762  -0.690  24.712  0.00  0.00    -0.047 A 
ATOM     52  C   UNL     1       9.788  -1.455  24.148  0.00  0.00    +0.003 A 
ATOM     53  C   UNL     1       9.566  -2.184  22.978  0.00  0.00    +0.000 A 
ATOM     54  C   UNL     1       8.317  -2.162  22.358  0.00  0.00    +0.000 A 
ATOM     55  C   UNL     1       7.292  -1.390  22.895  0.00  0.00    +0.000 A 
ATOM     56  C   UNL     1       7.520  -0.646  24.054  0.00  0.00    +0.003 A 
ENDBRANCH  50  51
ENDBRANCH  49  50
ENDBRANCH  48  49
ENDBRANCH   1  48
TORSDOF 19
ENDMDL
MODEL 8
REMARK VINA RESULT:      -5.9      2.042      8.256
REMARK  Name = 
REMARK  19 active torsions:
REMARK  status: ('A' for Active; 'I' for Inactive)
REMARK    1  A    between atoms: C_2  and  C_4
REMARK    2  A    between atoms: C_4  and  C_6
REMARK    3  A    between atoms: C_4  and  N_16
REMARK    4  A    between atoms: C_6  and  C_7
REMARK    5  A    between atoms: C_17  and  C_19
REMARK    6  A    between atoms: C_19  and  C_21
REMARK    7  A    between atoms: C_19  and  C_30
REMARK    8  A    between atoms: C_21  and  C_22
REMARK    9  A    between atoms: C_22  and  C_23
REMARK   10  A    between atoms: C_23  and  C_24
REMARK   11  A    between atoms: C_30  and  P_31
REMARK   12  A    between atoms: P_31  and  O_32
REMARK   13  A    between atoms: P_31  and  C_34
REMARK   14  A    between atoms: C_34  and  C_36
REMARK   15  A    between atoms: C_34  and  N_43
REMARK   16  A    between atoms: C_36  and  C_37
REMARK   17  A    between atoms: C_44  and  O_46
REMARK   18  A    between atoms: O_46  and  C_47
REMARK   19  A    between atoms: C_47  and  C_48
REMARK                            x       y       z     vdW  Elec       q    Type
REMARK                         _______ _______ _______ _____ _____    ______ ____
ROOT
ATOM      1  C   UNL     1       5.370   0.163  26.843  0.00  0.00    +0.084 C 
ENDROOT
BRANCH   1   4
ATOM      2  N   UNL     1       6.109   2.512  26.484  0.00  0.00    -0.303 N 
ATOM      3  H   UNL     1       7.018   2.196  26.821  0.00  0.00    +0.149 HD
ATOM      4  C   UNL     1       5.040   1.644  26.532  0.00  0.00    +0.217 C 
ATOM      5  O   UNL     1       3.872   2.057  26.378  0.00  0.00    -0.275 OA
BRANCH   2   6
ATOM      6  C   UNL     1       6.020   3.988  26.221  0.00  0.00    +0.163 C 
BRANCH   6  10
ATOM      7  N   UNL     1       7.954   5.585  26.546  0.00  0.00    -0.328 N 
ATOM      8  H   UNL     1       8.170   5.569  25.555  0.00  0.00    +0.145 HD
ATOM      9  H   UNL     1       8.743   5.832  27.133  0.00  0.00    +0.145 HD
ATOM     10  C   UNL     1       7.160   4.609  27.077  0.00  0.00    +0.231 C 
ATOM     11  O   UNL     1       7.360   4.255  28.241  0.00  0.00    -0.274 OA
ENDBRANCH   6  10
BRANCH   6  12
ATOM     12  C   UNL     1       6.036   4.411  24.731  0.00  0.00    +0.069 C 
BRANCH  12  13
ATOM     13  C   UNL     1       6.447   3.326  23.767  0.00  0.00    -0.020 A 
ATOM     14  C   UNL     1       7.756   2.814  23.512  0.00  0.00    +0.003 A 
ATOM     15  C   UNL     1       7.658   2.069  22.343  0.00  0.00    +0.047 A 
ATOM     16  C   UNL     1       8.777   1.686  21.597  0.00  0.00    +0.026 A 
ATOM     17  C   UNL     1      10.017   1.713  22.201  0.00  0.00    +0.002 A 
ATOM     18  C   UNL     1      10.140   2.269  23.460  0.00  0.00    +0.001 A 
ATOM     19  N   UNL     1       6.326   1.773  22.231  0.00  0.00    -0.360 N 
ATOM     20  H   UNL     1       5.940   0.982  21.742  0.00  0.00    +0.165 HD
ATOM     21  C   UNL     1       9.041   2.896  24.079  0.00  0.00    +0.010 A 
ATOM     22  C   UNL     1       5.583   2.643  22.944  0.00  0.00    +0.087 A 
ENDBRANCH  12  13
ENDBRANCH   6  12
ENDBRANCH   2   6
ENDBRANCH   1   4
BRANCH   1  23
ATOM     23  C   UNL     1       4.288  -0.535  27.751  0.00  0.00    +0.111 C 
BRANCH  23  24
ATOM     24  P   UNL     1       3.660  -2.157  27.240  0.00  0.00    +0.223 P 
ATOM     25  O   UNL     1       3.430  -2.238  25.772  0.00  0.00    -0.289 OA
BRANCH  24  26
ATOM     26  O   UNL     1       2.189  -2.211  27.907  0.00  0.00    -0.342 OA
ATOM     27  H   UNL     1       1.546  -2.705  27.361  0.00  0.00    +0.218 HD
ENDBRANCH  24  26
BRANCH  24  28
ATOM     28  C   UNL     1       4.465  -3.730  27.705  0.00  0.00    +0.167 C 
BRANCH  28  29
ATOM     29  N   UNL     1       5.710  -4.079  27.057  0.00  0.00    -0.269 N 
ATOM     30  H   UNL     1       5.737  -3.994  26.046  0.00  0.00    +0.153 HD
ATOM     31  C   UNL     1       6.498  -5.098  27.497  0.00  0.00    +0.401 C 
ATOM     32  O   UNL     1       6.643  -5.426  28.659  0.00  0.00    -0.226 OA
BRANCH  31  33
ATOM     33  O   UNL     1       7.223  -5.549  26.447  0.00  0.00    -0.446 OA
BRANCH  33  34
ATOM     34  C   UNL     1       7.658  -4.543  25.519  0.00  0.00    +0.269 C 
BRANCH  34  35
ATOM     35  C   UNL     1       7.043  -4.873  24.181  0.00  0.00    -0.010 A 
ATOM     36  C   UNL     1       5.712  -4.556  23.880  0.00  0.00    +0.007 A 
ATOM     37  C   UNL     1       5.148  -4.972  22.680  0.00  0.00    +0.000 A 
ATOM     38  C   UNL     1       5.938  -5.598  21.729  0.00  0.00    +0.000 A 
ATOM     39  C   UNL     1       7.293  -5.821  21.972  0.00  0.00    +0.000 A 
ATOM     40  C   UNL     1       7.800  -5.559  23.226  0.00  0.00    +0.007 A 
ENDBRANCH  34  35
ENDBRANCH  33  34
ENDBRANCH  31  33
ENDBRANCH  28  29
BRANCH  28  41
ATOM     41  C   UNL     1       3.440  -4.904  27.637  0.00  0.00    +0.067 C 
BRANCH  41  42
ATOM     42  C   UNL     1       3.218  -5.632  26.318  0.00  0.00    -0.045 A 
ATOM     43  C   UNL     1       2.223  -5.188  25.431  0.00  0.00    +0.004 A 
ATOM     44  C   UNL     1       1.861  -5.942  24.307  0.00  0.00    +0.000 A 
ATOM     45  C   UNL     1       2.505  -7.146  24.041  0.00  0.00    +0.000 A 
ATOM     46  C   UNL     1       3.525  -7.591  24.889  0.00  0.00    +0.000 A 
ATOM     47  C   UNL     1       3.874  -6.836  26.022  0.00  0.00    +0.004 A 
ENDBRANCH  41  42
ENDBRANCH  28  41
ENDBRANCH  24  28
ENDBRANCH  23  24
ENDBRANCH   1  23
BRANCH   1  48
ATOM     48  C   UNL     1       6.818   0.213  27.428  0.00  0.00    +0.013 C 
BRANCH  48  49
ATOM     49  C   UNL     1       7.842  -0.856  27.058  0.00  0.00    +0.005 C 
BRANCH  49  50
ATOM     50  C   UNL     1       8.910  -0.392  26.049  0.00  0.00    +0.035 C 
BRANCH  50  51
ATOM     51  C   UNL     1       8.753  -1.025  24.680  0.00  0.00    -0.047 A 
ATOM     52  C   UNL     1       7.499  -1.100  24.065  0.00  0.00    +0.003 A 
ATOM     53  C   UNL     1       7.376  -1.601  22.767  0.00  0.00    +0.000 A 
ATOM     54  C   UNL     1       8.502  -2.029  22.066  0.00  0.00    +0.000 A 
ATOM     55  C   UNL     1       9.753  -1.981  22.671  0.00  0.00    +0.000 A 
ATOM     56  C   UNL     1       9.873  -1.498  23.974  0.00  0.00    +0.003 A 
ENDBRANCH  50  51
ENDBRANCH  49  50
ENDBRANCH  48  49
ENDBRANCH   1  48
TORSDOF 19
ENDMDL
MODEL 9
REMARK VINA RESULT:      -5.9      1.966      3.786
REMARK  Name = 
REMARK  19 active torsions:
REMARK  status: ('A' for Active; 'I' for Inactive)
REMARK    1  A    between atoms: C_2  and  C_4
REMARK    2  A    between atoms: C_4  and  C_6
REMARK    3  A    between atoms: C_4  and  N_16
REMARK    4  A    between atoms: C_6  and  C_7
REMARK    5  A    between atoms: C_17  and  C_19
REMARK    6  A    between atoms: C_19  and  C_21
REMARK    7  A    between atoms: C_19  and  C_30
REMARK    8  A    between atoms: C_21  and  C_22
REMARK    9  A    between atoms: C_22  and  C_23
REMARK   10  A    between atoms: C_23  and  C_24
REMARK   11  A    between atoms: C_30  and  P_31
REMARK   12  A    between atoms: P_31  and  O_32
REMARK   13  A    between atoms: P_31  and  C_34
REMARK   14  A    between atoms: C_34  and  C_36
REMARK   15  A    between atoms: C_34  and  N_43
REMARK   16  A    between atoms: C_36  and  C_37
REMARK   17  A    between atoms: C_44  and  O_46
REMARK   18  A    between atoms: O_46  and  C_47
REMARK   19  A    between atoms: C_47  and  C_48
REMARK                            x       y       z     vdW  Elec       q    Type
REMARK                         _______ _______ _______ _____ _____    ______ ____
ROOT
ATOM      1  C   UNL     1       8.462  -2.572  25.899  0.00  0.00    +0.084 C 
ENDROOT
BRANCH   1   4
ATOM      2  N   UNL     1       6.686  -3.922  27.002  0.00  0.00    -0.303 N 
ATOM      3  H   UNL     1       6.189  -3.038  27.111  0.00  0.00    +0.149 HD
ATOM      4  C   UNL     1       7.972  -3.909  26.508  0.00  0.00    +0.217 C 
ATOM      5  O   UNL     1       8.702  -4.917  26.598  0.00  0.00    -0.275 OA
BRANCH   2   6
ATOM      6  C   UNL     1       6.015  -5.098  27.652  0.00  0.00    +0.163 C 
BRANCH   6  10
ATOM      7  N   UNL     1       5.006  -5.101  29.972  0.00  0.00    -0.328 N 
ATOM      8  H   UNL     1       5.041  -6.113  30.016  0.00  0.00    +0.145 HD
ATOM      9  H   UNL     1       4.306  -4.688  30.578  0.00  0.00    +0.145 HD
ATOM     10  C   UNL     1       5.122  -4.476  28.763  0.00  0.00    +0.231 C 
ATOM     11  O   UNL     1       4.521  -3.414  28.590  0.00  0.00    -0.274 OA
ENDBRANCH   6  10
BRANCH   6  12
ATOM     12  C   UNL     1       5.269  -6.063  26.698  0.00  0.00    +0.069 C 
BRANCH  12  13
ATOM     13  C   UNL     1       4.765  -5.433  25.423  0.00  0.00    -0.020 A 
ATOM     14  C   UNL     1       5.455  -5.264  24.184  0.00  0.00    +0.003 A 
ATOM     15  C   UNL     1       4.696  -4.368  23.440  0.00  0.00    +0.047 A 
ATOM     16  C   UNL     1       5.200  -3.702  22.317  0.00  0.00    +0.026 A 
ATOM     17  C   UNL     1       6.331  -4.201  21.704  0.00  0.00    +0.002 A 
ATOM     18  C   UNL     1       7.021  -5.236  22.306  0.00  0.00    +0.001 A 
ATOM     19  N   UNL     1       3.448  -4.423  23.998  0.00  0.00    -0.360 N 
ATOM     20  H   UNL     1       2.584  -4.207  23.528  0.00  0.00    +0.165 HD
ATOM     21  C   UNL     1       6.644  -5.708  23.578  0.00  0.00    +0.010 A 
ATOM     22  C   UNL     1       3.511  -4.894  25.260  0.00  0.00    +0.087 A 
ENDBRANCH  12  13
ENDBRANCH   6  12
ENDBRANCH   2   6
ENDBRANCH   1   4
BRANCH   1  23
ATOM     23  C   UNL     1       7.284  -1.600  25.511  0.00  0.00    +0.111 C 
BRANCH  23  24
ATOM     24  P   UNL     1       6.867  -0.261  26.660  0.00  0.00    +0.223 P 
ATOM     25  O   UNL     1       7.911  -0.064  27.703  0.00  0.00    -0.289 OA
BRANCH  24  26
ATOM     26  O   UNL     1       5.580  -0.837  27.449  0.00  0.00    -0.342 OA
ATOM     27  H   UNL     1       4.830  -1.033  26.853  0.00  0.00    +0.218 HD
ENDBRANCH  24  26
BRANCH  24  28
ATOM     28  C   UNL     1       6.393   1.415  26.109  0.00  0.00    +0.167 C 
BRANCH  28  29
ATOM     29  N   UNL     1       5.568   1.539  24.927  0.00  0.00    -0.269 N 
ATOM     30  H   UNL     1       6.044   1.772  24.062  0.00  0.00    +0.153 HD
ATOM     31  C   UNL     1       4.313   2.063  24.968  0.00  0.00    +0.401 C 
ATOM     32  O   UNL     1       3.529   1.945  25.891  0.00  0.00    -0.226 OA
BRANCH  31  33
ATOM     33  O   UNL     1       4.031   2.569  23.745  0.00  0.00    -0.446 OA
BRANCH  33  34
ATOM     34  C   UNL     1       3.755   3.977  23.708  0.00  0.00    +0.269 C 
BRANCH  34  35
ATOM     35  C   UNL     1       4.995   4.663  23.190  0.00  0.00    -0.010 A 
ATOM     36  C   UNL     1       5.167   6.050  23.283  0.00  0.00    +0.007 A 
ATOM     37  C   UNL     1       6.271   6.659  22.698  0.00  0.00    +0.000 A 
ATOM     38  C   UNL     1       7.263   5.880  22.125  0.00  0.00    +0.000 A 
ATOM     39  C   UNL     1       7.157   4.489  22.124  0.00  0.00    +0.000 A 
ATOM     40  C   UNL     1       5.984   3.907  22.553  0.00  0.00    +0.007 A 
ENDBRANCH  34  35
ENDBRANCH  33  34
ENDBRANCH  31  33
ENDBRANCH  28  29
BRANCH  28  41
ATOM     41  C   UNL     1       7.651   2.333  26.022  0.00  0.00    +0.067 C 
BRANCH  41  42
ATOM     42  C   UNL     1       7.478   3.846  26.013  0.00  0.00    -0.045 A 
ATOM     43  C   UNL     1       8.485   4.663  25.474  0.00  0.00    +0.004 A 
ATOM     44  C   UNL     1       8.450   6.056  25.623  0.00  0.00    +0.000 A 
ATOM     45  C   UNL     1       7.393   6.656  26.299  0.00  0.00    +0.000 A 
ATOM     46  C   UNL     1       6.359   5.866  26.813  0.00  0.00    +0.000 A 
ATOM     47  C   UNL     1       6.408   4.470  26.672  0.00  0.00    +0.004 A 
ENDBRANCH  41  42
ENDBRANCH  28  41
ENDBRANCH  24  28
ENDBRANCH  23  24
ENDBRANCH   1  23
BRANCH   1  48
ATOM     48  C   UNL     1       9.395  -3.010  24.725  0.00  0.00    +0.013 C 
BRANCH  48  49
ATOM     49  C   UNL     1       9.147  -2.505  23.307  0.00  0.00    +0.005 C 
BRANCH  49  50
ATOM     50  C   UNL     1      10.339  -1.752  22.682  0.00  0.00    +0.035 C 
BRANCH  50  51
ATOM     51  C   UNL     1      10.245  -0.247  22.847  0.00  0.00    -0.047 A 
ATOM     52  C   UNL     1      10.705   0.377  24.010  0.00  0.00    +0.003 A 
ATOM     53  C   UNL     1      10.700   1.769  24.116  0.00  0.00    +0.000 A 
ATOM     54  C   UNL     1      10.239   2.556  23.062  0.00  0.00    +0.000 A 
ATOM     55  C   UNL     1       9.759   1.951  21.906  0.00  0.00    +0.000 A 
ATOM     56  C   UNL     1       9.747   0.559  21.807  0.00  0.00    +0.003 A 
ENDBRANCH  50  51
ENDBRANCH  49  50
ENDBRANCH  48  49
ENDBRANCH   1  48
TORSDOF 19
ENDMDL
