MODEL 1
REMARK VINA RESULT:      -6.0      0.000      0.000
REMARK  Name = 
REMARK  22 active torsions:
REMARK  status: ('A' for Active; 'I' for Inactive)
REMARK    1  A    between atoms: C_2  and  O_3
REMARK    2  A    between atoms: C_2  and  C_4
REMARK    3  A    between atoms: C_2  and  C_23
REMARK    4  A    between atoms: N_6  and  C_7
REMARK    5  A    between atoms: C_7  and  C_8
REMARK    6  A    between atoms: C_8  and  C_9
REMARK    7  A    between atoms: N_11  and  C_12
REMARK    8  A    between atoms: C_12  and  C_13
REMARK    9  A    between atoms: C_13  and  S_14
REMARK   10  A    between atoms: S_14  and  C_15
REMARK   11  A    between atoms: C_15  and  C_17
REMARK   12  A    between atoms: C_17  and  C_18
REMARK   13  A    between atoms: C_18  and  C_19
REMARK   14  A    between atoms: C_19  and  C_20
REMARK   15  A    between atoms: C_20  and  C_21
REMARK   16  A    between atoms: C_21  and  C_22
REMARK   17  A    between atoms: C_23  and  C_24
REMARK   18  A    between atoms: C_23  and  C_25
REMARK   19  A    between atoms: C_23  and  C_26
REMARK   20  A    between atoms: C_26  and  O_27
REMARK   21  A    between atoms: O_27  and  P_28
REMARK   22  A    between atoms: P_28  and  O_30
REMARK                            x       y       z     vdW  Elec       q    Type
REMARK                         _______ _______ _______ _____ _____    ______ ____
ROOT
ATOM      1  C   UNL     1       8.574   0.688  22.467  0.00  0.00    +0.242 C 
ATOM      2  N   UNL     1       9.469  -0.361  22.394  0.00  0.00    -0.313 N 
ATOM      3  H   UNL     1      10.448  -0.194  22.217  0.00  0.00    +0.149 HD
ATOM      4  O   UNL     1       7.366   0.514  22.612  0.00  0.00    -0.273 OA
ENDROOT
BRANCH   2   5
ATOM      5  C   UNL     1       9.030  -1.746  22.384  0.00  0.00    +0.113 C 
BRANCH   5   6
ATOM      6  C   UNL     1       9.722  -2.595  23.442  0.00  0.00    +0.114 C 
BRANCH   6   7
ATOM      7  C   UNL     1       8.984  -2.453  24.753  0.00  0.00    +0.215 C 
ATOM      8  N   UNL     1       8.706  -3.647  25.380  0.00  0.00    -0.314 N 
ATOM      9  H   UNL     1       9.243  -4.463  25.106  0.00  0.00    +0.149 HD
ATOM     10  O   UNL     1       8.655  -1.359  25.202  0.00  0.00    -0.276 OA
BRANCH   8  11
ATOM     11  C   UNL     1       8.100  -3.672  26.700  0.00  0.00    +0.115 C 
BRANCH  11  12
ATOM     12  C   UNL     1       6.600  -3.964  26.660  0.00  0.00    +0.096 C 
BRANCH  12  13
ATOM     13  S   UNL     1       5.625  -2.446  26.932  0.00  0.00    -0.087 S 
BRANCH  13  14
ATOM     14  C   UNL     1       4.520  -2.562  25.559  0.00  0.00    +0.189 C 
ATOM     15  O   UNL     1       3.331  -2.290  25.666  0.00  0.00    -0.285 OA
BRANCH  14  16
ATOM     16  C   UNL     1       5.169  -3.075  24.289  0.00  0.00    +0.086 C 
BRANCH  16  17
ATOM     17  C   UNL     1       4.328  -4.167  23.630  0.00  0.00    +0.008 C 
BRANCH  17  18
ATOM     18  C   UNL     1       5.155  -5.426  23.359  0.00  0.00    +0.000 C 
BRANCH  18  19
ATOM     19  C   UNL     1       6.625  -5.081  23.115  0.00  0.00    -0.000 C 
BRANCH  19  20
ATOM     20  C   UNL     1       7.191  -5.833  21.910  0.00  0.00    -0.003 C 
ATOM     21  C   UNL     1       6.200  -5.857  20.757  0.00  0.00    +0.004 C 
ENDBRANCH  19  20
ENDBRANCH  18  19
ENDBRANCH  17  18
ENDBRANCH  16  17
ENDBRANCH  14  16
ENDBRANCH  13  14
ENDBRANCH  12  13
ENDBRANCH  11  12
ENDBRANCH   8  11
ENDBRANCH   6   7
ENDBRANCH   5   6
ENDBRANCH   2   5
BRANCH   1  22
ATOM     22  C   UNL     1       9.196   2.108  22.431  0.00  0.00    +0.208 C 
BRANCH  22  23
ATOM     23  C   UNL     1       9.777   2.592  23.798  0.00  0.00    +0.023 C 
ATOM     24  C   UNL     1      10.844   1.595  24.299  0.00  0.00    +0.016 C 
ATOM     25  C   UNL     1       8.645   2.619  24.849  0.00  0.00    +0.016 C 
BRANCH  23  26
ATOM     26  C   UNL     1      10.406   3.999  23.665  0.00  0.00    +0.179 C 
BRANCH  26  27
ATOM     27  O   UNL     1      11.782   3.962  23.315  0.00  0.00    -0.309 OA
BRANCH  27  28
ATOM     28  P   UNL     1      12.554   5.388  23.205  0.00  0.00    +0.319 P 
ATOM     29  H   UNL     1      12.366   5.803  21.871  0.00  0.00    +0.159 HD
ATOM     30  O   UNL     1      12.328   6.235  24.425  0.00  0.00    -0.262 OA
BRANCH  28  31
ATOM     31  O   UNL     1      14.084   4.873  23.249  0.00  0.00    -0.326 OA
ATOM     32  H   UNL     1      14.297   4.461  24.105  0.00  0.00    +0.220 HD
ENDBRANCH  28  31
ENDBRANCH  27  28
ENDBRANCH  26  27
ENDBRANCH  23  26
ENDBRANCH  22  23
BRANCH  22  33
ATOM     33  O   UNL     1      10.152   2.237  21.375  0.00  0.00    -0.382 OA
ATOM     34  H   UNL     1      10.437   3.158  21.296  0.00  0.00    +0.210 HD
ENDBRANCH  22  33
ENDBRANCH   1  22
TORSDOF 19
ENDMDL
MODEL 2
REMARK VINA RESULT:      -5.8      3.199      4.553
REMARK  Name = 
REMARK  22 active torsions:
REMARK  status: ('A' for Active; 'I' for Inactive)
REMARK    1  A    between atoms: C_2  and  O_3
REMARK    2  A    between atoms: C_2  and  C_4
REMARK    3  A    between atoms: C_2  and  C_23
REMARK    4  A    between atoms: N_6  and  C_7
REMARK    5  A    between atoms: C_7  and  C_8
REMARK    6  A    between atoms: C_8  and  C_9
REMARK    7  A    between atoms: N_11  and  C_12
REMARK    8  A    between atoms: C_12  and  C_13
REMARK    9  A    between atoms: C_13  and  S_14
REMARK   10  A    between atoms: S_14  and  C_15
REMARK   11  A    between atoms: C_15  and  C_17
REMARK   12  A    between atoms: C_17  and  C_18
REMARK   13  A    between atoms: C_18  and  C_19
REMARK   14  A    between atoms: C_19  and  C_20
REMARK   15  A    between atoms: C_20  and  C_21
REMARK   16  A    between atoms: C_21  and  C_22
REMARK   17  A    between atoms: C_23  and  C_24
REMARK   18  A    between atoms: C_23  and  C_25
REMARK   19  A    between atoms: C_23  and  C_26
REMARK   20  A    between atoms: C_26  and  O_27
REMARK   21  A    between atoms: O_27  and  P_28
REMARK   22  A    between atoms: P_28  and  O_30
REMARK                            x       y       z     vdW  Elec       q    Type
REMARK                         _______ _______ _______ _____ _____    ______ ____
ROOT
ATOM      1  C   UNL     1      10.023  -1.948  23.868  0.00  0.00    +0.242 C 
ATOM      2  N   UNL     1       9.096  -2.556  24.690  0.00  0.00    -0.313 N 
ATOM      3  H   UNL     1       8.586  -2.023  25.378  0.00  0.00    +0.149 HD
ATOM      4  O   UNL     1      10.711  -2.580  23.069  0.00  0.00    -0.273 OA
ENDROOT
BRANCH   2   5
ATOM      5  C   UNL     1       8.941  -4.000  24.737  0.00  0.00    +0.113 C 
BRANCH   5   6
ATOM      6  C   UNL     1       9.108  -4.569  26.140  0.00  0.00    +0.114 C 
BRANCH   6   7
ATOM      7  C   UNL     1       7.771  -4.559  26.842  0.00  0.00    +0.215 C 
ATOM      8  N   UNL     1       7.441  -5.748  27.453  0.00  0.00    -0.314 N 
ATOM      9  H   UNL     1       8.190  -6.405  27.647  0.00  0.00    +0.149 HD
ATOM     10  O   UNL     1       7.044  -3.570  26.848  0.00  0.00    -0.276 OA
BRANCH   8  11
ATOM     11  C   UNL     1       6.240  -5.863  28.261  0.00  0.00    +0.115 C 
BRANCH  11  12
ATOM     12  C   UNL     1       5.325  -7.001  27.809  0.00  0.00    +0.096 C 
BRANCH  12  13
ATOM     13  S   UNL     1       3.811  -6.357  27.022  0.00  0.00    -0.087 S 
BRANCH  13  14
ATOM     14  C   UNL     1       4.008  -7.046  25.408  0.00  0.00    +0.189 C 
ATOM     15  O   UNL     1       3.374  -8.028  25.045  0.00  0.00    -0.285 OA
BRANCH  14  16
ATOM     16  C   UNL     1       5.058  -6.347  24.566  0.00  0.00    +0.086 C 
BRANCH  16  17
ATOM     17  C   UNL     1       4.792  -4.845  24.468  0.00  0.00    +0.008 C 
BRANCH  17  18
ATOM     18  C   UNL     1       4.649  -4.394  23.013  0.00  0.00    +0.000 C 
BRANCH  18  19
ATOM     19  C   UNL     1       5.820  -3.505  22.592  0.00  0.00    -0.000 C 
BRANCH  19  20
ATOM     20  C   UNL     1       6.825  -4.265  21.727  0.00  0.00    -0.003 C 
ATOM     21  C   UNL     1       6.195  -5.497  21.097  0.00  0.00    +0.004 C 
ENDBRANCH  19  20
ENDBRANCH  18  19
ENDBRANCH  17  18
ENDBRANCH  16  17
ENDBRANCH  14  16
ENDBRANCH  13  14
ENDBRANCH  12  13
ENDBRANCH  11  12
ENDBRANCH   8  11
ENDBRANCH   6   7
ENDBRANCH   5   6
ENDBRANCH   2   5
BRANCH   1  22
ATOM     22  C   UNL     1      10.092  -0.401  23.959  0.00  0.00    +0.208 C 
BRANCH  22  23
ATOM     23  C   UNL     1       9.238   0.347  22.885  0.00  0.00    +0.023 C 
ATOM     24  C   UNL     1       9.016  -0.567  21.661  0.00  0.00    +0.016 C 
ATOM     25  C   UNL     1      10.015   1.589  22.396  0.00  0.00    +0.016 C 
BRANCH  23  26
ATOM     26  C   UNL     1       7.870   0.775  23.466  0.00  0.00    +0.179 C 
BRANCH  26  27
ATOM     27  O   UNL     1       7.034  -0.326  23.789  0.00  0.00    -0.309 OA
BRANCH  27  28
ATOM     28  P   UNL     1       6.147  -0.206  25.146  0.00  0.00    +0.319 P 
ATOM     29  H   UNL     1       6.101   1.173  25.433  0.00  0.00    +0.159 HD
ATOM     30  O   UNL     1       4.966  -1.134  25.119  0.00  0.00    -0.262 OA
BRANCH  28  31
ATOM     31  O   UNL     1       7.203  -0.798  26.215  0.00  0.00    -0.326 OA
ATOM     32  H   UNL     1       7.926  -0.168  26.389  0.00  0.00    +0.220 HD
ENDBRANCH  28  31
ENDBRANCH  27  28
ENDBRANCH  26  27
ENDBRANCH  23  26
ENDBRANCH  22  23
BRANCH  22  33
ATOM     33  O   UNL     1       9.802   0.062  25.281  0.00  0.00    -0.382 OA
ATOM     34  H   UNL     1       9.055   0.676  25.262  0.00  0.00    +0.210 HD
ENDBRANCH  22  33
ENDBRANCH   1  22
TORSDOF 19
ENDMDL
MODEL 3
REMARK VINA RESULT:      -5.7      3.850      8.425
REMARK  Name = 
REMARK  22 active torsions:
REMARK  status: ('A' for Active; 'I' for Inactive)
REMARK    1  A    between atoms: C_2  and  O_3
REMARK    2  A    between atoms: C_2  and  C_4
REMARK    3  A    between atoms: C_2  and  C_23
REMARK    4  A    between atoms: N_6  and  C_7
REMARK    5  A    between atoms: C_7  and  C_8
REMARK    6  A    between atoms: C_8  and  C_9
REMARK    7  A    between atoms: N_11  and  C_12
REMARK    8  A    between atoms: C_12  and  C_13
REMARK    9  A    between atoms: C_13  and  S_14
REMARK   10  A    between atoms: S_14  and  C_15
REMARK   11  A    between atoms: C_15  and  C_17
REMARK   12  A    between atoms: C_17  and  C_18
REMARK   13  A    between atoms: C_18  and  C_19
REMARK   14  A    between atoms: C_19  and  C_20
REMARK   15  A    between atoms: C_20  and  C_21
REMARK   16  A    between atoms: C_21  and  C_22
REMARK   17  A    between atoms: C_23  and  C_24
REMARK   18  A    between atoms: C_23  and  C_25
REMARK   19  A    between atoms: C_23  and  C_26
REMARK   20  A    between atoms: C_26  and  O_27
REMARK   21  A    between atoms: O_27  and  P_28
REMARK   22  A    between atoms: P_28  and  O_30
REMARK                            x       y       z     vdW  Elec       q    Type
REMARK                         _______ _______ _______ _____ _____    ______ ____
ROOT
ATOM      1  C   UNL     1       7.149  -2.471  22.739  0.00  0.00    +0.242 C 
ATOM      2  N   UNL     1       6.266  -1.972  23.675  0.00  0.00    -0.313 N 
ATOM      3  H   UNL     1       5.342  -2.366  23.776  0.00  0.00    +0.149 HD
ATOM      4  O   UNL     1       8.254  -1.970  22.543  0.00  0.00    -0.273 OA
ENDROOT
BRANCH   2   5
ATOM      5  C   UNL     1       6.544  -0.758  24.424  0.00  0.00    +0.113 C 
BRANCH   5   6
ATOM      6  C   UNL     1       6.964  -1.033  25.862  0.00  0.00    +0.114 C 
BRANCH   6   7
ATOM      7  C   UNL     1       8.425  -0.685  26.028  0.00  0.00    +0.215 C 
ATOM      8  N   UNL     1       9.024  -0.192  24.891  0.00  0.00    -0.314 N 
ATOM      9  H   UNL     1       8.423   0.174  24.159  0.00  0.00    +0.149 HD
ATOM     10  O   UNL     1       9.017  -0.848  27.091  0.00  0.00    -0.276 OA
BRANCH   8  11
ATOM     11  C   UNL     1      10.394   0.290  24.920  0.00  0.00    +0.115 C 
BRANCH  11  12
ATOM     12  C   UNL     1      10.605   1.533  24.056  0.00  0.00    +0.096 C 
BRANCH  12  13
ATOM     13  S   UNL     1       9.231   1.757  22.877  0.00  0.00    -0.087 S 
BRANCH  13  14
ATOM     14  C   UNL     1       8.259   2.919  23.784  0.00  0.00    +0.189 C 
ATOM     15  O   UNL     1       7.502   2.565  24.679  0.00  0.00    -0.285 OA
BRANCH  14  16
ATOM     16  C   UNL     1       8.412   4.351  23.311  0.00  0.00    +0.086 C 
BRANCH  16  17
ATOM     17  C   UNL     1       8.971   5.251  24.413  0.00  0.00    +0.008 C 
BRANCH  17  18
ATOM     18  C   UNL     1       9.937   6.295  23.849  0.00  0.00    +0.000 C 
BRANCH  18  19
ATOM     19  C   UNL     1      11.182   6.428  24.727  0.00  0.00    -0.000 C 
BRANCH  19  20
ATOM     20  C   UNL     1      12.457   6.087  23.957  0.00  0.00    -0.003 C 
ATOM     21  C   UNL     1      12.323   4.762  23.222  0.00  0.00    +0.004 C 
ENDBRANCH  19  20
ENDBRANCH  18  19
ENDBRANCH  17  18
ENDBRANCH  16  17
ENDBRANCH  14  16
ENDBRANCH  13  14
ENDBRANCH  12  13
ENDBRANCH  11  12
ENDBRANCH   8  11
ENDBRANCH   6   7
ENDBRANCH   5   6
ENDBRANCH   2   5
BRANCH   1  22
ATOM     22  C   UNL     1       6.691  -3.755  21.998  0.00  0.00    +0.208 C 
BRANCH  22  23
ATOM     23  C   UNL     1       6.845  -5.068  22.829  0.00  0.00    +0.023 C 
ATOM     24  C   UNL     1       7.075  -6.266  21.883  0.00  0.00    +0.016 C 
ATOM     25  C   UNL     1       5.533  -5.338  23.599  0.00  0.00    +0.016 C 
BRANCH  23  26
ATOM     26  C   UNL     1       8.025  -4.959  23.822  0.00  0.00    +0.179 C 
BRANCH  26  27
ATOM     27  O   UNL     1       7.647  -4.418  25.079  0.00  0.00    -0.309 OA
BRANCH  27  28
ATOM     28  P   UNL     1       8.558  -4.826  26.363  0.00  0.00    +0.319 P 
ATOM     29  H   UNL     1       9.271  -3.656  26.692  0.00  0.00    +0.159 HD
ATOM     30  O   UNL     1       7.797  -5.688  27.329  0.00  0.00    -0.262 OA
BRANCH  28  31
ATOM     31  O   UNL     1       9.651  -5.765  25.633  0.00  0.00    -0.326 OA
ATOM     32  H   UNL     1      10.333  -5.234  25.183  0.00  0.00    +0.220 HD
ENDBRANCH  28  31
ENDBRANCH  27  28
ENDBRANCH  26  27
ENDBRANCH  23  26
ENDBRANCH  22  23
BRANCH  22  33
ATOM     33  O   UNL     1       5.370  -3.615  21.469  0.00  0.00    -0.382 OA
ATOM     34  H   UNL     1       5.317  -4.023  20.594  0.00  0.00    +0.210 HD
ENDBRANCH  22  33
ENDBRANCH   1  22
TORSDOF 19
ENDMDL
MODEL 4
REMARK VINA RESULT:      -5.7      3.906      8.931
REMARK  Name = 
REMARK  22 active torsions:
REMARK  status: ('A' for Active; 'I' for Inactive)
REMARK    1  A    between atoms: C_2  and  O_3
REMARK    2  A    between atoms: C_2  and  C_4
REMARK    3  A    between atoms: C_2  and  C_23
REMARK    4  A    between atoms: N_6  and  C_7
REMARK    5  A    between atoms: C_7  and  C_8
REMARK    6  A    between atoms: C_8  and  C_9
REMARK    7  A    between atoms: N_11  and  C_12
REMARK    8  A    between atoms: C_12  and  C_13
REMARK    9  A    between atoms: C_13  and  S_14
REMARK   10  A    between atoms: S_14  and  C_15
REMARK   11  A    between atoms: C_15  and  C_17
REMARK   12  A    between atoms: C_17  and  C_18
REMARK   13  A    between atoms: C_18  and  C_19
REMARK   14  A    between atoms: C_19  and  C_20
REMARK   15  A    between atoms: C_20  and  C_21
REMARK   16  A    between atoms: C_21  and  C_22
REMARK   17  A    between atoms: C_23  and  C_24
REMARK   18  A    between atoms: C_23  and  C_25
REMARK   19  A    between atoms: C_23  and  C_26
REMARK   20  A    between atoms: C_26  and  O_27
REMARK   21  A    between atoms: O_27  and  P_28
REMARK   22  A    between atoms: P_28  and  O_30
REMARK                            x       y       z     vdW  Elec       q    Type
REMARK                         _______ _______ _______ _____ _____    ______ ____
ROOT
ATOM      1  C   UNL     1       5.447  -6.345  25.914  0.00  0.00    +0.242 C 
ATOM      2  N   UNL     1       6.498  -5.536  25.530  0.00  0.00    -0.313 N 
ATOM      3  H   UNL     1       6.605  -5.250  24.568  0.00  0.00    +0.149 HD
ATOM      4  O   UNL     1       5.328  -6.768  27.062  0.00  0.00    -0.273 OA
ENDROOT
BRANCH   2   5
ATOM      5  C   UNL     1       7.589  -5.212  26.433  0.00  0.00    +0.113 C 
BRANCH   5   6
ATOM      6  C   UNL     1       8.115  -3.796  26.243  0.00  0.00    +0.114 C 
BRANCH   6   7
ATOM      7  C   UNL     1       8.971  -3.745  24.999  0.00  0.00    +0.215 C 
ATOM      8  N   UNL     1       9.170  -2.479  24.498  0.00  0.00    -0.314 N 
ATOM      9  H   UNL     1       9.007  -1.692  25.118  0.00  0.00    +0.149 HD
ATOM     10  O   UNL     1       9.431  -4.760  24.483  0.00  0.00    -0.276 OA
BRANCH   8  11
ATOM     11  C   UNL     1      10.060  -2.256  23.371  0.00  0.00    +0.115 C 
BRANCH  11  12
ATOM     12  C   UNL     1       9.793  -0.931  22.656  0.00  0.00    +0.096 C 
BRANCH  12  13
ATOM     13  S   UNL     1      10.320   0.486  23.676  0.00  0.00    -0.087 S 
BRANCH  13  14
ATOM     14  C   UNL     1       8.737   1.135  24.111  0.00  0.00    +0.189 C 
ATOM     15  O   UNL     1       7.926   0.478  24.752  0.00  0.00    -0.285 OA
BRANCH  14  16
ATOM     16  C   UNL     1       8.474   2.527  23.572  0.00  0.00    +0.086 C 
BRANCH  16  17
ATOM     17  C   UNL     1       9.102   3.602  24.458  0.00  0.00    +0.008 C 
BRANCH  17  18
ATOM     18  C   UNL     1       8.637   5.004  24.057  0.00  0.00    +0.000 C 
BRANCH  18  19
ATOM     19  C   UNL     1       9.821   5.888  23.662  0.00  0.00    -0.000 C 
BRANCH  19  20
ATOM     20  C   UNL     1      11.140   5.114  23.692  0.00  0.00    -0.003 C 
ATOM     21  C   UNL     1      12.305   6.019  24.059  0.00  0.00    +0.004 C 
ENDBRANCH  19  20
ENDBRANCH  18  19
ENDBRANCH  17  18
ENDBRANCH  16  17
ENDBRANCH  14  16
ENDBRANCH  13  14
ENDBRANCH  12  13
ENDBRANCH  11  12
ENDBRANCH   8  11
ENDBRANCH   6   7
ENDBRANCH   5   6
ENDBRANCH   2   5
BRANCH   1  22
ATOM     22  C   UNL     1       4.380  -6.626  24.825  0.00  0.00    +0.208 C 
BRANCH  22  23
ATOM     23  C   UNL     1       3.605  -5.360  24.339  0.00  0.00    +0.023 C 
ATOM     24  C   UNL     1       2.954  -4.647  25.544  0.00  0.00    +0.016 C 
ATOM     25  C   UNL     1       2.465  -5.795  23.392  0.00  0.00    +0.016 C 
BRANCH  23  26
ATOM     26  C   UNL     1       4.552  -4.379  23.609  0.00  0.00    +0.179 C 
BRANCH  26  27
ATOM     27  O   UNL     1       4.882  -4.800  22.294  0.00  0.00    -0.309 OA
BRANCH  27  28
ATOM     28  P   UNL     1       6.414  -4.561  21.805  0.00  0.00    +0.319 P 
ATOM     29  H   UNL     1       6.467  -5.080  20.496  0.00  0.00    +0.159 HD
ATOM     30  O   UNL     1       6.928  -3.216  22.234  0.00  0.00    -0.262 OA
BRANCH  28  31
ATOM     31  O   UNL     1       7.163  -5.674  22.704  0.00  0.00    -0.326 OA
ATOM     32  H   UNL     1       7.520  -6.395  22.154  0.00  0.00    +0.220 HD
ENDBRANCH  28  31
ENDBRANCH  27  28
ENDBRANCH  26  27
ENDBRANCH  23  26
ENDBRANCH  22  23
BRANCH  22  33
ATOM     33  O   UNL     1       4.928  -7.364  23.729  0.00  0.00    -0.382 OA
ATOM     34  H   UNL     1       5.872  -7.175  23.641  0.00  0.00    +0.210 HD
ENDBRANCH  22  33
ENDBRANCH   1  22
TORSDOF 19
ENDMDL
MODEL 5
REMARK VINA RESULT:      -5.6      1.854      2.160
REMARK  Name = 
REMARK  22 active torsions:
REMARK  status: ('A' for Active; 'I' for Inactive)
REMARK    1  A    between atoms: C_2  and  O_3
REMARK    2  A    between atoms: C_2  and  C_4
REMARK    3  A    between atoms: C_2  and  C_23
REMARK    4  A    between atoms: N_6  and  C_7
REMARK    5  A    between atoms: C_7  and  C_8
REMARK    6  A    between atoms: C_8  and  C_9
REMARK    7  A    between atoms: N_11  and  C_12
REMARK    8  A    between atoms: C_12  and  C_13
REMARK    9  A    between atoms: C_13  and  S_14
REMARK   10  A    between atoms: S_14  and  C_15
REMARK   11  A    between atoms: C_15  and  C_17
REMARK   12  A    between atoms: C_17  and  C_18
REMARK   13  A    between atoms: C_18  and  C_19
REMARK   14  A    between atoms: C_19  and  C_20
REMARK   15  A    between atoms: C_20  and  C_21
REMARK   16  A    between atoms: C_21  and  C_22
REMARK   17  A    between atoms: C_23  and  C_24
REMARK   18  A    between atoms: C_23  and  C_25
REMARK   19  A    between atoms: C_23  and  C_26
REMARK   20  A    between atoms: C_26  and  O_27
REMARK   21  A    between atoms: O_27  and  P_28
REMARK   22  A    between atoms: P_28  and  O_30
REMARK                            x       y       z     vdW  Elec       q    Type
REMARK                         _______ _______ _______ _____ _____    ______ ____
ROOT
ATOM      1  C   UNL     1       9.446   0.055  22.369  0.00  0.00    +0.242 C 
ATOM      2  N   UNL     1       8.424  -0.642  22.980  0.00  0.00    -0.313 N 
ATOM      3  H   UNL     1       7.744  -0.166  23.554  0.00  0.00    +0.149 HD
ATOM      4  O   UNL     1      10.330  -0.504  21.723  0.00  0.00    -0.273 OA
ENDROOT
BRANCH   2   5
ATOM      5  C   UNL     1       8.379  -2.095  22.984  0.00  0.00    +0.113 C 
BRANCH   5   6
ATOM      6  C   UNL     1       8.803  -2.697  24.317  0.00  0.00    +0.114 C 
BRANCH   6   7
ATOM      7  C   UNL     1       7.794  -2.319  25.377  0.00  0.00    +0.215 C 
ATOM      8  N   UNL     1       6.923  -3.329  25.718  0.00  0.00    -0.314 N 
ATOM      9  H   UNL     1       7.187  -4.281  25.487  0.00  0.00    +0.149 HD
ATOM     10  O   UNL     1       7.759  -1.196  25.872  0.00  0.00    -0.276 OA
BRANCH   8  11
ATOM     11  C   UNL     1       5.968  -3.155  26.799  0.00  0.00    +0.115 C 
BRANCH  11  12
ATOM     12  C   UNL     1       6.041  -4.270  27.842  0.00  0.00    +0.096 C 
BRANCH  12  13
ATOM     13  S   UNL     1       4.413  -5.058  28.079  0.00  0.00    -0.087 S 
BRANCH  13  14
ATOM     14  C   UNL     1       4.806  -6.698  27.555  0.00  0.00    +0.189 C 
ATOM     15  O   UNL     1       5.496  -7.443  28.238  0.00  0.00    -0.285 OA
BRANCH  14  16
ATOM     16  C   UNL     1       4.264  -7.051  26.184  0.00  0.00    +0.086 C 
BRANCH  16  17
ATOM     17  C   UNL     1       5.135  -6.474  25.069  0.00  0.00    +0.008 C 
BRANCH  17  18
ATOM     18  C   UNL     1       4.288  -5.826  23.972  0.00  0.00    +0.000 C 
BRANCH  18  19
ATOM     19  C   UNL     1       5.146  -4.956  23.052  0.00  0.00    -0.000 C 
BRANCH  19  20
ATOM     20  C   UNL     1       5.694  -5.754  21.869  0.00  0.00    -0.003 C 
ATOM     21  C   UNL     1       7.210  -5.853  21.922  0.00  0.00    +0.004 C 
ENDBRANCH  19  20
ENDBRANCH  18  19
ENDBRANCH  17  18
ENDBRANCH  16  17
ENDBRANCH  14  16
ENDBRANCH  13  14
ENDBRANCH  12  13
ENDBRANCH  11  12
ENDBRANCH   8  11
ENDBRANCH   6   7
ENDBRANCH   5   6
ENDBRANCH   2   5
BRANCH   1  22
ATOM     22  C   UNL     1       9.371   1.600  22.484  0.00  0.00    +0.208 C 
BRANCH  22  23
ATOM     23  C   UNL     1       9.892   2.171  23.841  0.00  0.00    +0.023 C 
ATOM     24  C   UNL     1      11.043   1.291  24.375  0.00  0.00    +0.016 C 
ATOM     25  C   UNL     1       8.754   2.120  24.884  0.00  0.00    +0.016 C 
BRANCH  23  26
ATOM     26  C   UNL     1      10.389   3.626  23.675  0.00  0.00    +0.179 C 
BRANCH  26  27
ATOM     27  O   UNL     1      11.782   3.711  23.413  0.00  0.00    -0.309 OA
BRANCH  27  28
ATOM     28  P   UNL     1      12.404   5.198  23.203  0.00  0.00    +0.319 P 
ATOM     29  H   UNL     1      12.159   5.511  21.852  0.00  0.00    +0.159 HD
ATOM     30  O   UNL     1      12.110   6.091  24.376  0.00  0.00    -0.262 OA
BRANCH  28  31
ATOM     31  O   UNL     1      13.979   4.843  23.249  0.00  0.00    -0.326 OA
ATOM     32  H   UNL     1      14.375   5.087  24.105  0.00  0.00    +0.220 HD
ENDBRANCH  28  31
ENDBRANCH  27  28
ENDBRANCH  26  27
ENDBRANCH  23  26
ENDBRANCH  22  23
BRANCH  22  33
ATOM     33  O   UNL     1       9.991   2.242  21.367  0.00  0.00    -0.382 OA
ATOM     34  H   UNL     1       9.318   2.541  20.740  0.00  0.00    +0.210 HD
ENDBRANCH  22  33
ENDBRANCH   1  22
TORSDOF 19
ENDMDL
MODEL 6
REMARK VINA RESULT:      -5.6      3.621      7.878
REMARK  Name = 
REMARK  22 active torsions:
REMARK  status: ('A' for Active; 'I' for Inactive)
REMARK    1  A    between atoms: C_2  and  O_3
REMARK    2  A    between atoms: C_2  and  C_4
REMARK    3  A    between atoms: C_2  and  C_23
REMARK    4  A    between atoms: N_6  and  C_7
REMARK    5  A    between atoms: C_7  and  C_8
REMARK    6  A    between atoms: C_8  and  C_9
REMARK    7  A    between atoms: N_11  and  C_12
REMARK    8  A    between atoms: C_12  and  C_13
REMARK    9  A    between atoms: C_13  and  S_14
REMARK   10  A    between atoms: S_14  and  C_15
REMARK   11  A    between atoms: C_15  and  C_17
REMARK   12  A    between atoms: C_17  and  C_18
REMARK   13  A    between atoms: C_18  and  C_19
REMARK   14  A    between atoms: C_19  and  C_20
REMARK   15  A    between atoms: C_20  and  C_21
REMARK   16  A    between atoms: C_21  and  C_22
REMARK   17  A    between atoms: C_23  and  C_24
REMARK   18  A    between atoms: C_23  and  C_25
REMARK   19  A    between atoms: C_23  and  C_26
REMARK   20  A    between atoms: C_26  and  O_27
REMARK   21  A    between atoms: O_27  and  P_28
REMARK   22  A    between atoms: P_28  and  O_30
REMARK                            x       y       z     vdW  Elec       q    Type
REMARK                         _______ _______ _______ _____ _____    ______ ____
ROOT
ATOM      1  C   UNL     1       5.341  -6.006  23.147  0.00  0.00    +0.242 C 
ATOM      2  N   UNL     1       6.671  -5.637  23.171  0.00  0.00    -0.313 N 
ATOM      3  H   UNL     1       7.238  -5.800  23.989  0.00  0.00    +0.149 HD
ATOM      4  O   UNL     1       4.607  -5.759  22.193  0.00  0.00    -0.273 OA
ENDROOT
BRANCH   2   5
ATOM      5  C   UNL     1       7.268  -4.844  22.110  0.00  0.00    +0.113 C 
BRANCH   5   6
ATOM      6  C   UNL     1       7.803  -3.505  22.602  0.00  0.00    +0.114 C 
BRANCH   6   7
ATOM      7  C   UNL     1       6.648  -2.647  23.063  0.00  0.00    +0.215 C 
ATOM      8  N   UNL     1       6.882  -1.961  24.233  0.00  0.00    -0.314 N 
ATOM      9  H   UNL     1       7.847  -1.835  24.524  0.00  0.00    +0.149 HD
ATOM     10  O   UNL     1       5.591  -2.589  22.442  0.00  0.00    -0.276 OA
BRANCH   8  11
ATOM     11  C   UNL     1       5.911  -1.011  24.747  0.00  0.00    +0.115 C 
BRANCH  11  12
ATOM     12  C   UNL     1       6.556   0.265  25.287  0.00  0.00    +0.096 C 
BRANCH  12  13
ATOM     13  S   UNL     1       5.725   1.752  24.634  0.00  0.00    -0.087 S 
BRANCH  13  14
ATOM     14  C   UNL     1       7.113   2.564  23.905  0.00  0.00    +0.189 C 
ATOM     15  O   UNL     1       7.990   3.076  24.588  0.00  0.00    -0.285 OA
BRANCH  14  16
ATOM     16  C   UNL     1       7.073   2.609  22.390  0.00  0.00    +0.086 C 
BRANCH  16  17
ATOM     17  C   UNL     1       8.331   1.995  21.776  0.00  0.00    +0.008 C 
BRANCH  17  18
ATOM     18  C   UNL     1       8.418   0.493  22.059  0.00  0.00    +0.000 C 
BRANCH  18  19
ATOM     19  C   UNL     1       9.872   0.016  22.074  0.00  0.00    -0.000 C 
BRANCH  19  20
ATOM     20  C   UNL     1      10.226  -0.680  23.388  0.00  0.00    -0.003 C 
ATOM     21  C   UNL     1      10.264   0.306  24.545  0.00  0.00    +0.004 C 
ENDBRANCH  19  20
ENDBRANCH  18  19
ENDBRANCH  17  18
ENDBRANCH  16  17
ENDBRANCH  14  16
ENDBRANCH  13  14
ENDBRANCH  12  13
ENDBRANCH  11  12
ENDBRANCH   8  11
ENDBRANCH   6   7
ENDBRANCH   5   6
ENDBRANCH   2   5
BRANCH   1  22
ATOM     22  C   UNL     1       4.846  -6.821  24.370  0.00  0.00    +0.208 C 
BRANCH  22  23
ATOM     23  C   UNL     1       4.550  -5.961  25.640  0.00  0.00    +0.023 C 
ATOM     24  C   UNL     1       3.446  -6.633  26.485  0.00  0.00    +0.016 C 
ATOM     25  C   UNL     1       4.016  -4.579  25.204  0.00  0.00    +0.016 C 
BRANCH  23  26
ATOM     26  C   UNL     1       5.824  -5.787  26.500  0.00  0.00    +0.179 C 
BRANCH  26  27
ATOM     27  O   UNL     1       6.623  -4.686  26.092  0.00  0.00    -0.309 OA
BRANCH  27  28
ATOM     28  P   UNL     1       8.215  -4.775  26.407  0.00  0.00    +0.319 P 
ATOM     29  H   UNL     1       8.302  -5.057  27.784  0.00  0.00    +0.159 HD
ATOM     30  O   UNL     1       8.955  -5.497  25.316  0.00  0.00    -0.262 OA
BRANCH  28  31
ATOM     31  O   UNL     1       8.601  -3.210  26.298  0.00  0.00    -0.326 OA
ATOM     32  H   UNL     1       8.101  -2.768  25.588  0.00  0.00    +0.220 HD
ENDBRANCH  28  31
ENDBRANCH  27  28
ENDBRANCH  26  27
ENDBRANCH  23  26
ENDBRANCH  22  23
BRANCH  22  33
ATOM     33  O   UNL     1       3.740  -7.661  24.030  0.00  0.00    -0.382 OA
ATOM     34  H   UNL     1       3.427  -7.454  23.139  0.00  0.00    +0.210 HD
ENDBRANCH  22  33
ENDBRANCH   1  22
TORSDOF 19
ENDMDL
MODEL 7
REMARK VINA RESULT:      -5.5      3.480      8.530
REMARK  Name = 
REMARK  22 active torsions:
REMARK  status: ('A' for Active; 'I' for Inactive)
REMARK    1  A    between atoms: C_2  and  O_3
REMARK    2  A    between atoms: C_2  and  C_4
REMARK    3  A    between atoms: C_2  and  C_23
REMARK    4  A    between atoms: N_6  and  C_7
REMARK    5  A    between atoms: C_7  and  C_8
REMARK    6  A    between atoms: C_8  and  C_9
REMARK    7  A    between atoms: N_11  and  C_12
REMARK    8  A    between atoms: C_12  and  C_13
REMARK    9  A    between atoms: C_13  and  S_14
REMARK   10  A    between atoms: S_14  and  C_15
REMARK   11  A    between atoms: C_15  and  C_17
REMARK   12  A    between atoms: C_17  and  C_18
REMARK   13  A    between atoms: C_18  and  C_19
REMARK   14  A    between atoms: C_19  and  C_20
REMARK   15  A    between atoms: C_20  and  C_21
REMARK   16  A    between atoms: C_21  and  C_22
REMARK   17  A    between atoms: C_23  and  C_24
REMARK   18  A    between atoms: C_23  and  C_25
REMARK   19  A    between atoms: C_23  and  C_26
REMARK   20  A    between atoms: C_26  and  O_27
REMARK   21  A    between atoms: O_27  and  P_28
REMARK   22  A    between atoms: P_28  and  O_30
REMARK                            x       y       z     vdW  Elec       q    Type
REMARK                         _______ _______ _______ _____ _____    ______ ____
ROOT
ATOM      1  C   UNL     1       4.170  -4.934  24.186  0.00  0.00    +0.242 C 
ATOM      2  N   UNL     1       4.823  -4.890  25.402  0.00  0.00    -0.313 N 
ATOM      3  H   UNL     1       5.608  -5.495  25.589  0.00  0.00    +0.149 HD
ATOM      4  O   UNL     1       3.167  -4.262  23.953  0.00  0.00    -0.273 OA
ENDROOT
BRANCH   2   5
ATOM      5  C   UNL     1       4.310  -4.120  26.522  0.00  0.00    +0.113 C 
BRANCH   5   6
ATOM      6  C   UNL     1       5.322  -3.120  27.066  0.00  0.00    +0.114 C 
BRANCH   6   7
ATOM      7  C   UNL     1       5.572  -2.052  26.027  0.00  0.00    +0.215 C 
ATOM      8  N   UNL     1       6.873  -1.604  25.975  0.00  0.00    -0.314 N 
ATOM      9  H   UNL     1       7.593  -2.191  26.384  0.00  0.00    +0.149 HD
ATOM     10  O   UNL     1       4.677  -1.620  25.307  0.00  0.00    -0.276 OA
BRANCH   8  11
ATOM     11  C   UNL     1       7.295  -0.659  24.955  0.00  0.00    +0.115 C 
BRANCH  11  12
ATOM     12  C   UNL     1       7.970  -1.335  23.762  0.00  0.00    +0.096 C 
BRANCH  12  13
ATOM     13  S   UNL     1       9.783  -1.365  23.961  0.00  0.00    -0.087 S 
BRANCH  13  14
ATOM     14  C   UNL     1      10.180   0.194  23.233  0.00  0.00    +0.189 C 
ATOM     15  O   UNL     1      10.126   0.371  22.022  0.00  0.00    -0.285 OA
BRANCH  14  16
ATOM     16  C   UNL     1      10.639   1.239  24.230  0.00  0.00    +0.086 C 
BRANCH  16  17
ATOM     17  C   UNL     1       9.546   2.270  24.508  0.00  0.00    +0.008 C 
BRANCH  17  18
ATOM     18  C   UNL     1       9.640   3.460  23.550  0.00  0.00    +0.000 C 
BRANCH  18  19
ATOM     19  C   UNL     1      11.097   3.794  23.224  0.00  0.00    -0.000 C 
BRANCH  19  20
ATOM     20  C   UNL     1      11.503   5.159  23.779  0.00  0.00    -0.003 C 
ATOM     21  C   UNL     1      10.358   6.156  23.690  0.00  0.00    +0.004 C 
ENDBRANCH  19  20
ENDBRANCH  18  19
ENDBRANCH  17  18
ENDBRANCH  16  17
ENDBRANCH  14  16
ENDBRANCH  13  14
ENDBRANCH  12  13
ENDBRANCH  11  12
ENDBRANCH   8  11
ENDBRANCH   6   7
ENDBRANCH   5   6
ENDBRANCH   2   5
BRANCH   1  22
ATOM     22  C   UNL     1       4.824  -5.830  23.102  0.00  0.00    +0.208 C 
BRANCH  22  23
ATOM     23  C   UNL     1       6.051  -5.182  22.386  0.00  0.00    +0.023 C 
ATOM     24  C   UNL     1       5.814  -3.667  22.202  0.00  0.00    +0.016 C 
ATOM     25  C   UNL     1       6.199  -5.797  20.977  0.00  0.00    +0.016 C 
BRANCH  23  26
ATOM     26  C   UNL     1       7.348  -5.407  23.198  0.00  0.00    +0.179 C 
BRANCH  26  27
ATOM     27  O   UNL     1       7.508  -4.477  24.259  0.00  0.00    -0.309 OA
BRANCH  27  28
ATOM     28  P   UNL     1       8.470  -4.922  25.491  0.00  0.00    +0.319 P 
ATOM     29  H   UNL     1       9.176  -3.755  25.845  0.00  0.00    +0.159 HD
ATOM     30  O   UNL     1       7.759  -5.838  26.446  0.00  0.00    -0.262 OA
BRANCH  28  31
ATOM     31  O   UNL     1       9.552  -5.810  24.684  0.00  0.00    -0.326 OA
ATOM     32  H   UNL     1      10.223  -6.185  25.283  0.00  0.00    +0.220 HD
ENDBRANCH  28  31
ENDBRANCH  27  28
ENDBRANCH  26  27
ENDBRANCH  23  26
ENDBRANCH  22  23
BRANCH  22  33
ATOM     33  O   UNL     1       5.133  -7.130  23.610  0.00  0.00    -0.382 OA
ATOM     34  H   UNL     1       5.800  -7.554  23.053  0.00  0.00    +0.210 HD
ENDBRANCH  22  33
ENDBRANCH   1  22
TORSDOF 19
ENDMDL
MODEL 8
REMARK VINA RESULT:      -5.4      3.993      9.281
REMARK  Name = 
REMARK  22 active torsions:
REMARK  status: ('A' for Active; 'I' for Inactive)
REMARK    1  A    between atoms: C_2  and  O_3
REMARK    2  A    between atoms: C_2  and  C_4
REMARK    3  A    between atoms: C_2  and  C_23
REMARK    4  A    between atoms: N_6  and  C_7
REMARK    5  A    between atoms: C_7  and  C_8
REMARK    6  A    between atoms: C_8  and  C_9
REMARK    7  A    between atoms: N_11  and  C_12
REMARK    8  A    between atoms: C_12  and  C_13
REMARK    9  A    between atoms: C_13  and  S_14
REMARK   10  A    between atoms: S_14  and  C_15
REMARK   11  A    between atoms: C_15  and  C_17
REMARK   12  A    between atoms: C_17  and  C_18
REMARK   13  A    between atoms: C_18  and  C_19
REMARK   14  A    between atoms: C_19  and  C_20
REMARK   15  A    between atoms: C_20  and  C_21
REMARK   16  A    between atoms: C_21  and  C_22
REMARK   17  A    between atoms: C_23  and  C_24
REMARK   18  A    between atoms: C_23  and  C_25
REMARK   19  A    between atoms: C_23  and  C_26
REMARK   20  A    between atoms: C_26  and  O_27
REMARK   21  A    between atoms: O_27  and  P_28
REMARK   22  A    between atoms: P_28  and  O_30
REMARK                            x       y       z     vdW  Elec       q    Type
REMARK                         _______ _______ _______ _____ _____    ______ ____
ROOT
ATOM      1  C   UNL     1       3.916  -6.037  23.514  0.00  0.00    +0.242 C 
ATOM      2  N   UNL     1       5.067  -5.277  23.558  0.00  0.00    -0.313 N 
ATOM      3  H   UNL     1       5.723  -5.375  24.319  0.00  0.00    +0.149 HD
ATOM      4  O   UNL     1       3.064  -5.892  22.639  0.00  0.00    -0.273 OA
ENDROOT
BRANCH   2   5
ATOM      5  C   UNL     1       5.303  -4.185  22.630  0.00  0.00    +0.113 C 
BRANCH   5   6
ATOM      6  C   UNL     1       6.662  -4.272  21.946  0.00  0.00    +0.114 C 
BRANCH   6   7
ATOM      7  C   UNL     1       7.749  -4.229  22.993  0.00  0.00    +0.215 C 
ATOM      8  N   UNL     1       8.363  -3.004  23.125  0.00  0.00    -0.314 N 
ATOM      9  H   UNL     1       7.877  -2.189  22.765  0.00  0.00    +0.149 HD
ATOM     10  O   UNL     1       8.058  -5.217  23.654  0.00  0.00    -0.276 OA
BRANCH   8  11
ATOM     11  C   UNL     1       9.351  -2.774  24.166  0.00  0.00    +0.115 C 
BRANCH  11  12
ATOM     12  C   UNL     1       9.898  -1.347  24.160  0.00  0.00    +0.096 C 
BRANCH  12  13
ATOM     13  S   UNL     1       8.585  -0.139  23.780  0.00  0.00    -0.087 S 
BRANCH  13  14
ATOM     14  C   UNL     1       9.107   0.358  22.168  0.00  0.00    +0.189 C 
ATOM     15  O   UNL     1       9.326  -0.458  21.282  0.00  0.00    -0.285 OA
BRANCH  14  16
ATOM     16  C   UNL     1       9.306   1.854  22.021  0.00  0.00    +0.086 C 
BRANCH  16  17
ATOM     17  C   UNL     1      10.439   2.360  22.914  0.00  0.00    +0.008 C 
BRANCH  17  18
ATOM     18  C   UNL     1      10.057   3.663  23.621  0.00  0.00    +0.000 C 
BRANCH  18  19
ATOM     19  C   UNL     1       8.887   3.448  24.583  0.00  0.00    -0.000 C 
BRANCH  19  20
ATOM     20  C   UNL     1       8.110   4.741  24.827  0.00  0.00    -0.003 C 
ATOM     21  C   UNL     1       8.963   5.774  25.547  0.00  0.00    +0.004 C 
ENDBRANCH  19  20
ENDBRANCH  18  19
ENDBRANCH  17  18
ENDBRANCH  16  17
ENDBRANCH  14  16
ENDBRANCH  13  14
ENDBRANCH  12  13
ENDBRANCH  11  12
ENDBRANCH   8  11
ENDBRANCH   6   7
ENDBRANCH   5   6
ENDBRANCH   2   5
BRANCH   1  22
ATOM     22  C   UNL     1       3.796  -7.142  24.596  0.00  0.00    +0.208 C 
BRANCH  22  23
ATOM     23  C   UNL     1       3.328  -6.627  25.994  0.00  0.00    +0.023 C 
ATOM     24  C   UNL     1       2.148  -7.483  26.503  0.00  0.00    +0.016 C 
ATOM     25  C   UNL     1       2.817  -5.176  25.855  0.00  0.00    +0.016 C 
BRANCH  23  26
ATOM     26  C   UNL     1       4.486  -6.681  27.019  0.00  0.00    +0.179 C 
BRANCH  26  27
ATOM     27  O   UNL     1       5.761  -6.478  26.429  0.00  0.00    -0.309 OA
BRANCH  27  28
ATOM     28  P   UNL     1       6.701  -5.325  27.084  0.00  0.00    +0.319 P 
ATOM     29  H   UNL     1       6.490  -4.183  26.287  0.00  0.00    +0.159 HD
ATOM     30  O   UNL     1       6.660  -5.364  28.585  0.00  0.00    -0.262 OA
BRANCH  28  31
ATOM     31  O   UNL     1       8.153  -5.865  26.626  0.00  0.00    -0.326 OA
ATOM     32  H   UNL     1       8.863  -5.258  26.903  0.00  0.00    +0.220 HD
ENDBRANCH  28  31
ENDBRANCH  27  28
ENDBRANCH  26  27
ENDBRANCH  23  26
ENDBRANCH  22  23
BRANCH  22  33
ATOM     33  O   UNL     1       2.998  -8.239  24.142  0.00  0.00    -0.382 OA
ATOM     34  H   UNL     1       2.913  -8.212  23.180  0.00  0.00    +0.210 HD
ENDBRANCH  22  33
ENDBRANCH   1  22
TORSDOF 19
ENDMDL
MODEL 9
REMARK VINA RESULT:      -5.4      2.394      3.576
REMARK  Name = 
REMARK  22 active torsions:
REMARK  status: ('A' for Active; 'I' for Inactive)
REMARK    1  A    between atoms: C_2  and  O_3
REMARK    2  A    between atoms: C_2  and  C_4
REMARK    3  A    between atoms: C_2  and  C_23
REMARK    4  A    between atoms: N_6  and  C_7
REMARK    5  A    between atoms: C_7  and  C_8
REMARK    6  A    between atoms: C_8  and  C_9
REMARK    7  A    between atoms: N_11  and  C_12
REMARK    8  A    between atoms: C_12  and  C_13
REMARK    9  A    between atoms: C_13  and  S_14
REMARK   10  A    between atoms: S_14  and  C_15
REMARK   11  A    between atoms: C_15  and  C_17
REMARK   12  A    between atoms: C_17  and  C_18
REMARK   13  A    between atoms: C_18  and  C_19
REMARK   14  A    between atoms: C_19  and  C_20
REMARK   15  A    between atoms: C_20  and  C_21
REMARK   16  A    between atoms: C_21  and  C_22
REMARK   17  A    between atoms: C_23  and  C_24
REMARK   18  A    between atoms: C_23  and  C_25
REMARK   19  A    between atoms: C_23  and  C_26
REMARK   20  A    between atoms: C_26  and  O_27
REMARK   21  A    between atoms: O_27  and  P_28
REMARK   22  A    between atoms: P_28  and  O_30
REMARK                            x       y       z     vdW  Elec       q    Type
REMARK                         _______ _______ _______ _____ _____    ______ ____
ROOT
ATOM      1  C   UNL     1       7.778   2.507  22.126  0.00  0.00    +0.242 C 
ATOM      2  N   UNL     1       9.144   2.621  22.294  0.00  0.00    -0.313 N 
ATOM      3  H   UNL     1       9.570   3.517  22.477  0.00  0.00    +0.149 HD
ATOM      4  O   UNL     1       7.237   1.442  21.834  0.00  0.00    -0.273 OA
ENDROOT
BRANCH   2   5
ATOM      5  C   UNL     1      10.045   1.509  22.039  0.00  0.00    +0.113 C 
BRANCH   5   6
ATOM      6  C   UNL     1      10.099   0.514  23.191  0.00  0.00    +0.114 C 
BRANCH   6   7
ATOM      7  C   UNL     1       9.776  -0.867  22.671  0.00  0.00    +0.215 C 
ATOM      8  N   UNL     1       8.444  -1.205  22.746  0.00  0.00    -0.314 N 
ATOM      9  H   UNL     1       7.768  -0.454  22.846  0.00  0.00    +0.149 HD
ATOM     10  O   UNL     1      10.643  -1.618  22.232  0.00  0.00    -0.276 OA
BRANCH   8  11
ATOM     11  C   UNL     1       7.959  -2.454  22.185  0.00  0.00    +0.115 C 
BRANCH  11  12
ATOM     12  C   UNL     1       7.207  -3.311  23.203  0.00  0.00    +0.096 C 
BRANCH  12  13
ATOM     13  S   UNL     1       8.364  -4.187  24.309  0.00  0.00    -0.087 S 
BRANCH  13  14
ATOM     14  C   UNL     1       8.206  -3.179  25.750  0.00  0.00    +0.189 C 
ATOM     15  O   UNL     1       8.743  -2.081  25.829  0.00  0.00    -0.285 OA
BRANCH  14  16
ATOM     16  C   UNL     1       7.410  -3.824  26.867  0.00  0.00    +0.086 C 
BRANCH  16  17
ATOM     17  C   UNL     1       7.258  -5.329  26.653  0.00  0.00    +0.008 C 
BRANCH  17  18
ATOM     18  C   UNL     1       5.958  -5.856  27.265  0.00  0.00    +0.000 C 
BRANCH  18  19
ATOM     19  C   UNL     1       5.091  -6.547  26.212  0.00  0.00    -0.000 C 
BRANCH  19  20
ATOM     20  C   UNL     1       4.780  -5.620  25.037  0.00  0.00    -0.003 C 
ATOM     21  C   UNL     1       4.959  -6.331  23.706  0.00  0.00    +0.004 C 
ENDBRANCH  19  20
ENDBRANCH  18  19
ENDBRANCH  17  18
ENDBRANCH  16  17
ENDBRANCH  14  16
ENDBRANCH  13  14
ENDBRANCH  12  13
ENDBRANCH  11  12
ENDBRANCH   8  11
ENDBRANCH   6   7
ENDBRANCH   5   6
ENDBRANCH   2   5
BRANCH   1  22
ATOM     22  C   UNL     1       6.956   3.792  22.403  0.00  0.00    +0.208 C 
BRANCH  22  23
ATOM     23  C   UNL     1       6.744   4.107  23.918  0.00  0.00    +0.023 C 
ATOM     24  C   UNL     1       6.936   2.823  24.754  0.00  0.00    +0.016 C 
ATOM     25  C   UNL     1       5.291   4.584  24.138  0.00  0.00    +0.016 C 
BRANCH  23  26
ATOM     26  C   UNL     1       7.734   5.192  24.402  0.00  0.00    +0.179 C 
BRANCH  26  27
ATOM     27  O   UNL     1       9.033   4.683  24.663  0.00  0.00    -0.309 OA
BRANCH  27  28
ATOM     28  P   UNL     1      10.289   5.527  24.070  0.00  0.00    +0.319 P 
ATOM     29  H   UNL     1      10.532   6.539  25.020  0.00  0.00    +0.159 HD
ATOM     30  O   UNL     1      11.328   4.624  23.468  0.00  0.00    -0.262 OA
BRANCH  28  31
ATOM     31  O   UNL     1       9.552   6.293  22.854  0.00  0.00    -0.326 OA
ATOM     32  H   UNL     1      10.196   6.660  22.221  0.00  0.00    +0.220 HD
ENDBRANCH  28  31
ENDBRANCH  27  28
ENDBRANCH  26  27
ENDBRANCH  23  26
ENDBRANCH  22  23
BRANCH  22  33
ATOM     33  O   UNL     1       7.486   4.918  21.698  0.00  0.00    -0.382 OA
ATOM     34  H   UNL     1       8.436   4.997  21.863  0.00  0.00    +0.210 HD
ENDBRANCH  22  33
ENDBRANCH   1  22
TORSDOF 19
ENDMDL
