MODEL 1
REMARK VINA RESULT:      -6.5      0.000      0.000
REMARK  Name = 
REMARK  10 active torsions:
REMARK  status: ('A' for Active; 'I' for Inactive)
REMARK    1  A    between atoms: C_1  and  C_2
REMARK    2  A    between atoms: C_2  and  N_3
REMARK    3  A    between atoms: N_3  and  C_4
REMARK    4  A    between atoms: C_4  and  C_5
REMARK    5  A    between atoms: C_6  and  C_8
REMARK    6  A    between atoms: C_8  and  C_21
REMARK    7  A    between atoms: C_9  and  C_10
REMARK    8  A    between atoms: C_12  and  N_18
REMARK    9  A    between atoms: C_13  and  O_14
REMARK   10  A    between atoms: C_15  and  O_16
REMARK                            x       y       z     vdW  Elec       q    Type
REMARK                         _______ _______ _______ _____ _____    ______ ____
ROOT
ATOM      1  C   UNL     1       6.593  -4.008  24.398  0.00  0.00    -0.014 A 
ATOM      2  C   UNL     1       6.286  -4.453  23.107  0.00  0.00    +0.057 A 
ATOM      3  C   UNL     1       5.537  -5.614  22.934  0.00  0.00    +0.166 A 
ATOM      4  C   UNL     1       5.079  -6.357  24.021  0.00  0.00    +0.237 A 
ATOM      5  C   UNL     1       5.374  -5.910  25.313  0.00  0.00    +0.318 A 
ATOM      6  C   UNL     1       6.128  -4.735  25.504  0.00  0.00    +0.096 A 
ENDROOT
BRANCH   5   7
ATOM      7  N   UNL     1       4.906  -6.651  26.486  0.00  0.00    +0.084 N 
ATOM      8  O   UNL     1       3.727  -7.038  26.481  0.00  0.00    +0.042 OA
ATOM      9  O   UNL     1       5.708  -6.851  27.406  0.00  0.00    -0.576 OA
ENDBRANCH   5   7
BRANCH   1  11
ATOM     10  C   UNL     1       8.674  -2.699  24.805  0.00  0.00    +0.114 C 
ATOM     11  C   UNL     1       7.339  -2.752  24.593  0.00  0.00    +0.032 C 
BRANCH  10  13
ATOM     12  N   UNL     1      10.066  -0.683  24.078  0.00  0.00    -0.297 N 
ATOM     13  C   UNL     1       9.295  -1.340  25.054  0.00  0.00    +0.257 C 
ATOM     14  O   UNL     1       9.112  -0.817  26.159  0.00  0.00    -0.269 OA
BRANCH  12  16
ATOM     15  C   UNL     1       9.977   1.820  24.149  0.00  0.00    +0.024 C 
ATOM     16  C   UNL     1      10.748   0.554  24.496  0.00  0.00    +0.105 C 
ENDBRANCH  12  16
BRANCH  12  17
ATOM     17  C   UNL     1      10.253  -1.178  22.706  0.00  0.00    +0.105 C 
ATOM     18  C   UNL     1       9.414  -0.609  21.572  0.00  0.00    +0.024 C 
ENDBRANCH  12  17
ENDBRANCH  10  13
BRANCH  10  19
ATOM     19  C   UNL     1       9.410  -3.912  24.871  0.00  0.00    +0.104 C 
ATOM     20  N   UNL     1      10.004  -4.908  24.879  0.00  0.00    -0.191 NA
ENDBRANCH  10  19
ENDBRANCH   1  11
BRANCH   3  21
ATOM     21  O   UNL     1       5.245  -6.022  21.663  0.00  0.00    -0.503 OA
ATOM     22  H   UNL     1       5.957  -5.649  21.102  0.00  0.00    +0.292 HD
ENDBRANCH   3  21
BRANCH   4  23
ATOM     23  O   UNL     1       4.363  -7.485  23.702  0.00  0.00    -0.499 OA
ATOM     24  H   UNL     1       4.457  -8.149  24.420  0.00  0.00    +0.293 HD
ENDBRANCH   4  23
TORSDOF 8
ENDMDL
MODEL 2
REMARK VINA RESULT:      -6.1      1.160      1.822
REMARK  Name = 
REMARK  10 active torsions:
REMARK  status: ('A' for Active; 'I' for Inactive)
REMARK    1  A    between atoms: C_1  and  C_2
REMARK    2  A    between atoms: C_2  and  N_3
REMARK    3  A    between atoms: N_3  and  C_4
REMARK    4  A    between atoms: C_4  and  C_5
REMARK    5  A    between atoms: C_6  and  C_8
REMARK    6  A    between atoms: C_8  and  C_21
REMARK    7  A    between atoms: C_9  and  C_10
REMARK    8  A    between atoms: C_12  and  N_18
REMARK    9  A    between atoms: C_13  and  O_14
REMARK   10  A    between atoms: C_15  and  O_16
REMARK                            x       y       z     vdW  Elec       q    Type
REMARK                         _______ _______ _______ _____ _____    ______ ____
ROOT
ATOM      1  C   UNL     1       6.879  -4.062  23.665  0.00  0.00    -0.014 A 
ATOM      2  C   UNL     1       6.467  -4.683  22.480  0.00  0.00    +0.057 A 
ATOM      3  C   UNL     1       5.625  -5.791  22.536  0.00  0.00    +0.166 A 
ATOM      4  C   UNL     1       5.175  -6.308  23.751  0.00  0.00    +0.237 A 
ATOM      5  C   UNL     1       5.576  -5.684  24.935  0.00  0.00    +0.318 A 
ATOM      6  C   UNL     1       6.425  -4.560  24.896  0.00  0.00    +0.096 A 
ENDROOT
BRANCH   5   7
ATOM      7  N   UNL     1       5.121  -6.184  26.234  0.00  0.00    +0.084 N 
ATOM      8  O   UNL     1       5.992  -6.475  27.069  0.00  0.00    +0.042 OA
ATOM      9  O   UNL     1       3.903  -6.282  26.426  0.00  0.00    -0.576 OA
ENDBRANCH   5   7
BRANCH   1  11
ATOM     10  C   UNL     1       9.006  -2.824  24.053  0.00  0.00    +0.114 C 
ATOM     11  C   UNL     1       7.726  -2.857  23.616  0.00  0.00    +0.032 C 
BRANCH  10  13
ATOM     12  N   UNL     1       9.678  -0.572  25.058  0.00  0.00    -0.297 N 
ATOM     13  C   UNL     1       9.734  -1.496  23.999  0.00  0.00    +0.257 C 
ATOM     14  O   UNL     1      10.383  -1.237  22.979  0.00  0.00    -0.269 OA
BRANCH  12  16
ATOM     15  C   UNL     1       9.289   1.819  24.417  0.00  0.00    +0.024 C 
ATOM     16  C   UNL     1      10.291   0.746  24.819  0.00  0.00    +0.105 C 
ENDBRANCH  12  16
BRANCH  12  17
ATOM     17  C   UNL     1       9.019  -0.834  26.346  0.00  0.00    +0.105 C 
ATOM     18  C   UNL     1       7.539  -0.531  26.517  0.00  0.00    +0.024 C 
ENDBRANCH  12  17
ENDBRANCH  10  13
BRANCH  10  19
ATOM     19  C   UNL     1       9.575  -3.998  24.614  0.00  0.00    +0.104 C 
ATOM     20  N   UNL     1      10.077  -4.933  25.082  0.00  0.00    -0.191 NA
ENDBRANCH  10  19
ENDBRANCH   1  11
BRANCH   3  21
ATOM     21  O   UNL     1       5.232  -6.374  21.364  0.00  0.00    -0.503 OA
ATOM     22  H   UNL     1       5.754  -7.201  21.300  0.00  0.00    +0.292 HD
ENDBRANCH   3  21
BRANCH   4  23
ATOM     23  O   UNL     1       4.360  -7.409  23.655  0.00  0.00    -0.499 OA
ATOM     24  H   UNL     1       3.672  -7.371  24.355  0.00  0.00    +0.293 HD
ENDBRANCH   4  23
TORSDOF 8
ENDMDL
MODEL 3
REMARK VINA RESULT:      -6.0      1.902      7.027
REMARK  Name = 
REMARK  10 active torsions:
REMARK  status: ('A' for Active; 'I' for Inactive)
REMARK    1  A    between atoms: C_1  and  C_2
REMARK    2  A    between atoms: C_2  and  N_3
REMARK    3  A    between atoms: N_3  and  C_4
REMARK    4  A    between atoms: C_4  and  C_5
REMARK    5  A    between atoms: C_6  and  C_8
REMARK    6  A    between atoms: C_8  and  C_21
REMARK    7  A    between atoms: C_9  and  C_10
REMARK    8  A    between atoms: C_12  and  N_18
REMARK    9  A    between atoms: C_13  and  O_14
REMARK   10  A    between atoms: C_15  and  O_16
REMARK                            x       y       z     vdW  Elec       q    Type
REMARK                         _______ _______ _______ _____ _____    ______ ____
ROOT
ATOM      1  C   UNL     1       7.652  -2.541  25.254  0.00  0.00    -0.014 A 
ATOM      2  C   UNL     1       7.969  -1.903  26.459  0.00  0.00    +0.057 A 
ATOM      3  C   UNL     1       8.928  -0.894  26.477  0.00  0.00    +0.166 A 
ATOM      4  C   UNL     1       9.592  -0.495  25.318  0.00  0.00    +0.237 A 
ATOM      5  C   UNL     1       9.271  -1.122  24.110  0.00  0.00    +0.318 A 
ATOM      6  C   UNL     1       8.300  -2.143  24.075  0.00  0.00    +0.096 A 
ENDROOT
BRANCH   5   7
ATOM      7  N   UNL     1       9.934  -0.730  22.865  0.00  0.00    +0.084 N 
ATOM      8  O   UNL     1       9.966   0.480  22.594  0.00  0.00    +0.042 OA
ATOM      9  O   UNL     1      10.426  -1.622  22.162  0.00  0.00    -0.576 OA
ENDBRANCH   5   7
BRANCH   1  11
ATOM     10  C   UNL     1       6.855  -4.896  25.093  0.00  0.00    +0.114 C 
ATOM     11  C   UNL     1       6.600  -3.572  25.213  0.00  0.00    +0.032 C 
BRANCH  10  13
ATOM     12  N   UNL     1       4.940  -5.999  23.809  0.00  0.00    -0.297 N 
ATOM     13  C   UNL     1       5.670  -5.835  25.000  0.00  0.00    +0.257 C 
ATOM     14  O   UNL     1       5.348  -6.458  26.019  0.00  0.00    -0.269 OA
BRANCH  12  16
ATOM     15  C   UNL     1       2.579  -6.290  23.022  0.00  0.00    +0.024 C 
ATOM     16  C   UNL     1       3.715  -6.813  23.890  0.00  0.00    +0.105 C 
ENDBRANCH  12  16
BRANCH  12  17
ATOM     17  C   UNL     1       5.308  -5.381  22.526  0.00  0.00    +0.105 C 
ATOM     18  C   UNL     1       6.348  -6.042  21.635  0.00  0.00    +0.024 C 
ENDBRANCH  12  17
ENDBRANCH  10  13
BRANCH  10  19
ATOM     19  C   UNL     1       8.201  -5.332  24.974  0.00  0.00    +0.104 C 
ATOM     20  N   UNL     1       9.295  -5.690  24.831  0.00  0.00    -0.191 NA
ENDBRANCH  10  19
ENDBRANCH   1  11
BRANCH   3  21
ATOM     21  O   UNL     1       9.213  -0.282  27.666  0.00  0.00    -0.503 OA
ATOM     22  H   UNL     1      10.176  -0.408  27.796  0.00  0.00    +0.292 HD
ENDBRANCH   3  21
BRANCH   4  23
ATOM     23  O   UNL     1      10.521   0.503  25.486  0.00  0.00    -0.499 OA
ATOM     24  H   UNL     1      11.410   0.170  25.236  0.00  0.00    +0.293 HD
ENDBRANCH   4  23
TORSDOF 8
ENDMDL
MODEL 4
REMARK VINA RESULT:      -6.0      1.328      1.798
REMARK  Name = 
REMARK  10 active torsions:
REMARK  status: ('A' for Active; 'I' for Inactive)
REMARK    1  A    between atoms: C_1  and  C_2
REMARK    2  A    between atoms: C_2  and  N_3
REMARK    3  A    between atoms: N_3  and  C_4
REMARK    4  A    between atoms: C_4  and  C_5
REMARK    5  A    between atoms: C_6  and  C_8
REMARK    6  A    between atoms: C_8  and  C_21
REMARK    7  A    between atoms: C_9  and  C_10
REMARK    8  A    between atoms: C_12  and  N_18
REMARK    9  A    between atoms: C_13  and  O_14
REMARK   10  A    between atoms: C_15  and  O_16
REMARK                            x       y       z     vdW  Elec       q    Type
REMARK                         _______ _______ _______ _____ _____    ______ ____
ROOT
ATOM      1  C   UNL     1       6.947  -4.537  24.763  0.00  0.00    -0.014 A 
ATOM      2  C   UNL     1       6.628  -4.892  23.447  0.00  0.00    +0.057 A 
ATOM      3  C   UNL     1       5.678  -5.881  23.207  0.00  0.00    +0.166 A 
ATOM      4  C   UNL     1       5.028  -6.539  24.251  0.00  0.00    +0.237 A 
ATOM      5  C   UNL     1       5.336  -6.180  25.566  0.00  0.00    +0.318 A 
ATOM      6  C   UNL     1       6.293  -5.178  25.825  0.00  0.00    +0.096 A 
ENDROOT
BRANCH   5   7
ATOM      7  N   UNL     1       4.672  -6.835  26.695  0.00  0.00    +0.084 N 
ATOM      8  O   UNL     1       5.387  -7.209  27.637  0.00  0.00    +0.042 OA
ATOM      9  O   UNL     1       3.443  -6.974  26.646  0.00  0.00    -0.576 OA
ENDBRANCH   5   7
BRANCH   1  11
ATOM     10  C   UNL     1       7.551  -2.163  25.223  0.00  0.00    +0.114 C 
ATOM     11  C   UNL     1       7.911  -3.454  25.027  0.00  0.00    +0.032 C 
BRANCH  10  13
ATOM     12  N   UNL     1       9.262  -0.484  24.337  0.00  0.00    -0.297 N 
ATOM     13  C   UNL     1       8.657  -1.147  25.420  0.00  0.00    +0.257 C 
ATOM     14  O   UNL     1       9.029  -0.918  26.577  0.00  0.00    -0.269 OA
BRANCH  12  16
ATOM     15  C   UNL     1      10.351   1.754  24.049  0.00  0.00    +0.024 C 
ATOM     16  C   UNL     1      10.432   0.356  24.646  0.00  0.00    +0.105 C 
ENDBRANCH  12  16
BRANCH  12  17
ATOM     17  C   UNL     1       8.821  -0.615  22.941  0.00  0.00    +0.105 C 
ATOM     18  C   UNL     1       9.525  -1.589  22.009  0.00  0.00    +0.024 C 
ENDBRANCH  12  17
ENDBRANCH  10  13
BRANCH  10  19
ATOM     19  C   UNL     1       6.178  -1.811  25.150  0.00  0.00    +0.104 C 
ATOM     20  N   UNL     1       5.062  -1.495  25.128  0.00  0.00    -0.191 NA
ENDBRANCH  10  19
ENDBRANCH   1  11
BRANCH   3  21
ATOM     21  O   UNL     1       5.380  -6.203  21.912  0.00  0.00    -0.503 OA
ATOM     22  H   UNL     1       4.722  -5.536  21.626  0.00  0.00    +0.292 HD
ENDBRANCH   3  21
BRANCH   4  23
ATOM     23  O   UNL     1       4.124  -7.500  23.867  0.00  0.00    -0.499 OA
ATOM     24  H   UNL     1       3.640  -7.196  23.069  0.00  0.00    +0.293 HD
ENDBRANCH   4  23
TORSDOF 8
ENDMDL
MODEL 5
REMARK VINA RESULT:      -5.8      1.760      2.476
REMARK  Name = 
REMARK  10 active torsions:
REMARK  status: ('A' for Active; 'I' for Inactive)
REMARK    1  A    between atoms: C_1  and  C_2
REMARK    2  A    between atoms: C_2  and  N_3
REMARK    3  A    between atoms: N_3  and  C_4
REMARK    4  A    between atoms: C_4  and  C_5
REMARK    5  A    between atoms: C_6  and  C_8
REMARK    6  A    between atoms: C_8  and  C_21
REMARK    7  A    between atoms: C_9  and  C_10
REMARK    8  A    between atoms: C_12  and  N_18
REMARK    9  A    between atoms: C_13  and  O_14
REMARK   10  A    between atoms: C_15  and  O_16
REMARK                            x       y       z     vdW  Elec       q    Type
REMARK                         _______ _______ _______ _____ _____    ______ ____
ROOT
ATOM      1  C   UNL     1       6.286  -4.311  24.491  0.00  0.00    -0.014 A 
ATOM      2  C   UNL     1       5.608  -5.371  23.877  0.00  0.00    +0.057 A 
ATOM      3  C   UNL     1       5.106  -6.413  24.652  0.00  0.00    +0.166 A 
ATOM      4  C   UNL     1       5.263  -6.436  26.038  0.00  0.00    +0.237 A 
ATOM      5  C   UNL     1       5.931  -5.375  26.655  0.00  0.00    +0.318 A 
ATOM      6  C   UNL     1       6.441  -4.311  25.885  0.00  0.00    +0.096 A 
ENDROOT
BRANCH   5   7
ATOM      7  N   UNL     1       6.111  -5.349  28.108  0.00  0.00    +0.084 N 
ATOM      8  O   UNL     1       6.901  -6.170  28.599  0.00  0.00    +0.042 OA
ATOM      9  O   UNL     1       5.473  -4.512  28.759  0.00  0.00    -0.576 OA
ENDBRANCH   5   7
BRANCH   1  11
ATOM     10  C   UNL     1       8.085  -2.885  23.520  0.00  0.00    +0.114 C 
ATOM     11  C   UNL     1       6.774  -3.177  23.687  0.00  0.00    +0.032 C 
BRANCH  10  13
ATOM     12  N   UNL     1       8.412  -0.362  23.286  0.00  0.00    -0.297 N 
ATOM     13  C   UNL     1       8.435  -1.649  22.719  0.00  0.00    +0.257 C 
ATOM     14  O   UNL     1       8.738  -1.801  21.529  0.00  0.00    -0.269 OA
BRANCH  12  16
ATOM     15  C   UNL     1      10.052   1.263  22.311  0.00  0.00    +0.024 C 
ATOM     16  C   UNL     1       8.613   0.770  22.365  0.00  0.00    +0.105 C 
ENDBRANCH  12  16
BRANCH  12  17
ATOM     17  C   UNL     1       8.165  -0.094  24.710  0.00  0.00    +0.105 C 
ATOM     18  C   UNL     1       9.288  -0.263  25.721  0.00  0.00    +0.024 C 
ENDBRANCH  12  17
ENDBRANCH  10  13
BRANCH  10  19
ATOM     19  C   UNL     1       9.058  -3.692  24.168  0.00  0.00    +0.104 C 
ATOM     20  N   UNL     1       9.818  -4.374  24.717  0.00  0.00    -0.191 NA
ENDBRANCH  10  19
ENDBRANCH   1  11
BRANCH   3  21
ATOM     21  O   UNL     1       4.441  -7.432  24.029  0.00  0.00    -0.503 OA
ATOM     22  H   UNL     1       4.705  -7.374  23.087  0.00  0.00    +0.292 HD
ENDBRANCH   3  21
BRANCH   4  23
ATOM     23  O   UNL     1       4.728  -7.531  26.672  0.00  0.00    -0.499 OA
ATOM     24  H   UNL     1       4.461  -8.200  26.004  0.00  0.00    +0.293 HD
ENDBRANCH   4  23
TORSDOF 8
ENDMDL
MODEL 6
REMARK VINA RESULT:      -5.7      1.756      3.031
REMARK  Name = 
REMARK  10 active torsions:
REMARK  status: ('A' for Active; 'I' for Inactive)
REMARK    1  A    between atoms: C_1  and  C_2
REMARK    2  A    between atoms: C_2  and  N_3
REMARK    3  A    between atoms: N_3  and  C_4
REMARK    4  A    between atoms: C_4  and  C_5
REMARK    5  A    between atoms: C_6  and  C_8
REMARK    6  A    between atoms: C_8  and  C_21
REMARK    7  A    between atoms: C_9  and  C_10
REMARK    8  A    between atoms: C_12  and  N_18
REMARK    9  A    between atoms: C_13  and  O_14
REMARK   10  A    between atoms: C_15  and  O_16
REMARK                            x       y       z     vdW  Elec       q    Type
REMARK                         _______ _______ _______ _____ _____    ______ ____
ROOT
ATOM      1  C   UNL     1       6.805  -4.392  25.353  0.00  0.00    -0.014 A 
ATOM      2  C   UNL     1       6.507  -5.269  26.402  0.00  0.00    +0.057 A 
ATOM      3  C   UNL     1       5.585  -6.295  26.207  0.00  0.00    +0.166 A 
ATOM      4  C   UNL     1       4.941  -6.477  24.984  0.00  0.00    +0.237 A 
ATOM      5  C   UNL     1       5.244  -5.609  23.930  0.00  0.00    +0.318 A 
ATOM      6  C   UNL     1       6.177  -4.568  24.111  0.00  0.00    +0.096 A 
ENDROOT
BRANCH   5   7
ATOM      7  N   UNL     1       4.601  -5.766  22.624  0.00  0.00    +0.084 N 
ATOM      8  O   UNL     1       5.317  -5.643  21.619  0.00  0.00    +0.042 OA
ATOM      9  O   UNL     1       3.390  -6.016  22.598  0.00  0.00    -0.576 OA
ENDBRANCH   5   7
BRANCH   1  11
ATOM     10  C   UNL     1       7.517  -2.023  25.651  0.00  0.00    +0.114 C 
ATOM     11  C   UNL     1       7.818  -3.337  25.532  0.00  0.00    +0.032 C 
BRANCH  10  13
ATOM     12  N   UNL     1       9.282  -0.481  24.633  0.00  0.00    -0.297 N 
ATOM     13  C   UNL     1       8.668  -1.045  25.765  0.00  0.00    +0.257 C 
ATOM     14  O   UNL     1       9.068  -0.757  26.899  0.00  0.00    -0.269 OA
BRANCH  12  16
ATOM     15  C   UNL     1      10.522   1.622  24.070  0.00  0.00    +0.024 C 
ATOM     16  C   UNL     1      10.491   0.327  24.869  0.00  0.00    +0.105 C 
ENDBRANCH  12  16
BRANCH  12  17
ATOM     17  C   UNL     1       8.811  -0.683  23.255  0.00  0.00    +0.105 C 
ATOM     18  C   UNL     1       9.430  -1.772  22.393  0.00  0.00    +0.024 C 
ENDBRANCH  12  17
ENDBRANCH  10  13
BRANCH  10  19
ATOM     19  C   UNL     1       6.158  -1.617  25.579  0.00  0.00    +0.104 C 
ATOM     20  N   UNL     1       5.055  -1.275  25.474  0.00  0.00    -0.191 NA
ENDBRANCH  10  19
ENDBRANCH   1  11
BRANCH   3  21
ATOM     21  O   UNL     1       5.318  -7.142  27.246  0.00  0.00    -0.503 OA
ATOM     22  H   UNL     1       5.613  -8.025  26.941  0.00  0.00    +0.292 HD
ENDBRANCH   3  21
BRANCH   4  23
ATOM     23  O   UNL     1       4.049  -7.520  24.938  0.00  0.00    -0.499 OA
ATOM     24  H   UNL     1       3.397  -7.364  24.220  0.00  0.00    +0.293 HD
ENDBRANCH   4  23
TORSDOF 8
ENDMDL
MODEL 7
REMARK VINA RESULT:      -5.7      4.436      9.429
REMARK  Name = 
REMARK  10 active torsions:
REMARK  status: ('A' for Active; 'I' for Inactive)
REMARK    1  A    between atoms: C_1  and  C_2
REMARK    2  A    between atoms: C_2  and  N_3
REMARK    3  A    between atoms: N_3  and  C_4
REMARK    4  A    between atoms: C_4  and  C_5
REMARK    5  A    between atoms: C_6  and  C_8
REMARK    6  A    between atoms: C_8  and  C_21
REMARK    7  A    between atoms: C_9  and  C_10
REMARK    8  A    between atoms: C_12  and  N_18
REMARK    9  A    between atoms: C_13  and  O_14
REMARK   10  A    between atoms: C_15  and  O_16
REMARK                            x       y       z     vdW  Elec       q    Type
REMARK                         _______ _______ _______ _____ _____    ______ ____
ROOT
ATOM      1  C   UNL     1      10.223   2.504  23.942  0.00  0.00    -0.014 A 
ATOM      2  C   UNL     1       8.998   3.109  24.247  0.00  0.00    +0.057 A 
ATOM      3  C   UNL     1       8.878   4.496  24.189  0.00  0.00    +0.166 A 
ATOM      4  C   UNL     1       9.954   5.309  23.835  0.00  0.00    +0.237 A 
ATOM      5  C   UNL     1      11.175   4.707  23.520  0.00  0.00    +0.318 A 
ATOM      6  C   UNL     1      11.312   3.305  23.571  0.00  0.00    +0.096 A 
ENDROOT
BRANCH   5   7
ATOM      7  N   UNL     1      12.331   5.519  23.132  0.00  0.00    +0.084 N 
ATOM      8  O   UNL     1      12.743   6.351  23.954  0.00  0.00    +0.042 OA
ATOM      9  O   UNL     1      12.829   5.327  22.016  0.00  0.00    -0.576 OA
ENDBRANCH   5   7
BRANCH   1  11
ATOM     10  C   UNL     1       9.807   0.235  22.999  0.00  0.00    +0.114 C 
ATOM     11  C   UNL     1      10.346   1.035  23.948  0.00  0.00    +0.032 C 
BRANCH  10  13
ATOM     12  N   UNL     1       9.255  -1.976  24.155  0.00  0.00    -0.297 N 
ATOM     13  C   UNL     1       9.960  -1.262  23.170  0.00  0.00    +0.257 C 
ATOM     14  O   UNL     1      10.742  -1.850  22.414  0.00  0.00    -0.269 OA
BRANCH  12  16
ATOM     15  C   UNL     1       8.434  -4.343  24.154  0.00  0.00    +0.024 C 
ATOM     16  C   UNL     1       9.612  -3.395  24.327  0.00  0.00    +0.105 C 
ENDBRANCH  12  16
BRANCH  12  17
ATOM     17  C   UNL     1       8.233  -1.382  25.029  0.00  0.00    +0.105 C 
ATOM     18  C   UNL     1       8.554  -1.090  26.486  0.00  0.00    +0.024 C 
ENDBRANCH  12  17
ENDBRANCH  10  13
BRANCH  10  19
ATOM     19  C   UNL     1       9.057   0.823  21.945  0.00  0.00    +0.104 C 
ATOM     20  N   UNL     1       8.468   1.343  21.093  0.00  0.00    -0.191 NA
ENDBRANCH  10  19
ENDBRANCH   1  11
BRANCH   3  21
ATOM     21  O   UNL     1       7.668   5.061  24.484  0.00  0.00    -0.503 OA
ATOM     22  H   UNL     1       7.036   4.314  24.516  0.00  0.00    +0.292 HD
ENDBRANCH   3  21
BRANCH   4  23
ATOM     23  O   UNL     1       9.694   6.658  23.831  0.00  0.00    -0.499 OA
ATOM     24  H   UNL     1       8.764   6.815  24.106  0.00  0.00    +0.293 HD
ENDBRANCH   4  23
TORSDOF 8
ENDMDL
MODEL 8
REMARK VINA RESULT:      -5.7      1.997      3.286
REMARK  Name = 
REMARK  10 active torsions:
REMARK  status: ('A' for Active; 'I' for Inactive)
REMARK    1  A    between atoms: C_1  and  C_2
REMARK    2  A    between atoms: C_2  and  N_3
REMARK    3  A    between atoms: N_3  and  C_4
REMARK    4  A    between atoms: C_4  and  C_5
REMARK    5  A    between atoms: C_6  and  C_8
REMARK    6  A    between atoms: C_8  and  C_21
REMARK    7  A    between atoms: C_9  and  C_10
REMARK    8  A    between atoms: C_12  and  N_18
REMARK    9  A    between atoms: C_13  and  O_14
REMARK   10  A    between atoms: C_15  and  O_16
REMARK                            x       y       z     vdW  Elec       q    Type
REMARK                         _______ _______ _______ _____ _____    ______ ____
ROOT
ATOM      1  C   UNL     1       7.153  -4.513  24.871  0.00  0.00    -0.014 A 
ATOM      2  C   UNL     1       7.502  -4.820  26.192  0.00  0.00    +0.057 A 
ATOM      3  C   UNL     1       6.726  -5.717  26.922  0.00  0.00    +0.166 A 
ATOM      4  C   UNL     1       5.597  -6.324  26.373  0.00  0.00    +0.237 A 
ATOM      5  C   UNL     1       5.251  -6.027  25.052  0.00  0.00    +0.318 A 
ATOM      6  C   UNL     1       6.028  -5.124  24.298  0.00  0.00    +0.096 A 
ENDROOT
BRANCH   5   7
ATOM      7  N   UNL     1       4.081  -6.647  24.428  0.00  0.00    +0.084 N 
ATOM      8  O   UNL     1       3.920  -7.865  24.604  0.00  0.00    +0.042 OA
ATOM      9  O   UNL     1       3.321  -5.926  23.770  0.00  0.00    -0.576 OA
ENDBRANCH   5   7
BRANCH   1  11
ATOM     10  C   UNL     1       7.657  -2.331  23.778  0.00  0.00    +0.114 C 
ATOM     11  C   UNL     1       7.997  -3.608  24.072  0.00  0.00    +0.032 C 
BRANCH  10  13
ATOM     12  N   UNL     1       9.354  -0.462  23.383  0.00  0.00    -0.297 N 
ATOM     13  C   UNL     1       8.595  -1.539  22.891  0.00  0.00    +0.257 C 
ATOM     14  O   UNL     1       8.671  -1.862  21.700  0.00  0.00    -0.269 OA
BRANCH  12  16
ATOM     15  C   UNL     1       9.338   1.543  21.879  0.00  0.00    +0.024 C 
ATOM     16  C   UNL     1      10.102   0.329  22.390  0.00  0.00    +0.105 C 
ENDBRANCH  12  16
BRANCH  12  17
ATOM     17  C   UNL     1       9.407  -0.070  24.799  0.00  0.00    +0.105 C 
ATOM     18  C   UNL     1       8.453   0.988  25.331  0.00  0.00    +0.024 C 
ENDBRANCH  12  17
ENDBRANCH  10  13
BRANCH  10  19
ATOM     19  C   UNL     1       6.412  -1.826  24.237  0.00  0.00    +0.104 C 
ATOM     20  N   UNL     1       5.418  -1.381  24.637  0.00  0.00    -0.191 NA
ENDBRANCH  10  19
ENDBRANCH   1  11
BRANCH   3  21
ATOM     21  O   UNL     1       7.094  -6.005  28.207  0.00  0.00    -0.503 OA
ATOM     22  H   UNL     1       7.198  -5.135  28.647  0.00  0.00    +0.292 HD
ENDBRANCH   3  21
BRANCH   4  23
ATOM     23  O   UNL     1       4.921  -7.176  27.212  0.00  0.00    -0.499 OA
ATOM     24  H   UNL     1       4.718  -6.715  28.055  0.00  0.00    +0.293 HD
ENDBRANCH   4  23
TORSDOF 8
ENDMDL
MODEL 9
REMARK VINA RESULT:      -5.6      2.678      3.627
REMARK  Name = 
REMARK  10 active torsions:
REMARK  status: ('A' for Active; 'I' for Inactive)
REMARK    1  A    between atoms: C_1  and  C_2
REMARK    2  A    between atoms: C_2  and  N_3
REMARK    3  A    between atoms: N_3  and  C_4
REMARK    4  A    between atoms: C_4  and  C_5
REMARK    5  A    between atoms: C_6  and  C_8
REMARK    6  A    between atoms: C_8  and  C_21
REMARK    7  A    between atoms: C_9  and  C_10
REMARK    8  A    between atoms: C_12  and  N_18
REMARK    9  A    between atoms: C_13  and  O_14
REMARK   10  A    between atoms: C_15  and  O_16
REMARK                            x       y       z     vdW  Elec       q    Type
REMARK                         _______ _______ _______ _____ _____    ______ ____
ROOT
ATOM      1  C   UNL     1       7.233  -2.265  23.161  0.00  0.00    -0.014 A 
ATOM      2  C   UNL     1       5.997  -2.715  22.683  0.00  0.00    +0.057 A 
ATOM      3  C   UNL     1       5.549  -3.991  23.017  0.00  0.00    +0.166 A 
ATOM      4  C   UNL     1       6.305  -4.845  23.820  0.00  0.00    +0.237 A 
ATOM      5  C   UNL     1       7.535  -4.395  24.307  0.00  0.00    +0.318 A 
ATOM      6  C   UNL     1       8.001  -3.105  23.981  0.00  0.00    +0.096 A 
ENDROOT
BRANCH   5   7
ATOM      7  N   UNL     1       8.359  -5.251  25.163  0.00  0.00    +0.084 N 
ATOM      8  O   UNL     1       7.805  -5.786  26.135  0.00  0.00    +0.042 OA
ATOM      9  O   UNL     1       9.552  -5.394  24.867  0.00  0.00    -0.576 OA
ENDBRANCH   5   7
BRANCH   1  11
ATOM     10  C   UNL     1       7.199   0.209  23.464  0.00  0.00    +0.114 C 
ATOM     11  C   UNL     1       7.692  -0.897  22.859  0.00  0.00    +0.032 C 
BRANCH  10  13
ATOM     12  N   UNL     1       8.794   2.196  23.648  0.00  0.00    -0.297 N 
ATOM     13  C   UNL     1       7.721   1.554  23.004  0.00  0.00    +0.257 C 
ATOM     14  O   UNL     1       7.164   2.089  22.038  0.00  0.00    -0.269 OA
BRANCH  12  16
ATOM     15  C   UNL     1       8.897   4.614  24.300  0.00  0.00    +0.024 C 
ATOM     16  C   UNL     1       9.102   3.569  23.211  0.00  0.00    +0.105 C 
ENDBRANCH  12  16
BRANCH  12  17
ATOM     17  C   UNL     1       9.581   1.596  24.735  0.00  0.00    +0.105 C 
ATOM     18  C   UNL     1      10.821   0.777  24.413  0.00  0.00    +0.024 C 
ENDBRANCH  12  17
ENDBRANCH  10  13
BRANCH  10  19
ATOM     19  C   UNL     1       6.166   0.065  24.427  0.00  0.00    +0.104 C 
ATOM     20  N   UNL     1       5.291  -0.039  25.181  0.00  0.00    -0.191 NA
ENDBRANCH  10  19
ENDBRANCH   1  11
BRANCH   3  21
ATOM     21  O   UNL     1       4.335  -4.403  22.544  0.00  0.00    -0.503 OA
ATOM     22  H   UNL     1       4.205  -3.912  21.706  0.00  0.00    +0.292 HD
ENDBRANCH   3  21
BRANCH   4  23
ATOM     23  O   UNL     1       5.745  -6.077  24.058  0.00  0.00    -0.499 OA
ATOM     24  H   UNL     1       5.304  -6.073  24.935  0.00  0.00    +0.293 HD
ENDBRANCH   4  23
TORSDOF 8
ENDMDL
