MODEL 1
REMARK VINA RESULT:      -6.9      0.000      0.000
REMARK  Name = 
REMARK  10 active torsions:
REMARK  status: ('A' for Active; 'I' for Inactive)
REMARK    1  A    between atoms: C_1  and  N_2
REMARK    2  A    between atoms: N_2  and  N_3
REMARK    3  A    between atoms: N_2  and  C_20
REMARK    4  A    between atoms: C_4  and  C_6
REMARK    5  A    between atoms: C_6  and  C_7
REMARK    6  A    between atoms: N_9  and  N_10
REMARK    7  A    between atoms: N_10  and  C_11
REMARK    8  A    between atoms: N_10  and  C_12
REMARK    9  A    between atoms: C_12  and  C_14
REMARK   10  A    between atoms: C_20  and  C_22
REMARK                            x       y       z     vdW  Elec       q    Type
REMARK                         _______ _______ _______ _____ _____    ______ ____
ROOT
ATOM      1  C   UNL     1       9.843  -1.038  23.776  0.00  0.00    +0.194 C 
ENDROOT
BRANCH   1   4
ATOM      2  N   UNL     1       9.597  -3.387  24.436  0.00  0.00    -0.233 N 
ATOM      3  H   UNL     1       9.949  -3.595  23.502  0.00  0.00    +0.173 HD
ATOM      4  C   UNL     1       9.281  -2.065  24.736  0.00  0.00    +0.238 C 
ATOM      5  O   UNL     1       8.631  -1.704  25.716  0.00  0.00    -0.274 OA
BRANCH   2   7
ATOM      6  C   UNL     1       9.961  -5.339  25.851  0.00  0.00    +0.154 C 
ATOM      7  N   UNL     1       9.005  -4.480  25.147  0.00  0.00    -0.246 N 
BRANCH   7   8
ATOM      8  C   UNL     1       7.668  -4.849  24.905  0.00  0.00    +0.098 C 
ATOM      9  S   UNL     1       6.608  -5.254  26.170  0.00  0.00    -0.033 S 
BRANCH   8  10
ATOM     10  C   UNL     1       7.154  -4.750  23.487  0.00  0.00    +0.005 A 
ATOM     11  C   UNL     1       6.348  -3.663  23.112  0.00  0.00    +0.010 A 
ATOM     12  C   UNL     1       5.800  -3.588  21.828  0.00  0.00    +0.001 A 
ATOM     13  C   UNL     1       6.012  -4.619  20.915  0.00  0.00    +0.000 A 
ATOM     14  C   UNL     1       6.768  -5.727  21.286  0.00  0.00    +0.001 A 
ATOM     15  C   UNL     1       7.341  -5.791  22.562  0.00  0.00    +0.010 A 
ENDBRANCH   8  10
ENDBRANCH   7   8
ENDBRANCH   2   7
ENDBRANCH   1   4
BRANCH   1  16
ATOM     16  C   UNL     1       9.875   0.359  24.316  0.00  0.00    +0.238 C 
ATOM     17  N   UNL     1       8.637   1.011  24.318  0.00  0.00    -0.233 N 
ATOM     18  H   UNL     1       7.920   0.720  23.652  0.00  0.00    +0.173 HD
ATOM     19  O   UNL     1      10.902   0.838  24.799  0.00  0.00    -0.274 OA
BRANCH  17  20
ATOM     20  N   UNL     1       8.541   2.396  24.685  0.00  0.00    -0.246 N 
ATOM     21  C   UNL     1       7.675   2.625  25.845  0.00  0.00    +0.154 C 
BRANCH  20  22
ATOM     22  C   UNL     1       8.686   3.380  23.685  0.00  0.00    +0.098 C 
ATOM     23  S   UNL     1       7.589   3.530  22.404  0.00  0.00    -0.033 S 
BRANCH  22  24
ATOM     24  C   UNL     1       9.908   4.260  23.789  0.00  0.00    +0.005 A 
ATOM     25  C   UNL     1       9.855   5.556  24.329  0.00  0.00    +0.010 A 
ATOM     26  C   UNL     1      11.006   6.352  24.371  0.00  0.00    +0.001 A 
ATOM     27  C   UNL     1      12.216   5.864  23.872  0.00  0.00    +0.000 A 
ATOM     28  C   UNL     1      12.274   4.590  23.318  0.00  0.00    +0.001 A 
ATOM     29  C   UNL     1      11.126   3.794  23.268  0.00  0.00    +0.010 A 
ENDBRANCH  22  24
ENDBRANCH  20  22
ENDBRANCH  17  20
ENDBRANCH   1  16
TORSDOF 8
ENDMDL
MODEL 2
REMARK VINA RESULT:      -6.9      1.505      2.679
REMARK  Name = 
REMARK  10 active torsions:
REMARK  status: ('A' for Active; 'I' for Inactive)
REMARK    1  A    between atoms: C_1  and  N_2
REMARK    2  A    between atoms: N_2  and  N_3
REMARK    3  A    between atoms: N_2  and  C_20
REMARK    4  A    between atoms: C_4  and  C_6
REMARK    5  A    between atoms: C_6  and  C_7
REMARK    6  A    between atoms: N_9  and  N_10
REMARK    7  A    between atoms: N_10  and  C_11
REMARK    8  A    between atoms: N_10  and  C_12
REMARK    9  A    between atoms: C_12  and  C_14
REMARK   10  A    between atoms: C_20  and  C_22
REMARK                            x       y       z     vdW  Elec       q    Type
REMARK                         _______ _______ _______ _____ _____    ______ ____
ROOT
ATOM      1  C   UNL     1       9.864  -1.053  23.438  0.00  0.00    +0.194 C 
ENDROOT
BRANCH   1   4
ATOM      2  N   UNL     1       8.306  -2.756  22.606  0.00  0.00    -0.233 N 
ATOM      3  H   UNL     1       8.783  -2.629  21.714  0.00  0.00    +0.173 HD
ATOM      4  C   UNL     1       8.603  -1.868  23.637  0.00  0.00    +0.238 C 
ATOM      5  O   UNL     1       7.945  -1.745  24.669  0.00  0.00    -0.274 OA
BRANCH   2   7
ATOM      6  C   UNL     1       5.882  -2.633  22.373  0.00  0.00    +0.154 C 
ATOM      7  N   UNL     1       7.068  -3.472  22.567  0.00  0.00    -0.246 N 
BRANCH   7   8
ATOM      8  C   UNL     1       7.003  -4.812  22.999  0.00  0.00    +0.098 C 
ATOM      9  S   UNL     1       7.087  -6.110  21.906  0.00  0.00    -0.033 S 
BRANCH   8  10
ATOM     10  C   UNL     1       6.988  -5.073  24.487  0.00  0.00    +0.005 A 
ATOM     11  C   UNL     1       5.765  -5.109  25.176  0.00  0.00    +0.010 A 
ATOM     12  C   UNL     1       5.731  -5.275  26.564  0.00  0.00    +0.001 A 
ATOM     13  C   UNL     1       6.917  -5.362  27.289  0.00  0.00    +0.000 A 
ATOM     14  C   UNL     1       8.139  -5.280  26.628  0.00  0.00    +0.001 A 
ATOM     15  C   UNL     1       8.176  -5.142  25.235  0.00  0.00    +0.010 A 
ENDBRANCH   8  10
ENDBRANCH   7   8
ENDBRANCH   2   7
ENDBRANCH   1   4
BRANCH   1  16
ATOM     16  C   UNL     1       9.861   0.270  24.140  0.00  0.00    +0.238 C 
ATOM     17  N   UNL     1       8.667   0.990  24.020  0.00  0.00    -0.233 N 
ATOM     18  H   UNL     1       8.062   0.820  23.216  0.00  0.00    +0.173 HD
ATOM     19  O   UNL     1      10.810   0.629  24.839  0.00  0.00    -0.274 OA
BRANCH  17  20
ATOM     20  N   UNL     1       8.567   2.329  24.531  0.00  0.00    -0.246 N 
ATOM     21  C   UNL     1       7.741   2.424  25.737  0.00  0.00    +0.154 C 
BRANCH  20  22
ATOM     22  C   UNL     1       8.663   3.413  23.633  0.00  0.00    +0.098 C 
ATOM     23  S   UNL     1       7.498   3.699  22.440  0.00  0.00    -0.033 S 
BRANCH  22  24
ATOM     24  C   UNL     1       9.896   4.274  23.760  0.00  0.00    +0.005 A 
ATOM     25  C   UNL     1       9.857   5.561  24.322  0.00  0.00    +0.010 A 
ATOM     26  C   UNL     1      11.019   6.341  24.384  0.00  0.00    +0.001 A 
ATOM     27  C   UNL     1      12.225   5.846  23.884  0.00  0.00    +0.000 A 
ATOM     28  C   UNL     1      12.269   4.580  23.309  0.00  0.00    +0.001 A 
ATOM     29  C   UNL     1      11.112   3.801  23.238  0.00  0.00    +0.010 A 
ENDBRANCH  22  24
ENDBRANCH  20  22
ENDBRANCH  17  20
ENDBRANCH   1  16
TORSDOF 8
ENDMDL
MODEL 3
REMARK VINA RESULT:      -6.8      1.720      8.813
REMARK  Name = 
REMARK  10 active torsions:
REMARK  status: ('A' for Active; 'I' for Inactive)
REMARK    1  A    between atoms: C_1  and  N_2
REMARK    2  A    between atoms: N_2  and  N_3
REMARK    3  A    between atoms: N_2  and  C_20
REMARK    4  A    between atoms: C_4  and  C_6
REMARK    5  A    between atoms: C_6  and  C_7
REMARK    6  A    between atoms: N_9  and  N_10
REMARK    7  A    between atoms: N_10  and  C_11
REMARK    8  A    between atoms: N_10  and  C_12
REMARK    9  A    between atoms: C_12  and  C_14
REMARK   10  A    between atoms: C_20  and  C_22
REMARK                            x       y       z     vdW  Elec       q    Type
REMARK                         _______ _______ _______ _____ _____    ______ ____
ROOT
ATOM      1  C   UNL     1      10.397  -1.215  23.413  0.00  0.00    +0.194 C 
ENDROOT
BRANCH   1   4
ATOM      2  N   UNL     1       8.892   0.670  23.857  0.00  0.00    -0.233 N 
ATOM      3  H   UNL     1       8.386   0.346  23.032  0.00  0.00    +0.173 HD
ATOM      4  C   UNL     1      10.122   0.085  24.140  0.00  0.00    +0.238 C 
ATOM      5  O   UNL     1      10.943   0.530  24.941  0.00  0.00    -0.274 OA
BRANCH   2   7
ATOM      6  C   UNL     1       7.801   1.996  25.588  0.00  0.00    +0.154 C 
ATOM      7  N   UNL     1       8.555   1.978  24.332  0.00  0.00    -0.246 N 
BRANCH   7   8
ATOM      8  C   UNL     1       8.671   3.097  23.485  0.00  0.00    +0.098 C 
ATOM      9  S   UNL     1       7.449   3.514  22.380  0.00  0.00    -0.033 S 
BRANCH   8  10
ATOM     10  C   UNL     1       9.864   4.005  23.674  0.00  0.00    +0.005 A 
ATOM     11  C   UNL     1       9.680   5.303  24.178  0.00  0.00    +0.010 A 
ATOM     12  C   UNL     1      10.758   6.186  24.292  0.00  0.00    +0.001 A 
ATOM     13  C   UNL     1      12.026   5.803  23.864  0.00  0.00    +0.000 A 
ATOM     14  C   UNL     1      12.218   4.537  23.318  0.00  0.00    +0.001 A 
ATOM     15  C   UNL     1      11.146   3.641  23.227  0.00  0.00    +0.010 A 
ENDBRANCH   8  10
ENDBRANCH   7   8
ENDBRANCH   2   7
ENDBRANCH   1   4
BRANCH   1  16
ATOM     16  C   UNL     1       9.208  -1.791  22.708  0.00  0.00    +0.238 C 
ATOM     17  N   UNL     1       8.380  -2.581  23.513  0.00  0.00    -0.233 N 
ATOM     18  H   UNL     1       8.774  -3.035  24.338  0.00  0.00    +0.173 HD
ATOM     19  O   UNL     1       8.952  -1.501  21.538  0.00  0.00    -0.274 OA
BRANCH  17  20
ATOM     20  N   UNL     1       7.277  -3.302  22.941  0.00  0.00    -0.246 N 
ATOM     21  C   UNL     1       6.113  -2.454  22.671  0.00  0.00    +0.154 C 
BRANCH  20  22
ATOM     22  C   UNL     1       7.120  -4.669  23.251  0.00  0.00    +0.098 C 
ATOM     23  S   UNL     1       7.140  -5.870  22.059  0.00  0.00    -0.033 S 
BRANCH  22  24
ATOM     24  C   UNL     1       6.876  -4.998  24.703  0.00  0.00    +0.005 A 
ATOM     25  C   UNL     1       7.919  -5.065  25.642  0.00  0.00    +0.010 A 
ATOM     26  C   UNL     1       7.651  -5.413  26.973  0.00  0.00    +0.001 A 
ATOM     27  C   UNL     1       6.345  -5.697  27.375  0.00  0.00    +0.000 A 
ATOM     28  C   UNL     1       5.309  -5.652  26.448  0.00  0.00    +0.001 A 
ATOM     29  C   UNL     1       5.571  -5.313  25.118  0.00  0.00    +0.010 A 
ENDBRANCH  22  24
ENDBRANCH  20  22
ENDBRANCH  17  20
ENDBRANCH   1  16
TORSDOF 8
ENDMDL
MODEL 4
REMARK VINA RESULT:      -6.7      0.236      8.909
REMARK  Name = 
REMARK  10 active torsions:
REMARK  status: ('A' for Active; 'I' for Inactive)
REMARK    1  A    between atoms: C_1  and  N_2
REMARK    2  A    between atoms: N_2  and  N_3
REMARK    3  A    between atoms: N_2  and  C_20
REMARK    4  A    between atoms: C_4  and  C_6
REMARK    5  A    between atoms: C_6  and  C_7
REMARK    6  A    between atoms: N_9  and  N_10
REMARK    7  A    between atoms: N_10  and  C_11
REMARK    8  A    between atoms: N_10  and  C_12
REMARK    9  A    between atoms: C_12  and  C_14
REMARK   10  A    between atoms: C_20  and  C_22
REMARK                            x       y       z     vdW  Elec       q    Type
REMARK                         _______ _______ _______ _____ _____    ______ ____
ROOT
ATOM      1  C   UNL     1       9.682  -0.945  23.831  0.00  0.00    +0.194 C 
ENDROOT
BRANCH   1   4
ATOM      2  N   UNL     1       8.484   1.129  24.362  0.00  0.00    -0.233 N 
ATOM      3  H   UNL     1       7.708   0.706  23.854  0.00  0.00    +0.173 HD
ATOM      4  C   UNL     1       9.720   0.490  24.316  0.00  0.00    +0.238 C 
ATOM      5  O   UNL     1      10.785   0.995  24.667  0.00  0.00    -0.274 OA
BRANCH   2   7
ATOM      6  C   UNL     1       7.736   2.853  25.916  0.00  0.00    +0.154 C 
ATOM      7  N   UNL     1       8.374   2.529  24.637  0.00  0.00    -0.246 N 
BRANCH   7   8
ATOM      8  C   UNL     1       8.574   3.476  23.613  0.00  0.00    +0.098 C 
ATOM      9  S   UNL     1       7.445   3.694  22.362  0.00  0.00    -0.033 S 
BRANCH   8  10
ATOM     10  C   UNL     1       9.768   4.395  23.726  0.00  0.00    +0.005 A 
ATOM     11  C   UNL     1      11.024   3.967  23.267  0.00  0.00    +0.010 A 
ATOM     12  C   UNL     1      12.157   4.770  23.428  0.00  0.00    +0.001 A 
ATOM     13  C   UNL     1      12.061   5.992  24.090  0.00  0.00    +0.000 A 
ATOM     14  C   UNL     1      10.833   6.411  24.594  0.00  0.00    +0.001 A 
ATOM     15  C   UNL     1       9.692   5.621  24.410  0.00  0.00    +0.010 A 
ENDBRANCH   8  10
ENDBRANCH   7   8
ENDBRANCH   2   7
ENDBRANCH   1   4
BRANCH   1  16
ATOM     16  C   UNL     1       9.205  -1.930  24.854  0.00  0.00    +0.238 C 
ATOM     17  N   UNL     1       9.404  -3.271  24.508  0.00  0.00    -0.233 N 
ATOM     18  H   UNL     1       9.469  -3.526  23.522  0.00  0.00    +0.173 HD
ATOM     19  O   UNL     1       8.765  -1.561  25.944  0.00  0.00    -0.274 OA
BRANCH  17  20
ATOM     20  N   UNL     1       8.880  -4.323  25.333  0.00  0.00    -0.246 N 
ATOM     21  C   UNL     1       9.903  -5.278  25.766  0.00  0.00    +0.154 C 
BRANCH  20  22
ATOM     22  C   UNL     1       7.541  -4.730  25.154  0.00  0.00    +0.098 C 
ATOM     23  S   UNL     1       6.574  -5.237  26.447  0.00  0.00    -0.033 S 
BRANCH  22  24
ATOM     24  C   UNL     1       7.033  -4.740  23.733  0.00  0.00    +0.005 A 
ATOM     25  C   UNL     1       7.417  -5.724  22.806  0.00  0.00    +0.010 A 
ATOM     26  C   UNL     1       6.951  -5.673  21.486  0.00  0.00    +0.001 A 
ATOM     27  C   UNL     1       6.103  -4.641  21.081  0.00  0.00    +0.000 A 
ATOM     28  C   UNL     1       5.733  -3.652  21.985  0.00  0.00    +0.001 A 
ATOM     29  C   UNL     1       6.200  -3.694  23.301  0.00  0.00    +0.010 A 
ENDBRANCH  22  24
ENDBRANCH  20  22
ENDBRANCH  17  20
ENDBRANCH   1  16
TORSDOF 8
ENDMDL
MODEL 5
REMARK VINA RESULT:      -6.7      1.628      7.676
REMARK  Name = 
REMARK  10 active torsions:
REMARK  status: ('A' for Active; 'I' for Inactive)
REMARK    1  A    between atoms: C_1  and  N_2
REMARK    2  A    between atoms: N_2  and  N_3
REMARK    3  A    between atoms: N_2  and  C_20
REMARK    4  A    between atoms: C_4  and  C_6
REMARK    5  A    between atoms: C_6  and  C_7
REMARK    6  A    between atoms: N_9  and  N_10
REMARK    7  A    between atoms: N_10  and  C_11
REMARK    8  A    between atoms: N_10  and  C_12
REMARK    9  A    between atoms: C_12  and  C_14
REMARK   10  A    between atoms: C_20  and  C_22
REMARK                            x       y       z     vdW  Elec       q    Type
REMARK                         _______ _______ _______ _____ _____    ______ ____
ROOT
ATOM      1  C   UNL     1      10.492  -1.084  22.870  0.00  0.00    +0.194 C 
ENDROOT
BRANCH   1   4
ATOM      2  N   UNL     1      10.043   1.243  23.506  0.00  0.00    -0.233 N 
ATOM      3  H   UNL     1      10.228   0.925  24.457  0.00  0.00    +0.173 HD
ATOM      4  C   UNL     1       9.945   0.281  22.504  0.00  0.00    +0.238 C 
ATOM      5  O   UNL     1       9.494   0.483  21.378  0.00  0.00    -0.274 OA
BRANCH   2   7
ATOM      6  C   UNL     1      10.337   3.663  23.528  0.00  0.00    +0.154 C 
ATOM      7  N   UNL     1       9.424   2.527  23.375  0.00  0.00    -0.246 N 
BRANCH   7   8
ATOM      8  C   UNL     1       8.022   2.652  23.420  0.00  0.00    +0.098 C 
ATOM      9  S   UNL     1       7.180   3.673  22.354  0.00  0.00    -0.033 S 
BRANCH   8  10
ATOM     10  C   UNL     1       7.262   1.747  24.362  0.00  0.00    +0.005 A 
ATOM     11  C   UNL     1       7.406   1.907  25.750  0.00  0.00    +0.010 A 
ATOM     12  C   UNL     1       6.772   1.035  26.640  0.00  0.00    +0.001 A 
ATOM     13  C   UNL     1       6.022  -0.035  26.158  0.00  0.00    +0.000 A 
ATOM     14  C   UNL     1       5.907  -0.237  24.786  0.00  0.00    +0.001 A 
ATOM     15  C   UNL     1       6.519   0.651  23.892  0.00  0.00    +0.010 A 
ENDBRANCH   8  10
ENDBRANCH   7   8
ENDBRANCH   2   7
ENDBRANCH   1   4
BRANCH   1  16
ATOM     16  C   UNL     1       9.821  -1.722  24.048  0.00  0.00    +0.238 C 
ATOM     17  N   UNL     1       9.826  -3.121  24.034  0.00  0.00    -0.233 N 
ATOM     18  H   UNL     1       9.897  -3.609  23.140  0.00  0.00    +0.173 HD
ATOM     19  O   UNL     1       9.392  -1.048  24.986  0.00  0.00    -0.274 OA
BRANCH  17  20
ATOM     20  N   UNL     1       9.107  -3.864  25.030  0.00  0.00    -0.246 N 
ATOM     21  C   UNL     1       9.904  -4.935  25.635  0.00  0.00    +0.154 C 
BRANCH  20  22
ATOM     22  C   UNL     1       7.706  -3.980  24.918  0.00  0.00    +0.098 C 
ATOM     23  S   UNL     1       6.680  -3.824  26.255  0.00  0.00    -0.033 S 
BRANCH  22  24
ATOM     24  C   UNL     1       7.173  -4.309  23.545  0.00  0.00    +0.005 A 
ATOM     25  C   UNL     1       6.390  -3.405  22.808  0.00  0.00    +0.010 A 
ATOM     26  C   UNL     1       5.884  -3.767  21.553  0.00  0.00    +0.001 A 
ATOM     27  C   UNL     1       6.153  -5.031  21.026  0.00  0.00    +0.000 A 
ATOM     28  C   UNL     1       6.911  -5.940  21.756  0.00  0.00    +0.001 A 
ATOM     29  C   UNL     1       7.412  -5.587  23.011  0.00  0.00    +0.010 A 
ENDBRANCH  22  24
ENDBRANCH  20  22
ENDBRANCH  17  20
ENDBRANCH   1  16
TORSDOF 8
ENDMDL
MODEL 6
REMARK VINA RESULT:      -6.6      1.644      3.544
REMARK  Name = 
REMARK  10 active torsions:
REMARK  status: ('A' for Active; 'I' for Inactive)
REMARK    1  A    between atoms: C_1  and  N_2
REMARK    2  A    between atoms: N_2  and  N_3
REMARK    3  A    between atoms: N_2  and  C_20
REMARK    4  A    between atoms: C_4  and  C_6
REMARK    5  A    between atoms: C_6  and  C_7
REMARK    6  A    between atoms: N_9  and  N_10
REMARK    7  A    between atoms: N_10  and  C_11
REMARK    8  A    between atoms: N_10  and  C_12
REMARK    9  A    between atoms: C_12  and  C_14
REMARK   10  A    between atoms: C_20  and  C_22
REMARK                            x       y       z     vdW  Elec       q    Type
REMARK                         _______ _______ _______ _____ _____    ______ ____
ROOT
ATOM      1  C   UNL     1      10.431  -1.444  22.855  0.00  0.00    +0.194 C 
ENDROOT
BRANCH   1   4
ATOM      2  N   UNL     1       9.641  -3.376  24.144  0.00  0.00    -0.233 N 
ATOM      3  H   UNL     1       9.800  -3.902  23.285  0.00  0.00    +0.173 HD
ATOM      4  C   UNL     1       9.739  -1.989  24.088  0.00  0.00    +0.238 C 
ATOM      5  O   UNL     1       9.343  -1.221  24.963  0.00  0.00    -0.274 OA
BRANCH   2   7
ATOM      6  C   UNL     1       9.662  -4.800  26.123  0.00  0.00    +0.154 C 
ATOM      7  N   UNL     1       8.872  -4.033  25.156  0.00  0.00    -0.246 N 
BRANCH   7   8
ATOM      8  C   UNL     1       7.478  -4.174  25.015  0.00  0.00    +0.098 C 
ATOM      9  S   UNL     1       6.414  -3.908  26.313  0.00  0.00    -0.033 S 
BRANCH   8  10
ATOM     10  C   UNL     1       6.932  -4.445  23.631  0.00  0.00    +0.005 A 
ATOM     11  C   UNL     1       7.206  -5.670  23.001  0.00  0.00    +0.010 A 
ATOM     12  C   UNL     1       6.775  -5.914  21.694  0.00  0.00    +0.001 A 
ATOM     13  C   UNL     1       6.106  -4.923  20.981  0.00  0.00    +0.000 A 
ATOM     14  C   UNL     1       5.868  -3.686  21.572  0.00  0.00    +0.001 A 
ATOM     15  C   UNL     1       6.274  -3.449  22.891  0.00  0.00    +0.010 A 
ENDBRANCH   8  10
ENDBRANCH   7   8
ENDBRANCH   2   7
ENDBRANCH   1   4
BRANCH   1  16
ATOM     16  C   UNL     1       9.929  -0.106  22.406  0.00  0.00    +0.238 C 
ATOM     17  N   UNL     1      10.107   0.924  23.336  0.00  0.00    -0.233 N 
ATOM     18  H   UNL     1      10.174   0.693  24.329  0.00  0.00    +0.173 HD
ATOM     19  O   UNL     1       9.488   0.066  21.269  0.00  0.00    -0.274 OA
BRANCH  17  20
ATOM     20  N   UNL     1       9.558   2.229  23.094  0.00  0.00    -0.246 N 
ATOM     21  C   UNL     1      10.488   3.314  23.418  0.00  0.00    +0.154 C 
BRANCH  20  22
ATOM     22  C   UNL     1       8.164   2.416  23.204  0.00  0.00    +0.098 C 
ATOM     23  S   UNL     1       7.338   3.579  22.294  0.00  0.00    -0.033 S 
BRANCH  22  24
ATOM     24  C   UNL     1       7.455   1.555  24.221  0.00  0.00    +0.005 A 
ATOM     25  C   UNL     1       6.576   0.524  23.848  0.00  0.00    +0.010 A 
ATOM     26  C   UNL     1       5.909  -0.224  24.827  0.00  0.00    +0.001 A 
ATOM     27  C   UNL     1       6.112   0.051  26.180  0.00  0.00    +0.000 A 
ATOM     28  C   UNL     1       6.966   1.082  26.558  0.00  0.00    +0.001 A 
ATOM     29  C   UNL     1       7.627   1.836  25.586  0.00  0.00    +0.010 A 
ENDBRANCH  22  24
ENDBRANCH  20  22
ENDBRANCH  17  20
ENDBRANCH   1  16
TORSDOF 8
ENDMDL
MODEL 7
REMARK VINA RESULT:      -6.6      2.018      8.508
REMARK  Name = 
REMARK  10 active torsions:
REMARK  status: ('A' for Active; 'I' for Inactive)
REMARK    1  A    between atoms: C_1  and  N_2
REMARK    2  A    between atoms: N_2  and  N_3
REMARK    3  A    between atoms: N_2  and  C_20
REMARK    4  A    between atoms: C_4  and  C_6
REMARK    5  A    between atoms: C_6  and  C_7
REMARK    6  A    between atoms: N_9  and  N_10
REMARK    7  A    between atoms: N_10  and  C_11
REMARK    8  A    between atoms: N_10  and  C_12
REMARK    9  A    between atoms: C_12  and  C_14
REMARK   10  A    between atoms: C_20  and  C_22
REMARK                            x       y       z     vdW  Elec       q    Type
REMARK                         _______ _______ _______ _____ _____    ______ ____
ROOT
ATOM      1  C   UNL     1       9.667  -1.108  21.822  0.00  0.00    +0.194 C 
ENDROOT
BRANCH   1   4
ATOM      2  N   UNL     1      10.242   0.961  23.007  0.00  0.00    -0.233 N 
ATOM      3  H   UNL     1      10.610   0.342  23.728  0.00  0.00    +0.173 HD
ATOM      4  C   UNL     1       9.514   0.392  21.966  0.00  0.00    +0.238 C 
ATOM      5  O   UNL     1       8.816   1.020  21.171  0.00  0.00    -0.274 OA
BRANCH   2   7
ATOM      6  C   UNL     1      11.318   3.109  23.427  0.00  0.00    +0.154 C 
ATOM      7  N   UNL     1      10.075   2.334  23.376  0.00  0.00    -0.246 N 
BRANCH   7   8
ATOM      8  C   UNL     1       8.864   2.779  23.942  0.00  0.00    +0.098 C 
ATOM      9  S   UNL     1       8.046   1.879  25.128  0.00  0.00    -0.033 S 
BRANCH   8  10
ATOM     10  C   UNL     1       8.371   4.156  23.559  0.00  0.00    +0.005 A 
ATOM     11  C   UNL     1       7.574   4.318  22.415  0.00  0.00    +0.010 A 
ATOM     12  C   UNL     1       7.168   5.590  22.000  0.00  0.00    +0.001 A 
ATOM     13  C   UNL     1       7.588   6.721  22.695  0.00  0.00    +0.000 A 
ATOM     14  C   UNL     1       8.418   6.582  23.804  0.00  0.00    +0.001 A 
ATOM     15  C   UNL     1       8.803   5.308  24.238  0.00  0.00    +0.010 A 
ENDBRANCH   8  10
ENDBRANCH   7   8
ENDBRANCH   2   7
ENDBRANCH   1   4
BRANCH   1  16
ATOM     16  C   UNL     1       9.517  -1.870  23.102  0.00  0.00    +0.238 C 
ATOM     17  N   UNL     1       8.251  -1.777  23.690  0.00  0.00    -0.233 N 
ATOM     18  H   UNL     1       7.667  -0.963  23.490  0.00  0.00    +0.173 HD
ATOM     19  O   UNL     1      10.421  -2.588  23.532  0.00  0.00    -0.274 OA
BRANCH  17  20
ATOM     20  N   UNL     1       8.002  -2.348  24.984  0.00  0.00    -0.246 N 
ATOM     21  C   UNL     1       8.574  -1.561  26.080  0.00  0.00    +0.154 C 
BRANCH  20  22
ATOM     22  C   UNL     1       7.856  -3.746  25.098  0.00  0.00    +0.098 C 
ATOM     23  S   UNL     1       8.579  -4.628  26.348  0.00  0.00    -0.033 S 
BRANCH  22  24
ATOM     24  C   UNL     1       7.061  -4.423  24.008  0.00  0.00    +0.005 A 
ATOM     25  C   UNL     1       5.672  -4.257  23.879  0.00  0.00    +0.010 A 
ATOM     26  C   UNL     1       4.969  -4.936  22.875  0.00  0.00    +0.001 A 
ATOM     27  C   UNL     1       5.644  -5.784  21.996  0.00  0.00    +0.000 A 
ATOM     28  C   UNL     1       7.016  -5.970  22.128  0.00  0.00    +0.001 A 
ATOM     29  C   UNL     1       7.721  -5.301  23.132  0.00  0.00    +0.010 A 
ENDBRANCH  22  24
ENDBRANCH  20  22
ENDBRANCH  17  20
ENDBRANCH   1  16
TORSDOF 8
ENDMDL
MODEL 8
REMARK VINA RESULT:      -6.6      2.226      8.992
REMARK  Name = 
REMARK  10 active torsions:
REMARK  status: ('A' for Active; 'I' for Inactive)
REMARK    1  A    between atoms: C_1  and  N_2
REMARK    2  A    between atoms: N_2  and  N_3
REMARK    3  A    between atoms: N_2  and  C_20
REMARK    4  A    between atoms: C_4  and  C_6
REMARK    5  A    between atoms: C_6  and  C_7
REMARK    6  A    between atoms: N_9  and  N_10
REMARK    7  A    between atoms: N_10  and  C_11
REMARK    8  A    between atoms: N_10  and  C_12
REMARK    9  A    between atoms: C_12  and  C_14
REMARK   10  A    between atoms: C_20  and  C_22
REMARK                            x       y       z     vdW  Elec       q    Type
REMARK                         _______ _______ _______ _____ _____    ______ ____
ROOT
ATOM      1  C   UNL     1       8.929  -1.421  22.180  0.00  0.00    +0.194 C 
ENDROOT
BRANCH   1   4
ATOM      2  N   UNL     1       8.430   0.978  22.300  0.00  0.00    -0.233 N 
ATOM      3  H   UNL     1       9.373   1.102  21.932  0.00  0.00    +0.173 HD
ATOM      4  C   UNL     1       8.045  -0.302  22.690  0.00  0.00    +0.238 C 
ATOM      5  O   UNL     1       7.049  -0.560  23.364  0.00  0.00    -0.274 OA
BRANCH   2   7
ATOM      6  C   UNL     1       6.817   2.771  21.945  0.00  0.00    +0.154 C 
ATOM      7  N   UNL     1       7.800   2.146  22.834  0.00  0.00    -0.246 N 
BRANCH   7   8
ATOM      8  C   UNL     1       8.332   2.789  23.969  0.00  0.00    +0.098 C 
ATOM      9  S   UNL     1       7.839   2.380  25.543  0.00  0.00    -0.033 S 
BRANCH   8  10
ATOM     10  C   UNL     1       9.459   3.774  23.759  0.00  0.00    +0.005 A 
ATOM     11  C   UNL     1      10.745   3.305  23.445  0.00  0.00    +0.010 A 
ATOM     12  C   UNL     1      11.819   4.192  23.320  0.00  0.00    +0.001 A 
ATOM     13  C   UNL     1      11.634   5.553  23.550  0.00  0.00    +0.000 A 
ATOM     14  C   UNL     1      10.376   6.029  23.909  0.00  0.00    +0.001 A 
ATOM     15  C   UNL     1       9.293   5.147  24.008  0.00  0.00    +0.010 A 
ENDBRANCH   8  10
ENDBRANCH   7   8
ENDBRANCH   2   7
ENDBRANCH   1   4
BRANCH   1  16
ATOM     16  C   UNL     1       8.676  -2.749  22.824  0.00  0.00    +0.238 C 
ATOM     17  N   UNL     1       7.538  -3.415  22.358  0.00  0.00    -0.233 N 
ATOM     18  H   UNL     1       6.773  -2.872  21.955  0.00  0.00    +0.173 HD
ATOM     19  O   UNL     1       9.474  -3.236  23.627  0.00  0.00    -0.274 OA
BRANCH  17  20
ATOM     20  N   UNL     1       7.101  -4.636  22.976  0.00  0.00    -0.246 N 
ATOM     21  C   UNL     1       7.439  -5.829  22.197  0.00  0.00    +0.154 C 
BRANCH  20  22
ATOM     22  C   UNL     1       5.958  -4.613  23.804  0.00  0.00    +0.098 C 
ATOM     23  S   UNL     1       4.468  -4.022  23.263  0.00  0.00    -0.033 S 
BRANCH  22  24
ATOM     24  C   UNL     1       6.153  -5.094  25.221  0.00  0.00    +0.005 A 
ATOM     25  C   UNL     1       5.163  -5.815  25.910  0.00  0.00    +0.010 A 
ATOM     26  C   UNL     1       5.372  -6.208  27.239  0.00  0.00    +0.001 A 
ATOM     27  C   UNL     1       6.564  -5.885  27.888  0.00  0.00    +0.000 A 
ATOM     28  C   UNL     1       7.542  -5.156  27.219  0.00  0.00    +0.001 A 
ATOM     29  C   UNL     1       7.336  -4.755  25.897  0.00  0.00    +0.010 A 
ENDBRANCH  22  24
ENDBRANCH  20  22
ENDBRANCH  17  20
ENDBRANCH   1  16
TORSDOF 8
ENDMDL
MODEL 9
REMARK VINA RESULT:      -6.5      2.561      3.719
REMARK  Name = 
REMARK  10 active torsions:
REMARK  status: ('A' for Active; 'I' for Inactive)
REMARK    1  A    between atoms: C_1  and  N_2
REMARK    2  A    between atoms: N_2  and  N_3
REMARK    3  A    between atoms: N_2  and  C_20
REMARK    4  A    between atoms: C_4  and  C_6
REMARK    5  A    between atoms: C_6  and  C_7
REMARK    6  A    between atoms: N_9  and  N_10
REMARK    7  A    between atoms: N_10  and  C_11
REMARK    8  A    between atoms: N_10  and  C_12
REMARK    9  A    between atoms: C_12  and  C_14
REMARK   10  A    between atoms: C_20  and  C_22
REMARK                            x       y       z     vdW  Elec       q    Type
REMARK                         _______ _______ _______ _____ _____    ______ ____
ROOT
ATOM      1  C   UNL     1       5.978  -0.699  24.615  0.00  0.00    +0.194 C 
ENDROOT
BRANCH   1   4
ATOM      2  N   UNL     1       5.052  -2.944  24.273  0.00  0.00    -0.233 N 
ATOM      3  H   UNL     1       4.853  -2.918  25.273  0.00  0.00    +0.173 HD
ATOM      4  C   UNL     1       5.829  -1.922  23.735  0.00  0.00    +0.238 C 
ATOM      5  O   UNL     1       6.345  -1.947  22.619  0.00  0.00    -0.274 OA
BRANCH   2   7
ATOM      6  C   UNL     1       3.583  -4.710  23.454  0.00  0.00    +0.154 C 
ATOM      7  N   UNL     1       4.953  -4.224  23.641  0.00  0.00    -0.246 N 
BRANCH   7   8
ATOM      8  C   UNL     1       6.088  -5.050  23.519  0.00  0.00    +0.098 C 
ATOM      9  S   UNL     1       6.328  -6.047  22.164  0.00  0.00    -0.033 S 
BRANCH   8  10
ATOM     10  C   UNL     1       7.164  -4.930  24.573  0.00  0.00    +0.005 A 
ATOM     11  C   UNL     1       8.465  -4.554  24.203  0.00  0.00    +0.010 A 
ATOM     12  C   UNL     1       9.494  -4.509  25.148  0.00  0.00    +0.001 A 
ATOM     13  C   UNL     1       9.249  -4.882  26.467  0.00  0.00    +0.000 A 
ATOM     14  C   UNL     1       7.977  -5.304  26.842  0.00  0.00    +0.001 A 
ATOM     15  C   UNL     1       6.939  -5.324  25.903  0.00  0.00    +0.010 A 
ENDBRANCH   8  10
ENDBRANCH   7   8
ENDBRANCH   2   7
ENDBRANCH   1   4
BRANCH   1  16
ATOM     16  C   UNL     1       6.647   0.464  23.948  0.00  0.00    +0.238 C 
ATOM     17  N   UNL     1       7.945   0.208  23.495  0.00  0.00    -0.233 N 
ATOM     18  H   UNL     1       8.493  -0.528  23.944  0.00  0.00    +0.173 HD
ATOM     19  O   UNL     1       6.045   1.520  23.743  0.00  0.00    -0.274 OA
BRANCH  17  20
ATOM     20  N   UNL     1       8.752   1.265  22.954  0.00  0.00    -0.246 N 
ATOM     21  C   UNL     1       8.767   1.286  21.489  0.00  0.00    +0.154 C 
BRANCH  20  22
ATOM     22  C   UNL     1       9.861   1.727  23.694  0.00  0.00    +0.098 C 
ATOM     23  S   UNL     1      10.878   0.674  24.542  0.00  0.00    -0.033 S 
BRANCH  22  24
ATOM     24  C   UNL     1      10.058   3.223  23.735  0.00  0.00    +0.005 A 
ATOM     25  C   UNL     1       8.998   4.112  23.980  0.00  0.00    +0.010 A 
ATOM     26  C   UNL     1       9.219   5.495  23.969  0.00  0.00    +0.001 A 
ATOM     27  C   UNL     1      10.495   6.000  23.713  0.00  0.00    +0.000 A 
ATOM     28  C   UNL     1      11.546   5.128  23.451  0.00  0.00    +0.001 A 
ATOM     29  C   UNL     1      11.330   3.748  23.452  0.00  0.00    +0.010 A 
ENDBRANCH  22  24
ENDBRANCH  20  22
ENDBRANCH  17  20
ENDBRANCH   1  16
TORSDOF 8
ENDMDL
