MODEL 1
REMARK VINA RESULT:      -7.8      0.000      0.000
REMARK  Name = 
REMARK  13 active torsions:
REMARK  status: ('A' for Active; 'I' for Inactive)
REMARK    1  A    between atoms: C_7  and  C_8
REMARK    2  A    between atoms: C_8  and  C_9
REMARK    3  A    between atoms: C_9  and  C_11
REMARK    4  A    between atoms: C_9  and  C_14
REMARK    5  A    between atoms: C_11  and  O_12
REMARK    6  A    between atoms: C_17  and  C_20
REMARK    7  A    between atoms: N_22  and  CA_23
REMARK    8  A    between atoms: CA_23  and  CB_25
REMARK    9  A    between atoms: CA_23  and  C_30
REMARK   10  A    between atoms: CB_25  and  CG_26
REMARK   11  A    between atoms: CG_26  and  CD_27
REMARK   12  A    between atoms: CD_27  and  OE1_28
REMARK   13  A    between atoms: C_30  and  O_31
REMARK                            x       y       z     vdW  Elec       q    Type
REMARK                         _______ _______ _______ _____ _____    ______ ____
ROOT
ATOM      1  C   UNK A   0       8.294  -2.332  23.980  0.00  0.00    +0.132 C 
ENDROOT
BRANCH   1   2
ATOM      2  C   UNK A   0       8.311  -0.814  23.830  0.00  0.00    -0.033 A 
ATOM      3  C   UNK A   0       7.606  -0.216  22.778  0.00  0.00    +0.005 A 
ATOM      4  C   UNK A   0       7.555   1.168  22.636  0.00  0.00    +0.013 A 
ATOM      5  C   UNK A   0       8.214   2.001  23.546  0.00  0.00    +0.037 A 
ATOM      6  C   UNK A   0       8.899   1.416  24.623  0.00  0.00    +0.013 A 
ATOM      7  C   UNK A   0       8.944   0.017  24.769  0.00  0.00    +0.005 A 
BRANCH   5   8
ATOM      8  C   UNK A   0       8.289   3.483  23.329  0.00  0.00    +0.245 C 
ATOM      9  N   GLU A   1       9.443   4.107  23.765  0.00  0.00    -0.298 N 
ATOM     10  H   GLU A   1      10.302   3.573  23.823  0.00  0.00    +0.150 HD
ATOM     11  O   UNK A   0       7.354   4.096  22.836  0.00  0.00    -0.270 OA
BRANCH   9  12
ATOM     12  CA  GLU A   1       9.597   5.571  23.846  0.00  0.00    +0.182 C 
BRANCH  12  13
ATOM     13  C   GLU A   1       8.957   6.033  25.170  0.00  0.00    +0.325 C 
ATOM     14  OXT GLU A   1       9.533   6.116  26.243  0.00  0.00    -0.249 OA
BRANCH  13  15
ATOM     15  O   GLU A   1       7.665   6.427  25.016  0.00  0.00    -0.479 OA
ATOM     16  H   GLU A   1       7.611   7.405  25.020  0.00  0.00    +0.295 HD
ENDBRANCH  13  15
ENDBRANCH  12  13
BRANCH  12  17
ATOM     17  CB  GLU A   1      11.061   6.010  23.763  0.00  0.00    +0.045 C 
BRANCH  17  18
ATOM     18  CG  GLU A   1      11.995   4.840  23.468  0.00  0.00    +0.123 C 
BRANCH  18  19
ATOM     19  CD  GLU A   1      13.202   5.244  22.661  0.00  0.00    +0.305 C 
ATOM     20  OE2 GLU A   1      13.175   5.799  21.576  0.00  0.00    -0.251 OA
BRANCH  19  21
ATOM     21  OE1 GLU A   1      14.358   4.940  23.298  0.00  0.00    -0.481 OA
ATOM     22  HE1 GLU A   1      15.116   4.828  22.692  0.00  0.00    +0.295 HD
ENDBRANCH  19  21
ENDBRANCH  18  19
ENDBRANCH  17  18
ENDBRANCH  12  17
ENDBRANCH   9  12
ENDBRANCH   5   8
ENDBRANCH   1   2
BRANCH   1  23
ATOM     23  C   UNK A   0       9.697  -2.934  23.826  0.00  0.00    +0.313 C 
ATOM     24  O   UNK A   0      10.580  -2.467  23.122  0.00  0.00    -0.250 OA
BRANCH  23  25
ATOM     25  O   UNK A   0       9.917  -4.009  24.618  0.00  0.00    -0.480 OA
ATOM     26  H   UNK A   0       9.482  -3.972  25.490  0.00  0.00    +0.295 HD
ENDBRANCH  23  25
ENDBRANCH   1  23
BRANCH   1  27
ATOM     27  C   UNK A   0       7.340  -2.914  22.916  0.00  0.00    +0.054 C 
BRANCH  27  40
ATOM     28  N   UNK A   0       2.432  -7.705  26.647  0.00  0.00    -0.329 N 
ATOM     29  H   UNK A   0       2.409  -7.751  27.657  0.00  0.00    +0.145 HD
ATOM     30  H   UNK A   0       1.523  -7.505  26.241  0.00  0.00    +0.145 HD
ATOM     31  C   UNK A   0       3.409  -6.948  26.095  0.00  0.00    +0.194 A 
ATOM     32  N   UNK A   0       4.600  -6.917  26.756  0.00  0.00    -0.295 N 
ATOM     33  H   UNK A   0       4.739  -7.489  27.572  0.00  0.00    +0.172 HD
ATOM     34  C   UNK A   0       5.691  -6.207  26.323  0.00  0.00    +0.260 A 
ATOM     35  O   UNK A   0       6.764  -6.229  26.917  0.00  0.00    -0.267 OA
ATOM     36  C   UNK A   0       5.488  -5.422  25.101  0.00  0.00    +0.065 A 
ATOM     37  C   UNK A   0       4.239  -5.507  24.484  0.00  0.00    +0.080 A 
ATOM     38  C   UNK A   0       4.028  -4.770  23.319  0.00  0.00    +0.029 A 
ATOM     39  C   UNK A   0       5.039  -3.952  22.801  0.00  0.00    +0.006 A 
ATOM     40  C   UNK A   0       6.286  -3.859  23.439  0.00  0.00    -0.045 A 
ATOM     41  C   UNK A   0       6.509  -4.610  24.595  0.00  0.00    +0.019 A 
ATOM     42  N   UNK A   0       3.194  -6.288  25.002  0.00  0.00    -0.216 NA
ENDBRANCH  27  40
ENDBRANCH   1  27
TORSDOF 13
ENDMDL
MODEL 2
REMARK VINA RESULT:      -7.7      1.518      2.023
REMARK  Name = 
REMARK  13 active torsions:
REMARK  status: ('A' for Active; 'I' for Inactive)
REMARK    1  A    between atoms: C_7  and  C_8
REMARK    2  A    between atoms: C_8  and  C_9
REMARK    3  A    between atoms: C_9  and  C_11
REMARK    4  A    between atoms: C_9  and  C_14
REMARK    5  A    between atoms: C_11  and  O_12
REMARK    6  A    between atoms: C_17  and  C_20
REMARK    7  A    between atoms: N_22  and  CA_23
REMARK    8  A    between atoms: CA_23  and  CB_25
REMARK    9  A    between atoms: CA_23  and  C_30
REMARK   10  A    between atoms: CB_25  and  CG_26
REMARK   11  A    between atoms: CG_26  and  CD_27
REMARK   12  A    between atoms: CD_27  and  OE1_28
REMARK   13  A    between atoms: C_30  and  O_31
REMARK                            x       y       z     vdW  Elec       q    Type
REMARK                         _______ _______ _______ _____ _____    ______ ____
ROOT
ATOM      1  C   UNK A   0       8.277  -3.839  24.732  0.00  0.00    +0.132 C 
ENDROOT
BRANCH   1   2
ATOM      2  C   UNK A   0       8.720  -2.473  24.217  0.00  0.00    -0.033 A 
ATOM      3  C   UNK A   0       9.214  -1.522  25.118  0.00  0.00    +0.005 A 
ATOM      4  C   UNK A   0       9.676  -0.284  24.680  0.00  0.00    +0.013 A 
ATOM      5  C   UNK A   0       9.657   0.044  23.321  0.00  0.00    +0.037 A 
ATOM      6  C   UNK A   0       9.193  -0.913  22.404  0.00  0.00    +0.013 A 
ATOM      7  C   UNK A   0       8.733  -2.166  22.846  0.00  0.00    +0.005 A 
BRANCH   5   8
ATOM      8  C   UNK A   0      10.016   1.420  22.847  0.00  0.00    +0.245 C 
ATOM      9  N   GLU A   1      10.078   2.404  23.816  0.00  0.00    -0.298 N 
ATOM     10  H   GLU A   1      10.285   2.143  24.773  0.00  0.00    +0.150 HD
ATOM     11  O   UNK A   0      10.194   1.651  21.660  0.00  0.00    -0.270 OA
BRANCH   9  12
ATOM     12  CA  GLU A   1      10.187   3.842  23.511  0.00  0.00    +0.182 C 
BRANCH  12  13
ATOM     13  C   GLU A   1       9.165   4.583  24.397  0.00  0.00    +0.325 C 
ATOM     14  OXT GLU A   1       9.431   5.468  25.195  0.00  0.00    -0.249 OA
BRANCH  13  15
ATOM     15  O   GLU A   1       7.884   4.201  24.147  0.00  0.00    -0.479 OA
ATOM     16  H   GLU A   1       7.416   4.032  24.991  0.00  0.00    +0.295 HD
ENDBRANCH  13  15
ENDBRANCH  12  13
BRANCH  12  17
ATOM     17  CB  GLU A   1      11.601   4.383  23.738  0.00  0.00    +0.045 C 
BRANCH  17  18
ATOM     18  CG  GLU A   1      11.955   5.494  22.754  0.00  0.00    +0.123 C 
BRANCH  18  19
ATOM     19  CD  GLU A   1      13.432   5.570  22.463  0.00  0.00    +0.305 C 
ATOM     20  OE2 GLU A   1      13.943   6.204  21.556  0.00  0.00    -0.251 OA
BRANCH  19  21
ATOM     21  OE1 GLU A   1      14.158   4.858  23.357  0.00  0.00    -0.481 OA
ATOM     22  HE1 GLU A   1      13.633   4.187  23.836  0.00  0.00    +0.295 HD
ENDBRANCH  19  21
ENDBRANCH  18  19
ENDBRANCH  17  18
ENDBRANCH  12  17
ENDBRANCH   9  12
ENDBRANCH   5   8
ENDBRANCH   1   2
BRANCH   1  23
ATOM     23  C   UNK A   0       9.429  -4.592  25.409  0.00  0.00    +0.313 C 
ATOM     24  O   UNK A   0      10.481  -4.892  24.861  0.00  0.00    -0.250 OA
BRANCH  23  25
ATOM     25  O   UNK A   0       9.222  -4.835  26.724  0.00  0.00    -0.480 OA
ATOM     26  H   UNK A   0      10.010  -5.133  27.215  0.00  0.00    +0.295 HD
ENDBRANCH  23  25
ENDBRANCH   1  23
BRANCH   1  27
ATOM     27  C   UNK A   0       7.729  -4.653  23.541  0.00  0.00    +0.054 C 
BRANCH  27  40
ATOM     28  N   UNK A   0       1.103  -8.024  25.927  0.00  0.00    -0.329 N 
ATOM     29  H   UNK A   0       0.732  -7.856  26.853  0.00  0.00    +0.145 HD
ATOM     30  H   UNK A   0       0.434  -7.818  25.191  0.00  0.00    +0.145 HD
ATOM     31  C   UNK A   0       2.324  -7.504  25.658  0.00  0.00    +0.194 A 
ATOM     32  N   UNK A   0       3.208  -7.462  26.694  0.00  0.00    -0.295 N 
ATOM     33  H   UNK A   0       2.961  -7.863  27.583  0.00  0.00    +0.172 HD
ATOM     34  C   UNK A   0       4.486  -6.975  26.583  0.00  0.00    +0.260 A 
ATOM     35  O   UNK A   0       5.274  -6.986  27.523  0.00  0.00    -0.267 OA
ATOM     36  C   UNK A   0       4.845  -6.444  25.264  0.00  0.00    +0.065 A 
ATOM     37  C   UNK A   0       3.884  -6.524  24.256  0.00  0.00    +0.080 A 
ATOM     38  C   UNK A   0       4.210  -6.027  22.994  0.00  0.00    +0.029 A 
ATOM     39  C   UNK A   0       5.461  -5.445  22.760  0.00  0.00    +0.006 A 
ATOM     40  C   UNK A   0       6.415  -5.353  23.785  0.00  0.00    -0.045 A 
ATOM     41  C   UNK A   0       6.101  -5.867  25.045  0.00  0.00    +0.019 A 
ATOM     42  N   UNK A   0       2.607  -7.067  24.473  0.00  0.00    -0.216 NA
ENDBRANCH  27  40
ENDBRANCH   1  27
TORSDOF 13
ENDMDL
MODEL 3
REMARK VINA RESULT:      -7.3      1.312      2.807
REMARK  Name = 
REMARK  13 active torsions:
REMARK  status: ('A' for Active; 'I' for Inactive)
REMARK    1  A    between atoms: C_7  and  C_8
REMARK    2  A    between atoms: C_8  and  C_9
REMARK    3  A    between atoms: C_9  and  C_11
REMARK    4  A    between atoms: C_9  and  C_14
REMARK    5  A    between atoms: C_11  and  O_12
REMARK    6  A    between atoms: C_17  and  C_20
REMARK    7  A    between atoms: N_22  and  CA_23
REMARK    8  A    between atoms: CA_23  and  CB_25
REMARK    9  A    between atoms: CA_23  and  C_30
REMARK   10  A    between atoms: CB_25  and  CG_26
REMARK   11  A    between atoms: CG_26  and  CD_27
REMARK   12  A    between atoms: CD_27  and  OE1_28
REMARK   13  A    between atoms: C_30  and  O_31
REMARK                            x       y       z     vdW  Elec       q    Type
REMARK                         _______ _______ _______ _____ _____    ______ ____
ROOT
ATOM      1  C   UNK A   0       8.405  -2.535  24.254  0.00  0.00    +0.132 C 
ENDROOT
BRANCH   1   2
ATOM      2  C   UNK A   0       8.483  -1.015  24.368  0.00  0.00    -0.033 A 
ATOM      3  C   UNK A   0       9.654  -0.418  24.851  0.00  0.00    +0.005 A 
ATOM      4  C   UNK A   0       9.783   0.966  24.922  0.00  0.00    +0.013 A 
ATOM      5  C   UNK A   0       8.739   1.801  24.512  0.00  0.00    +0.037 A 
ATOM      6  C   UNK A   0       7.571   1.215  23.996  0.00  0.00    +0.013 A 
ATOM      7  C   UNK A   0       7.445  -0.184  23.919  0.00  0.00    +0.005 A 
BRANCH   5   8
ATOM      8  C   UNK A   0       8.803   3.284  24.713  0.00  0.00    +0.245 C 
ATOM      9  N   GLU A   1       9.617   3.986  23.844  0.00  0.00    -0.298 N 
ATOM     10  H   GLU A   1       9.799   3.605  22.922  0.00  0.00    +0.150 HD
ATOM     11  O   UNK A   0       8.201   3.822  25.631  0.00  0.00    -0.270 OA
BRANCH   9  12
ATOM     12  CA  GLU A   1       9.982   5.402  24.031  0.00  0.00    +0.182 C 
BRANCH  12  13
ATOM     13  C   GLU A   1      11.504   5.521  23.816  0.00  0.00    +0.325 C 
ATOM     14  OXT GLU A   1      12.236   6.323  24.374  0.00  0.00    -0.249 OA
BRANCH  13  15
ATOM     15  O   GLU A   1      11.988   4.569  22.975  0.00  0.00    -0.479 OA
ATOM     16  H   GLU A   1      12.766   4.916  22.492  0.00  0.00    +0.295 HD
ENDBRANCH  13  15
ENDBRANCH  12  13
BRANCH  12  17
ATOM     17  CB  GLU A   1       9.221   6.332  23.083  0.00  0.00    +0.045 C 
BRANCH  17  18
ATOM     18  CG  GLU A   1       7.772   6.533  23.516  0.00  0.00    +0.123 C 
BRANCH  18  19
ATOM     19  CD  GLU A   1       6.782   6.004  22.510  0.00  0.00    +0.305 C 
ATOM     20  OE2 GLU A   1       5.680   6.475  22.285  0.00  0.00    -0.251 OA
BRANCH  19  21
ATOM     21  OE1 GLU A   1       7.267   4.931  21.842  0.00  0.00    -0.481 OA
ATOM     22  HE1 GLU A   1       6.867   4.085  22.123  0.00  0.00    +0.295 HD
ENDBRANCH  19  21
ENDBRANCH  18  19
ENDBRANCH  17  18
ENDBRANCH  12  17
ENDBRANCH   9  12
ENDBRANCH   5   8
ENDBRANCH   1   2
BRANCH   1  23
ATOM     23  C   UNK A   0       9.784  -3.156  23.998  0.00  0.00    +0.313 C 
ATOM     24  O   UNK A   0      10.219  -4.146  24.570  0.00  0.00    -0.250 OA
BRANCH  23  25
ATOM     25  O   UNK A   0      10.474  -2.556  23.000  0.00  0.00    -0.480 OA
ATOM     26  H   UNK A   0       9.977  -1.876  22.509  0.00  0.00    +0.295 HD
ENDBRANCH  23  25
ENDBRANCH   1  23
BRANCH   1  27
ATOM     27  C   UNK A   0       7.436  -2.886  23.106  0.00  0.00    +0.054 C 
BRANCH  27  40
ATOM     28  N   UNK A   0       2.633  -8.469  25.700  0.00  0.00    -0.329 N 
ATOM     29  H   UNK A   0       2.293  -8.469  26.652  0.00  0.00    +0.145 HD
ATOM     30  H   UNK A   0       1.886  -8.500  25.013  0.00  0.00    +0.145 HD
ATOM     31  C   UNK A   0       3.566  -7.540  25.387  0.00  0.00    +0.194 A 
ATOM     32  N   UNK A   0       4.447  -7.207  26.372  0.00  0.00    -0.295 N 
ATOM     33  H   UNK A   0       4.423  -7.691  27.254  0.00  0.00    +0.172 HD
ATOM     34  C   UNK A   0       5.456  -6.292  26.212  0.00  0.00    +0.260 A 
ATOM     35  O   UNK A   0       6.259  -6.041  27.105  0.00  0.00    -0.267 OA
ATOM     36  C   UNK A   0       5.510  -5.635  24.902  0.00  0.00    +0.065 A 
ATOM     37  C   UNK A   0       4.572  -6.031  23.947  0.00  0.00    +0.080 A 
ATOM     38  C   UNK A   0       4.610  -5.419  22.694  0.00  0.00    +0.029 A 
ATOM     39  C   UNK A   0       5.552  -4.421  22.417  0.00  0.00    +0.006 A 
ATOM     40  C   UNK A   0       6.479  -4.017  23.390  0.00  0.00    -0.045 A 
ATOM     41  C   UNK A   0       6.458  -4.640  24.640  0.00  0.00    +0.019 A 
ATOM     42  N   UNK A   0       3.592  -7.001  24.210  0.00  0.00    -0.216 NA
ENDBRANCH  27  40
ENDBRANCH   1  27
TORSDOF 13
ENDMDL
MODEL 4
REMARK VINA RESULT:      -7.3      1.803      2.832
REMARK  Name = 
REMARK  13 active torsions:
REMARK  status: ('A' for Active; 'I' for Inactive)
REMARK    1  A    between atoms: C_7  and  C_8
REMARK    2  A    between atoms: C_8  and  C_9
REMARK    3  A    between atoms: C_9  and  C_11
REMARK    4  A    between atoms: C_9  and  C_14
REMARK    5  A    between atoms: C_11  and  O_12
REMARK    6  A    between atoms: C_17  and  C_20
REMARK    7  A    between atoms: N_22  and  CA_23
REMARK    8  A    between atoms: CA_23  and  CB_25
REMARK    9  A    between atoms: CA_23  and  C_30
REMARK   10  A    between atoms: CB_25  and  CG_26
REMARK   11  A    between atoms: CG_26  and  CD_27
REMARK   12  A    between atoms: CD_27  and  OE1_28
REMARK   13  A    between atoms: C_30  and  O_31
REMARK                            x       y       z     vdW  Elec       q    Type
REMARK                         _______ _______ _______ _____ _____    ______ ____
ROOT
ATOM      1  C   UNK A   0       8.092  -3.727  25.274  0.00  0.00    +0.132 C 
ENDROOT
BRANCH   1   2
ATOM      2  C   UNK A   0       8.449  -2.372  24.670  0.00  0.00    -0.033 A 
ATOM      3  C   UNK A   0       8.984  -1.371  25.490  0.00  0.00    +0.005 A 
ATOM      4  C   UNK A   0       9.370  -0.139  24.968  0.00  0.00    +0.013 A 
ATOM      5  C   UNK A   0       9.230   0.131  23.603  0.00  0.00    +0.037 A 
ATOM      6  C   UNK A   0       8.724  -0.876  22.765  0.00  0.00    +0.013 A 
ATOM      7  C   UNK A   0       8.341  -2.122  23.293  0.00  0.00    +0.005 A 
BRANCH   5   8
ATOM      8  C   UNK A   0       9.506   1.496  23.048  0.00  0.00    +0.245 C 
ATOM      9  N   GLU A   1       9.121   2.565  23.834  0.00  0.00    -0.298 N 
ATOM     10  H   GLU A   1       9.062   2.444  24.839  0.00  0.00    +0.150 HD
ATOM     11  O   UNK A   0      10.001   1.637  21.939  0.00  0.00    -0.270 OA
BRANCH   9  12
ATOM     12  CA  GLU A   1       9.100   3.961  23.359  0.00  0.00    +0.182 C 
BRANCH  12  13
ATOM     13  C   GLU A   1       7.632   4.331  23.069  0.00  0.00    +0.325 C 
ATOM     14  OXT GLU A   1       6.758   4.469  23.910  0.00  0.00    -0.249 OA
BRANCH  13  15
ATOM     15  O   GLU A   1       7.405   4.573  21.750  0.00  0.00    -0.479 OA
ATOM     16  H   GLU A   1       7.503   5.530  21.565  0.00  0.00    +0.295 HD
ENDBRANCH  13  15
ENDBRANCH  12  13
BRANCH  12  17
ATOM     17  CB  GLU A   1       9.720   4.931  24.367  0.00  0.00    +0.045 C 
BRANCH  17  18
ATOM     18  CG  GLU A   1      10.666   5.925  23.700  0.00  0.00    +0.123 C 
BRANCH  18  19
ATOM     19  CD  GLU A   1      12.114   5.522  23.813  0.00  0.00    +0.305 C 
ATOM     20  OE2 GLU A   1      12.630   4.570  23.254  0.00  0.00    -0.251 OA
BRANCH  19  21
ATOM     21  OE1 GLU A   1      12.811   6.370  24.607  0.00  0.00    -0.481 OA
ATOM     22  HE1 GLU A   1      12.243   6.966  25.131  0.00  0.00    +0.295 HD
ENDBRANCH  19  21
ENDBRANCH  18  19
ENDBRANCH  17  18
ENDBRANCH  12  17
ENDBRANCH   9  12
ENDBRANCH   5   8
ENDBRANCH   1   2
BRANCH   1  23
ATOM     23  C   UNK A   0       9.345  -4.540  25.625  0.00  0.00    +0.313 C 
ATOM     24  O   UNK A   0      10.231  -4.829  24.834  0.00  0.00    -0.250 OA
BRANCH  23  25
ATOM     25  O   UNK A   0       9.438  -4.853  26.939  0.00  0.00    -0.480 OA
ATOM     26  H   UNK A   0      10.186  -4.437  27.407  0.00  0.00    +0.295 HD
ENDBRANCH  23  25
ENDBRANCH   1  23
BRANCH   1  27
ATOM     27  C   UNK A   0       7.221  -4.496  24.258  0.00  0.00    +0.054 C 
BRANCH  27  40
ATOM     28  N   UNK A   0       0.554  -8.110  26.118  0.00  0.00    -0.329 N 
ATOM     29  H   UNK A   0       0.015  -8.608  25.423  0.00  0.00    +0.145 HD
ATOM     30  H   UNK A   0       0.792  -8.685  26.920  0.00  0.00    +0.145 HD
ATOM     31  C   UNK A   0       1.619  -7.403  25.671  0.00  0.00    +0.194 A 
ATOM     32  N   UNK A   0       1.496  -6.833  24.439  0.00  0.00    -0.295 N 
ATOM     33  H   UNK A   0       0.624  -6.895  23.941  0.00  0.00    +0.172 HD
ATOM     34  C   UNK A   0       2.478  -6.079  23.849  0.00  0.00    +0.260 A 
ATOM     35  O   UNK A   0       2.325  -5.545  22.756  0.00  0.00    -0.267 OA
ATOM     36  C   UNK A   0       3.722  -5.955  24.616  0.00  0.00    +0.065 A 
ATOM     37  C   UNK A   0       3.769  -6.568  25.868  0.00  0.00    +0.080 A 
ATOM     38  C   UNK A   0       4.944  -6.457  26.613  0.00  0.00    +0.029 A 
ATOM     39  C   UNK A   0       6.048  -5.767  26.101  0.00  0.00    +0.006 A 
ATOM     40  C   UNK A   0       5.998  -5.169  24.832  0.00  0.00    -0.045 A 
ATOM     41  C   UNK A   0       4.817  -5.260  24.091  0.00  0.00    +0.019 A 
ATOM     42  N   UNK A   0       2.690  -7.300  26.390  0.00  0.00    -0.216 NA
ENDBRANCH  27  40
ENDBRANCH   1  27
TORSDOF 13
ENDMDL
MODEL 5
REMARK VINA RESULT:      -7.2      3.036      9.085
REMARK  Name = 
REMARK  13 active torsions:
REMARK  status: ('A' for Active; 'I' for Inactive)
REMARK    1  A    between atoms: C_7  and  C_8
REMARK    2  A    between atoms: C_8  and  C_9
REMARK    3  A    between atoms: C_9  and  C_11
REMARK    4  A    between atoms: C_9  and  C_14
REMARK    5  A    between atoms: C_11  and  O_12
REMARK    6  A    between atoms: C_17  and  C_20
REMARK    7  A    between atoms: N_22  and  CA_23
REMARK    8  A    between atoms: CA_23  and  CB_25
REMARK    9  A    between atoms: CA_23  and  C_30
REMARK   10  A    between atoms: CB_25  and  CG_26
REMARK   11  A    between atoms: CG_26  and  CD_27
REMARK   12  A    between atoms: CD_27  and  OE1_28
REMARK   13  A    between atoms: C_30  and  O_31
REMARK                            x       y       z     vdW  Elec       q    Type
REMARK                         _______ _______ _______ _____ _____    ______ ____
ROOT
ATOM      1  C   UNK A   0       9.746   0.888  22.059  0.00  0.00    +0.132 C 
ENDROOT
BRANCH   1   2
ATOM      2  C   UNK A   0       9.405  -0.472  22.659  0.00  0.00    -0.033 A 
ATOM      3  C   UNK A   0       8.477  -1.299  22.013  0.00  0.00    +0.005 A 
ATOM      4  C   UNK A   0       8.177  -2.567  22.501  0.00  0.00    +0.013 A 
ATOM      5  C   UNK A   0       8.799  -3.051  23.657  0.00  0.00    +0.037 A 
ATOM      6  C   UNK A   0       9.754  -2.245  24.296  0.00  0.00    +0.013 A 
ATOM      7  C   UNK A   0      10.061  -0.965  23.798  0.00  0.00    +0.005 A 
BRANCH   5   8
ATOM      8  C   UNK A   0       8.385  -4.352  24.275  0.00  0.00    +0.245 C 
ATOM      9  N   GLU A   1       7.079  -4.433  24.718  0.00  0.00    -0.298 N 
ATOM     10  H   GLU A   1       6.373  -3.847  24.285  0.00  0.00    +0.150 HD
ATOM     11  O   UNK A   0       9.186  -5.266  24.416  0.00  0.00    -0.270 OA
BRANCH   9  12
ATOM     12  CA  GLU A   1       6.565  -5.536  25.550  0.00  0.00    +0.182 C 
BRANCH  12  13
ATOM     13  C   GLU A   1       6.908  -5.209  27.017  0.00  0.00    +0.325 C 
ATOM     14  OXT GLU A   1       6.217  -4.548  27.775  0.00  0.00    -0.249 OA
BRANCH  13  15
ATOM     15  O   GLU A   1       8.057  -5.808  27.430  0.00  0.00    -0.479 OA
ATOM     16  H   GLU A   1       8.831  -5.330  27.067  0.00  0.00    +0.295 HD
ENDBRANCH  13  15
ENDBRANCH  12  13
BRANCH  12  17
ATOM     17  CB  GLU A   1       5.060  -5.749  25.375  0.00  0.00    +0.045 C 
BRANCH  17  18
ATOM     18  CG  GLU A   1       4.726  -6.414  24.042  0.00  0.00    +0.123 C 
BRANCH  18  19
ATOM     19  CD  GLU A   1       4.323  -5.424  22.979  0.00  0.00    +0.305 C 
ATOM     20  OE2 GLU A   1       5.088  -4.817  22.250  0.00  0.00    -0.251 OA
BRANCH  19  21
ATOM     21  OE1 GLU A   1       2.978  -5.294  22.898  0.00  0.00    -0.481 OA
ATOM     22  HE1 GLU A   1       2.692  -4.409  22.597  0.00  0.00    +0.295 HD
ENDBRANCH  19  21
ENDBRANCH  18  19
ENDBRANCH  17  18
ENDBRANCH  12  17
ENDBRANCH   9  12
ENDBRANCH   5   8
ENDBRANCH   1   2
BRANCH   1  23
ATOM     23  C   UNK A   0      10.203   1.884  23.132  0.00  0.00    +0.313 C 
ATOM     24  O   UNK A   0      10.109   1.699  24.338  0.00  0.00    -0.250 OA
BRANCH  23  25
ATOM     25  O   UNK A   0      10.812   2.983  22.630  0.00  0.00    -0.480 OA
ATOM     26  H   UNK A   0      10.546   3.222  21.724  0.00  0.00    +0.295 HD
ENDBRANCH  23  25
ENDBRANCH   1  23
BRANCH   1  27
ATOM     27  C   UNK A   0       8.497   1.423  21.327  0.00  0.00    +0.054 C 
BRANCH  27  40
ATOM     28  N   UNK A   0       3.456   4.304  26.548  0.00  0.00    -0.329 N 
ATOM     29  H   UNK A   0       3.397   3.927  27.484  0.00  0.00    +0.145 HD
ATOM     30  H   UNK A   0       3.622   5.306  26.535  0.00  0.00    +0.145 HD
ATOM     31  C   UNK A   0       4.261   3.649  25.678  0.00  0.00    +0.194 A 
ATOM     32  N   UNK A   0       4.335   2.295  25.821  0.00  0.00    -0.295 N 
ATOM     33  H   UNK A   0       3.759   1.828  26.501  0.00  0.00    +0.172 HD
ATOM     34  C   UNK A   0       5.096   1.487  25.014  0.00  0.00    +0.260 A 
ATOM     35  O   UNK A   0       5.112   0.267  25.140  0.00  0.00    -0.267 OA
ATOM     36  C   UNK A   0       5.886   2.181  23.992  0.00  0.00    +0.065 A 
ATOM     37  C   UNK A   0       5.755   3.568  23.912  0.00  0.00    +0.080 A 
ATOM     38  C   UNK A   0       6.497   4.245  22.943  0.00  0.00    +0.029 A 
ATOM     39  C   UNK A   0       7.363   3.547  22.094  0.00  0.00    +0.006 A 
ATOM     40  C   UNK A   0       7.502   2.154  22.194  0.00  0.00    -0.045 A 
ATOM     41  C   UNK A   0       6.746   1.469  23.150  0.00  0.00    +0.019 A 
ATOM     42  N   UNK A   0       4.924   4.299  24.776  0.00  0.00    -0.216 NA
ENDBRANCH  27  40
ENDBRANCH   1  27
TORSDOF 13
ENDMDL
MODEL 6
REMARK VINA RESULT:      -7.2      2.961     10.732
REMARK  Name = 
REMARK  13 active torsions:
REMARK  status: ('A' for Active; 'I' for Inactive)
REMARK    1  A    between atoms: C_7  and  C_8
REMARK    2  A    between atoms: C_8  and  C_9
REMARK    3  A    between atoms: C_9  and  C_11
REMARK    4  A    between atoms: C_9  and  C_14
REMARK    5  A    between atoms: C_11  and  O_12
REMARK    6  A    between atoms: C_17  and  C_20
REMARK    7  A    between atoms: N_22  and  CA_23
REMARK    8  A    between atoms: CA_23  and  CB_25
REMARK    9  A    between atoms: CA_23  and  C_30
REMARK   10  A    between atoms: CB_25  and  CG_26
REMARK   11  A    between atoms: CG_26  and  CD_27
REMARK   12  A    between atoms: CD_27  and  OE1_28
REMARK   13  A    between atoms: C_30  and  O_31
REMARK                            x       y       z     vdW  Elec       q    Type
REMARK                         _______ _______ _______ _____ _____    ______ ____
ROOT
ATOM      1  C   UNK A   0       8.546  -1.381  23.267  0.00  0.00    +0.132 C 
ENDROOT
BRANCH   1   2
ATOM      2  C   UNK A   0       7.294  -2.244  23.385  0.00  0.00    -0.033 A 
ATOM      3  C   UNK A   0       6.625  -2.325  24.613  0.00  0.00    +0.005 A 
ATOM      4  C   UNK A   0       5.451  -3.061  24.749  0.00  0.00    +0.013 A 
ATOM      5  C   UNK A   0       4.907  -3.742  23.656  0.00  0.00    +0.037 A 
ATOM      6  C   UNK A   0       5.551  -3.644  22.412  0.00  0.00    +0.013 A 
ATOM      7  C   UNK A   0       6.733  -2.895  22.274  0.00  0.00    +0.005 A 
BRANCH   5   8
ATOM      8  C   UNK A   0       3.726  -4.652  23.816  0.00  0.00    +0.245 C 
ATOM      9  N   GLU A   1       3.532  -5.187  25.075  0.00  0.00    -0.298 N 
ATOM     10  H   GLU A   1       3.881  -4.686  25.884  0.00  0.00    +0.150 HD
ATOM     11  O   UNK A   0       3.013  -4.932  22.863  0.00  0.00    -0.270 OA
BRANCH   9  12
ATOM     12  CA  GLU A   1       2.572  -6.269  25.362  0.00  0.00    +0.182 C 
BRANCH  12  13
ATOM     13  C   GLU A   1       3.121  -7.559  24.719  0.00  0.00    +0.325 C 
ATOM     14  OXT GLU A   1       2.457  -8.385  24.115  0.00  0.00    -0.249 OA
BRANCH  13  15
ATOM     15  O   GLU A   1       4.473  -7.660  24.825  0.00  0.00    -0.479 OA
ATOM     16  H   GLU A   1       4.822  -8.228  24.108  0.00  0.00    +0.295 HD
ENDBRANCH  13  15
ENDBRANCH  12  13
BRANCH  12  17
ATOM     17  CB  GLU A   1       2.339  -6.462  26.862  0.00  0.00    +0.045 C 
BRANCH  17  18
ATOM     18  CG  GLU A   1       3.449  -5.833  27.700  0.00  0.00    +0.123 C 
BRANCH  18  19
ATOM     19  CD  GLU A   1       4.491  -6.832  28.136  0.00  0.00    +0.305 C 
ATOM     20  OE2 GLU A   1       5.576  -6.999  27.607  0.00  0.00    -0.251 OA
BRANCH  19  21
ATOM     21  OE1 GLU A   1       4.093  -7.530  29.226  0.00  0.00    -0.481 OA
ATOM     22  HE1 GLU A   1       4.299  -7.083  30.069  0.00  0.00    +0.295 HD
ENDBRANCH  19  21
ENDBRANCH  18  19
ENDBRANCH  17  18
ENDBRANCH  12  17
ENDBRANCH   9  12
ENDBRANCH   5   8
ENDBRANCH   1   2
BRANCH   1  23
ATOM     23  C   UNK A   0       9.826  -2.224  23.347  0.00  0.00    +0.313 C 
ATOM     24  O   UNK A   0       9.981  -3.184  24.088  0.00  0.00    -0.250 OA
BRANCH  23  25
ATOM     25  O   UNK A   0      10.772  -1.862  22.449  0.00  0.00    -0.480 OA
ATOM     26  H   UNK A   0      11.222  -1.020  22.645  0.00  0.00    +0.295 HD
ENDBRANCH  23  25
ENDBRANCH   1  23
BRANCH   1  27
ATOM     27  C   UNK A   0       8.522  -0.332  24.398  0.00  0.00    +0.054 C 
BRANCH  27  40
ATOM     28  N   UNK A   0       7.324   7.041  22.124  0.00  0.00    -0.329 N 
ATOM     29  H   UNK A   0       6.424   7.486  22.238  0.00  0.00    +0.145 HD
ATOM     30  H   UNK A   0       8.081   7.565  22.553  0.00  0.00    +0.145 HD
ATOM     31  C   UNK A   0       7.393   5.722  22.422  0.00  0.00    +0.194 A 
ATOM     32  N   UNK A   0       6.282   4.979  22.152  0.00  0.00    -0.295 N 
ATOM     33  H   UNK A   0       5.493   5.402  21.694  0.00  0.00    +0.172 HD
ATOM     34  C   UNK A   0       6.195   3.630  22.385  0.00  0.00    +0.260 A 
ATOM     35  O   UNK A   0       5.197   2.980  22.095  0.00  0.00    -0.267 OA
ATOM     36  C   UNK A   0       7.377   3.020  23.003  0.00  0.00    +0.065 A 
ATOM     37  C   UNK A   0       8.473   3.848  23.249  0.00  0.00    +0.080 A 
ATOM     38  C   UNK A   0       9.607   3.284  23.833  0.00  0.00    +0.029 A 
ATOM     39  C   UNK A   0       9.629   1.929  24.181  0.00  0.00    +0.006 A 
ATOM     40  C   UNK A   0       8.515   1.107  23.947  0.00  0.00    -0.045 A 
ATOM     41  C   UNK A   0       7.384   1.663  23.344  0.00  0.00    +0.019 A 
ATOM     42  N   UNK A   0       8.464   5.219  22.946  0.00  0.00    -0.216 NA
ENDBRANCH  27  40
ENDBRANCH   1  27
TORSDOF 13
ENDMDL
MODEL 7
REMARK VINA RESULT:      -7.0      2.234      3.981
REMARK  Name = 
REMARK  13 active torsions:
REMARK  status: ('A' for Active; 'I' for Inactive)
REMARK    1  A    between atoms: C_7  and  C_8
REMARK    2  A    between atoms: C_8  and  C_9
REMARK    3  A    between atoms: C_9  and  C_11
REMARK    4  A    between atoms: C_9  and  C_14
REMARK    5  A    between atoms: C_11  and  O_12
REMARK    6  A    between atoms: C_17  and  C_20
REMARK    7  A    between atoms: N_22  and  CA_23
REMARK    8  A    between atoms: CA_23  and  CB_25
REMARK    9  A    between atoms: CA_23  and  C_30
REMARK   10  A    between atoms: CB_25  and  CG_26
REMARK   11  A    between atoms: CG_26  and  CD_27
REMARK   12  A    between atoms: CD_27  and  OE1_28
REMARK   13  A    between atoms: C_30  and  O_31
REMARK                            x       y       z     vdW  Elec       q    Type
REMARK                         _______ _______ _______ _____ _____    ______ ____
ROOT
ATOM      1  C   UNK A   0       6.230  -4.893  23.296  0.00  0.00    +0.132 C 
ENDROOT
BRANCH   1   2
ATOM      2  C   UNK A   0       7.014  -3.621  23.604  0.00  0.00    -0.033 A 
ATOM      3  C   UNK A   0       8.277  -3.716  24.202  0.00  0.00    +0.005 A 
ATOM      4  C   UNK A   0       9.045  -2.582  24.452  0.00  0.00    +0.013 A 
ATOM      5  C   UNK A   0       8.571  -1.311  24.111  0.00  0.00    +0.037 A 
ATOM      6  C   UNK A   0       7.321  -1.205  23.482  0.00  0.00    +0.013 A 
ATOM      7  C   UNK A   0       6.548  -2.352  23.224  0.00  0.00    +0.005 A 
BRANCH   5   8
ATOM      8  C   UNK A   0       9.319  -0.072  24.501  0.00  0.00    +0.245 C 
ATOM      9  N   GLU A   1       8.761   1.129  24.107  0.00  0.00    -0.298 N 
ATOM     10  H   GLU A   1       7.759   1.184  23.959  0.00  0.00    +0.150 HD
ATOM     11  O   UNK A   0      10.387  -0.141  25.093  0.00  0.00    -0.270 OA
BRANCH   9  12
ATOM     12  CA  GLU A   1       9.462   2.423  24.198  0.00  0.00    +0.182 C 
BRANCH  12  13
ATOM     13  C   GLU A   1      10.301   2.587  22.914  0.00  0.00    +0.325 C 
ATOM     14  OXT GLU A   1      10.234   1.869  21.930  0.00  0.00    -0.249 OA
BRANCH  13  15
ATOM     15  O   GLU A   1      11.097   3.689  22.949  0.00  0.00    -0.479 OA
ATOM     16  H   GLU A   1      10.944   4.185  23.780  0.00  0.00    +0.295 HD
ENDBRANCH  13  15
ENDBRANCH  12  13
BRANCH  12  17
ATOM     17  CB  GLU A   1       8.499   3.599  24.377  0.00  0.00    +0.045 C 
BRANCH  17  18
ATOM     18  CG  GLU A   1       7.621   3.813  23.147  0.00  0.00    +0.123 C 
BRANCH  18  19
ATOM     19  CD  GLU A   1       7.611   5.245  22.678  0.00  0.00    +0.305 C 
ATOM     20  OE2 GLU A   1       6.621   5.877  22.350  0.00  0.00    -0.251 OA
BRANCH  19  21
ATOM     21  OE1 GLU A   1       8.853   5.785  22.681  0.00  0.00    -0.481 OA
ATOM     22  HE1 GLU A   1       9.480   5.319  22.093  0.00  0.00    +0.295 HD
ENDBRANCH  19  21
ENDBRANCH  18  19
ENDBRANCH  17  18
ENDBRANCH  12  17
ENDBRANCH   9  12
ENDBRANCH   5   8
ENDBRANCH   1   2
BRANCH   1  23
ATOM     23  C   UNK A   0       6.482  -5.382  21.864  0.00  0.00    +0.313 C 
ATOM     24  O   UNK A   0       5.915  -4.949  20.871  0.00  0.00    -0.250 OA
BRANCH  23  25
ATOM     25  O   UNK A   0       7.470  -6.303  21.770  0.00  0.00    -0.480 OA
ATOM     26  H   UNK A   0       7.304  -7.018  21.128  0.00  0.00    +0.295 HD
ENDBRANCH  23  25
ENDBRANCH   1  23
BRANCH   1  27
ATOM     27  C   UNK A   0       4.730  -4.601  23.508  0.00  0.00    +0.054 C 
BRANCH  27  40
ATOM     28  N   UNK A   0       2.442  -7.825  30.241  0.00  0.00    -0.329 N 
ATOM     29  H   UNK A   0       2.917  -7.620  31.109  0.00  0.00    +0.145 HD
ATOM     30  H   UNK A   0       1.444  -7.642  30.284  0.00  0.00    +0.145 HD
ATOM     31  C   UNK A   0       2.997  -7.326  29.111  0.00  0.00    +0.194 A 
ATOM     32  N   UNK A   0       4.358  -7.252  29.085  0.00  0.00    -0.295 N 
ATOM     33  H   UNK A   0       4.897  -7.617  29.852  0.00  0.00    +0.172 HD
ATOM     34  C   UNK A   0       5.073  -6.780  28.013  0.00  0.00    +0.260 A 
ATOM     35  O   UNK A   0       6.299  -6.762  28.002  0.00  0.00    -0.267 OA
ATOM     36  C   UNK A   0       4.270  -6.303  26.882  0.00  0.00    +0.065 A 
ATOM     37  C   UNK A   0       2.883  -6.413  26.987  0.00  0.00    +0.080 A 
ATOM     38  C   UNK A   0       2.104  -5.966  25.919  0.00  0.00    +0.029 A 
ATOM     39  C   UNK A   0       2.704  -5.404  24.787  0.00  0.00    +0.006 A 
ATOM     40  C   UNK A   0       4.100  -5.281  24.698  0.00  0.00    -0.045 A 
ATOM     41  C   UNK A   0       4.885  -5.744  25.756  0.00  0.00    +0.019 A 
ATOM     42  N   UNK A   0       2.253  -6.936  28.127  0.00  0.00    -0.216 NA
ENDBRANCH  27  40
ENDBRANCH   1  27
TORSDOF 13
ENDMDL
MODEL 8
REMARK VINA RESULT:      -7.0      2.833     11.171
REMARK  Name = 
REMARK  13 active torsions:
REMARK  status: ('A' for Active; 'I' for Inactive)
REMARK    1  A    between atoms: C_7  and  C_8
REMARK    2  A    between atoms: C_8  and  C_9
REMARK    3  A    between atoms: C_9  and  C_11
REMARK    4  A    between atoms: C_9  and  C_14
REMARK    5  A    between atoms: C_11  and  O_12
REMARK    6  A    between atoms: C_17  and  C_20
REMARK    7  A    between atoms: N_22  and  CA_23
REMARK    8  A    between atoms: CA_23  and  CB_25
REMARK    9  A    between atoms: CA_23  and  C_30
REMARK   10  A    between atoms: CB_25  and  CG_26
REMARK   11  A    between atoms: CG_26  and  CD_27
REMARK   12  A    between atoms: CD_27  and  OE1_28
REMARK   13  A    between atoms: C_30  and  O_31
REMARK                            x       y       z     vdW  Elec       q    Type
REMARK                         _______ _______ _______ _____ _____    ______ ____
ROOT
ATOM      1  C   UNK A   0       8.593  -3.525  24.976  0.00  0.00    +0.132 C 
ENDROOT
BRANCH   1   2
ATOM      2  C   UNK A   0       7.201  -4.086  24.702  0.00  0.00    -0.033 A 
ATOM      3  C   UNK A   0       6.909  -4.624  23.442  0.00  0.00    +0.005 A 
ATOM      4  C   UNK A   0       5.667  -5.190  23.169  0.00  0.00    +0.013 A 
ATOM      5  C   UNK A   0       4.673  -5.236  24.151  0.00  0.00    +0.037 A 
ATOM      6  C   UNK A   0       4.964  -4.727  25.428  0.00  0.00    +0.013 A 
ATOM      7  C   UNK A   0       6.221  -4.161  25.705  0.00  0.00    +0.005 A 
BRANCH   5   8
ATOM      8  C   UNK A   0       3.288  -5.711  23.834  0.00  0.00    +0.245 C 
ATOM      9  N   GLU A   1       2.576  -6.265  24.881  0.00  0.00    -0.298 N 
ATOM     10  H   GLU A   1       2.796  -5.987  25.831  0.00  0.00    +0.150 HD
ATOM     11  O   UNK A   0       2.845  -5.647  22.696  0.00  0.00    -0.270 OA
BRANCH   9  12
ATOM     12  CA  GLU A   1       1.302  -6.987  24.709  0.00  0.00    +0.182 C 
BRANCH  12  13
ATOM     13  C   GLU A   1       1.640  -8.433  24.294  0.00  0.00    +0.325 C 
ATOM     14  OXT GLU A   1       1.179  -9.017  23.326  0.00  0.00    -0.249 OA
BRANCH  13  15
ATOM     15  O   GLU A   1       2.590  -8.995  25.088  0.00  0.00    -0.479 OA
ATOM     16  H   GLU A   1       3.444  -8.529  24.967  0.00  0.00    +0.295 HD
ENDBRANCH  13  15
ENDBRANCH  12  13
BRANCH  12  17
ATOM     17  CB  GLU A   1       0.444  -6.969  25.976  0.00  0.00    +0.045 C 
BRANCH  17  18
ATOM     18  CG  GLU A   1       1.127  -6.227  27.122  0.00  0.00    +0.123 C 
BRANCH  18  19
ATOM     19  CD  GLU A   1       1.821  -7.154  28.087  0.00  0.00    +0.305 C 
ATOM     20  OE2 GLU A   1       1.337  -7.600  29.113  0.00  0.00    -0.251 OA
BRANCH  19  21
ATOM     21  OE1 GLU A   1       3.071  -7.469  27.671  0.00  0.00    -0.481 OA
ATOM     22  HE1 GLU A   1       3.525  -8.104  28.258  0.00  0.00    +0.295 HD
ENDBRANCH  19  21
ENDBRANCH  18  19
ENDBRANCH  17  18
ENDBRANCH  12  17
ENDBRANCH   9  12
ENDBRANCH   5   8
ENDBRANCH   1   2
BRANCH   1  23
ATOM     23  C   UNK A   0       9.470  -4.530  25.736  0.00  0.00    +0.313 C 
ATOM     24  O   UNK A   0       9.376  -4.769  26.931  0.00  0.00    -0.250 OA
BRANCH  23  25
ATOM     25  O   UNK A   0      10.327  -5.212  24.942  0.00  0.00    -0.480 OA
ATOM     26  H   UNK A   0      11.039  -4.674  24.548  0.00  0.00    +0.295 HD
ENDBRANCH  23  25
ENDBRANCH   1  23
BRANCH   1  27
ATOM     27  C   UNK A   0       8.441  -2.223  25.789  0.00  0.00    +0.054 C 
BRANCH  27  40
ATOM     28  N   UNK A   0      10.549   4.825  23.173  0.00  0.00    -0.329 N 
ATOM     29  H   UNK A   0      10.544   5.634  23.779  0.00  0.00    +0.145 HD
ATOM     30  H   UNK A   0      11.449   4.672  22.728  0.00  0.00    +0.145 HD
ATOM     31  C   UNK A   0      10.038   3.679  23.681  0.00  0.00    +0.194 A 
ATOM     32  N   UNK A   0       8.994   3.812  24.547  0.00  0.00    -0.295 N 
ATOM     33  H   UNK A   0       8.602   4.721  24.728  0.00  0.00    +0.172 HD
ATOM     34  C   UNK A   0       8.358   2.751  25.140  0.00  0.00    +0.260 A 
ATOM     35  O   UNK A   0       7.395   2.898  25.885  0.00  0.00    -0.267 OA
ATOM     36  C   UNK A   0       8.909   1.429  24.821  0.00  0.00    +0.065 A 
ATOM     37  C   UNK A   0       9.978   1.378  23.927  0.00  0.00    +0.080 A 
ATOM     38  C   UNK A   0      10.512   0.129  23.609  0.00  0.00    +0.029 A 
ATOM     39  C   UNK A   0       9.998  -1.034  24.193  0.00  0.00    +0.006 A 
ATOM     40  C   UNK A   0       8.934  -0.971  25.106  0.00  0.00    -0.045 A 
ATOM     41  C   UNK A   0       8.383   0.275  25.412  0.00  0.00    +0.019 A 
ATOM     42  N   UNK A   0      10.540   2.531  23.356  0.00  0.00    -0.216 NA
ENDBRANCH  27  40
ENDBRANCH   1  27
TORSDOF 13
ENDMDL
MODEL 9
REMARK VINA RESULT:      -7.0      3.014     10.202
REMARK  Name = 
REMARK  13 active torsions:
REMARK  status: ('A' for Active; 'I' for Inactive)
REMARK    1  A    between atoms: C_7  and  C_8
REMARK    2  A    between atoms: C_8  and  C_9
REMARK    3  A    between atoms: C_9  and  C_11
REMARK    4  A    between atoms: C_9  and  C_14
REMARK    5  A    between atoms: C_11  and  O_12
REMARK    6  A    between atoms: C_17  and  C_20
REMARK    7  A    between atoms: N_22  and  CA_23
REMARK    8  A    between atoms: CA_23  and  CB_25
REMARK    9  A    between atoms: CA_23  and  C_30
REMARK   10  A    between atoms: CB_25  and  CG_26
REMARK   11  A    between atoms: CG_26  and  CD_27
REMARK   12  A    between atoms: CD_27  and  OE1_28
REMARK   13  A    between atoms: C_30  and  O_31
REMARK                            x       y       z     vdW  Elec       q    Type
REMARK                         _______ _______ _______ _____ _____    ______ ____
ROOT
ATOM      1  C   UNK A   0       5.671   2.426  25.754  0.00  0.00    +0.132 C 
ENDROOT
BRANCH   1   2
ATOM      2  C   UNK A   0       6.478   1.185  25.387  0.00  0.00    -0.033 A 
ATOM      3  C   UNK A   0       6.231   0.536  24.171  0.00  0.00    +0.005 A 
ATOM      4  C   UNK A   0       6.980  -0.569  23.776  0.00  0.00    +0.013 A 
ATOM      5  C   UNK A   0       8.004  -1.063  24.591  0.00  0.00    +0.037 A 
ATOM      6  C   UNK A   0       8.282  -0.403  25.798  0.00  0.00    +0.013 A 
ATOM      7  C   UNK A   0       7.529   0.718  26.193  0.00  0.00    +0.005 A 
BRANCH   5   8
ATOM      8  C   UNK A   0       8.723  -2.333  24.251  0.00  0.00    +0.245 C 
ATOM      9  N   GLU A   1       7.956  -3.482  24.219  0.00  0.00    -0.298 N 
ATOM     10  H   GLU A   1       6.965  -3.409  24.020  0.00  0.00    +0.150 HD
ATOM     11  O   UNK A   0       9.932  -2.342  24.062  0.00  0.00    -0.270 OA
BRANCH   9  12
ATOM     12  CA  GLU A   1       8.524  -4.840  24.132  0.00  0.00    +0.182 C 
BRANCH  12  13
ATOM     13  C   GLU A   1       8.739  -5.347  25.572  0.00  0.00    +0.325 C 
ATOM     14  OXT GLU A   1       7.855  -5.696  26.338  0.00  0.00    -0.249 OA
BRANCH  13  15
ATOM     15  O   GLU A   1      10.055  -5.443  25.901  0.00  0.00    -0.479 OA
ATOM     16  H   GLU A   1      10.154  -5.469  26.875  0.00  0.00    +0.295 HD
ENDBRANCH  13  15
ENDBRANCH  12  13
BRANCH  12  17
ATOM     17  CB  GLU A   1       7.629  -5.799  23.343  0.00  0.00    +0.045 C 
BRANCH  17  18
ATOM     18  CG  GLU A   1       6.208  -5.264  23.192  0.00  0.00    +0.123 C 
BRANCH  18  19
ATOM     19  CD  GLU A   1       5.810  -5.059  21.753  0.00  0.00    +0.305 C 
ATOM     20  OE2 GLU A   1       5.804  -3.991  21.165  0.00  0.00    -0.251 OA
BRANCH  19  21
ATOM     21  OE1 GLU A   1       5.472  -6.225  21.153  0.00  0.00    -0.481 OA
ATOM     22  HE1 GLU A   1       5.919  -6.363  20.295  0.00  0.00    +0.295 HD
ENDBRANCH  19  21
ENDBRANCH  18  19
ENDBRANCH  17  18
ENDBRANCH  12  17
ENDBRANCH   9  12
ENDBRANCH   5   8
ENDBRANCH   1   2
BRANCH   1  23
ATOM     23  C   UNK A   0       4.182   2.104  25.931  0.00  0.00    +0.313 C 
ATOM     24  O   UNK A   0       3.693   1.600  26.932  0.00  0.00    -0.250 OA
BRANCH  23  25
ATOM     25  O   UNK A   0       3.412   2.509  24.894  0.00  0.00    -0.480 OA
ATOM     26  H   UNK A   0       3.826   3.170  24.309  0.00  0.00    +0.295 HD
ENDBRANCH  23  25
ENDBRANCH   1  23
BRANCH   1  27
ATOM     27  C   UNK A   0       5.865   3.478  24.641  0.00  0.00    +0.054 C 
BRANCH  27  40
ATOM     28  N   UNK A   0      13.121   6.123  23.490  0.00  0.00    -0.329 N 
ATOM     29  H   UNK A   0      13.626   5.917  22.639  0.00  0.00    +0.145 HD
ATOM     30  H   UNK A   0      13.062   7.118  23.682  0.00  0.00    +0.145 HD
ATOM     31  C   UNK A   0      11.926   5.507  23.653  0.00  0.00    +0.194 A 
ATOM     32  N   UNK A   0      11.818   4.247  23.143  0.00  0.00    -0.295 N 
ATOM     33  H   UNK A   0      12.620   3.800  22.732  0.00  0.00    +0.172 HD
ATOM     34  C   UNK A   0      10.680   3.486  23.234  0.00  0.00    +0.260 A 
ATOM     35  O   UNK A   0      10.624   2.340  22.801  0.00  0.00    -0.267 OA
ATOM     36  C   UNK A   0       9.538   4.136  23.885  0.00  0.00    +0.065 A 
ATOM     37  C   UNK A   0       9.730   5.426  24.380  0.00  0.00    +0.080 A 
ATOM     38  C   UNK A   0       8.655   6.058  25.005  0.00  0.00    +0.029 A 
ATOM     39  C   UNK A   0       7.415   5.417  25.110  0.00  0.00    +0.006 A 
ATOM     40  C   UNK A   0       7.227   4.126  24.593  0.00  0.00    -0.045 A 
ATOM     41  C   UNK A   0       8.305   3.481  23.983  0.00  0.00    +0.019 A 
ATOM     42  N   UNK A   0      10.950   6.108  24.254  0.00  0.00    -0.216 NA
ENDBRANCH  27  40
ENDBRANCH   1  27
TORSDOF 13
ENDMDL
