MODEL 1
REMARK VINA RESULT:      -7.0      0.000      0.000
REMARK  Name = 
REMARK  7 active torsions:
REMARK  status: ('A' for Active; 'I' for Inactive)
REMARK    1  A    between atoms: C_2  and  C_3
REMARK    2  A    between atoms: C_2  and  O_4
REMARK    3  A    between atoms: C_2  and  C_5
REMARK    4  A    between atoms: C_5  and  C_6
REMARK    5  A    between atoms: C_6  and  C_8
REMARK    6  A    between atoms: C_6  and  C_14
REMARK    7  A    between atoms: C_15  and  O_16
REMARK                            x       y       z     vdW  Elec       q    Type
REMARK                         _______ _______ _______ _____ _____    ______ ____
ROOT
ATOM      1  C   UNL     1       8.129  -2.549  24.154  0.00  0.00    +0.086 A 
ATOM      2  C   UNL     1       9.615  -2.454  23.995  0.00  0.00    +0.345 A 
ATOM      3  O   UNL     1      10.346  -3.435  24.084  0.00  0.00    -0.245 OA
ATOM      4  O   UNL     1      10.160  -1.196  23.777  0.00  0.00    -0.422 OA
ATOM      5  C   UNL     1       9.369  -0.180  23.226  0.00  0.00    +0.143 A 
ATOM      6  C   UNL     1       7.991  -0.321  23.148  0.00  0.00    +0.059 A 
ATOM      7  C   UNL     1       7.264   0.673  22.481  0.00  0.00    +0.015 A 
ATOM      8  C   UNL     1       7.912   1.787  21.936  0.00  0.00    +0.001 A 
ATOM      9  C   UNL     1       9.293   1.927  22.067  0.00  0.00    +0.004 A 
ATOM     10  C   UNL     1      10.030   0.939  22.716  0.00  0.00    +0.047 A 
ATOM     11  C   UNL     1       7.374  -1.504  23.753  0.00  0.00    +0.138 A 
ENDROOT
BRANCH  11  12
ATOM     12  O   UNL     1       6.000  -1.432  23.845  0.00  0.00    -0.506 OA
ATOM     13  H   UNL     1       5.697  -1.789  24.694  0.00  0.00    +0.292 HD
ENDBRANCH  11  12
BRANCH   1  14
ATOM     14  C   UNL     1       7.633  -3.892  24.714  0.00  0.00    +0.062 C 
BRANCH  14  15
ATOM     15  C   UNL     1       6.843  -4.725  23.674  0.00  0.00    -0.040 A 
ATOM     16  C   UNL     1       7.519  -5.291  22.575  0.00  0.00    +0.004 A 
ATOM     17  C   UNL     1       6.829  -6.006  21.590  0.00  0.00    +0.000 A 
ATOM     18  C   UNL     1       5.457  -6.201  21.699  0.00  0.00    +0.000 A 
ATOM     19  C   UNL     1       4.773  -5.685  22.793  0.00  0.00    +0.000 A 
ATOM     20  C   UNL     1       5.457  -4.956  23.770  0.00  0.00    +0.004 A 
ENDBRANCH  14  15
BRANCH  14  21
ATOM     21  C   UNL     1       6.857  -3.713  26.051  0.00  0.00    +0.044 C 
BRANCH  21  22
ATOM     22  C   UNL     1       7.084  -4.759  27.147  0.00  0.00    +0.112 C 
ATOM     23  C   UNL     1       5.816  -5.579  27.373  0.00  0.00    +0.037 C 
BRANCH  22  24
ATOM     24  O   UNL     1       8.141  -5.633  26.779  0.00  0.00    -0.392 OA
ATOM     25  H   UNL     1       8.450  -6.118  27.562  0.00  0.00    +0.210 HD
ENDBRANCH  22  24
ENDBRANCH  21  22
ENDBRANCH  14  21
ENDBRANCH   1  14
TORSDOF 6
ENDMDL
MODEL 2
REMARK VINA RESULT:      -6.7      4.068      8.920
REMARK  Name = 
REMARK  7 active torsions:
REMARK  status: ('A' for Active; 'I' for Inactive)
REMARK    1  A    between atoms: C_2  and  C_3
REMARK    2  A    between atoms: C_2  and  O_4
REMARK    3  A    between atoms: C_2  and  C_5
REMARK    4  A    between atoms: C_5  and  C_6
REMARK    5  A    between atoms: C_6  and  C_8
REMARK    6  A    between atoms: C_6  and  C_14
REMARK    7  A    between atoms: C_15  and  O_16
REMARK                            x       y       z     vdW  Elec       q    Type
REMARK                         _______ _______ _______ _____ _____    ______ ____
ROOT
ATOM      1  C   UNL     1       9.147   2.925  23.572  0.00  0.00    +0.086 A 
ATOM      2  C   UNL     1       8.671   2.416  24.898  0.00  0.00    +0.345 A 
ATOM      3  O   UNL     1       7.976   3.095  25.647  0.00  0.00    -0.245 OA
ATOM      4  O   UNL     1       9.075   1.145  25.283  0.00  0.00    -0.422 OA
ATOM      5  C   UNL     1       9.451   0.209  24.310  0.00  0.00    +0.143 A 
ATOM      6  C   UNL     1       9.688   0.606  23.002  0.00  0.00    +0.059 A 
ATOM      7  C   UNL     1       9.943  -0.388  22.049  0.00  0.00    +0.015 A 
ATOM      8  C   UNL     1       9.985  -1.737  22.418  0.00  0.00    +0.001 A 
ATOM      9  C   UNL     1       9.787  -2.105  23.748  0.00  0.00    +0.004 A 
ATOM     10  C   UNL     1       9.518  -1.128  24.704  0.00  0.00    +0.047 A 
ATOM     11  C   UNL     1       9.645   2.036  22.687  0.00  0.00    +0.138 A 
ENDROOT
BRANCH  11  12
ATOM     12  O   UNL     1      10.135   2.346  21.436  0.00  0.00    -0.506 OA
ATOM     13  H   UNL     1      11.054   2.650  21.496  0.00  0.00    +0.292 HD
ENDBRANCH  11  12
BRANCH   1  14
ATOM     14  C   UNL     1       8.944   4.433  23.359  0.00  0.00    +0.062 C 
BRANCH  14  15
ATOM     15  C   UNL     1      10.054   5.292  24.015  0.00  0.00    -0.040 A 
ATOM     16  C   UNL     1       9.725   6.173  25.065  0.00  0.00    +0.004 A 
ATOM     17  C   UNL     1      10.691   7.000  25.646  0.00  0.00    +0.000 A 
ATOM     18  C   UNL     1      12.013   6.941  25.216  0.00  0.00    +0.000 A 
ATOM     19  C   UNL     1      12.370   6.055  24.209  0.00  0.00    +0.000 A 
ATOM     20  C   UNL     1      11.403   5.238  23.614  0.00  0.00    +0.004 A 
ENDBRANCH  14  15
BRANCH  14  21
ATOM     21  C   UNL     1       7.514   4.891  23.770  0.00  0.00    +0.044 C 
BRANCH  21  22
ATOM     22  C   UNL     1       6.574   5.362  22.655  0.00  0.00    +0.112 C 
ATOM     23  C   UNL     1       7.218   6.495  21.859  0.00  0.00    +0.037 C 
BRANCH  22  24
ATOM     24  O   UNL     1       6.279   4.288  21.775  0.00  0.00    -0.392 OA
ATOM     25  H   UNL     1       5.317   4.158  21.732  0.00  0.00    +0.210 HD
ENDBRANCH  22  24
ENDBRANCH  21  22
ENDBRANCH  14  21
ENDBRANCH   1  14
TORSDOF 6
ENDMDL
MODEL 3
REMARK VINA RESULT:      -6.5      1.941      2.442
REMARK  Name = 
REMARK  7 active torsions:
REMARK  status: ('A' for Active; 'I' for Inactive)
REMARK    1  A    between atoms: C_2  and  C_3
REMARK    2  A    between atoms: C_2  and  O_4
REMARK    3  A    between atoms: C_2  and  C_5
REMARK    4  A    between atoms: C_5  and  C_6
REMARK    5  A    between atoms: C_6  and  C_8
REMARK    6  A    between atoms: C_6  and  C_14
REMARK    7  A    between atoms: C_15  and  O_16
REMARK                            x       y       z     vdW  Elec       q    Type
REMARK                         _______ _______ _______ _____ _____    ______ ____
ROOT
ATOM      1  C   UNL     1       9.102  -1.212  24.436  0.00  0.00    +0.086 A 
ATOM      2  C   UNL     1      10.158  -1.008  23.394  0.00  0.00    +0.345 A 
ATOM      3  O   UNL     1      10.506  -1.904  22.631  0.00  0.00    -0.245 OA
ATOM      4  O   UNL     1      10.775   0.234  23.336  0.00  0.00    -0.422 OA
ATOM      5  C   UNL     1      10.116   1.363  23.840  0.00  0.00    +0.143 A 
ATOM      6  C   UNL     1       8.988   1.225  24.636  0.00  0.00    +0.059 A 
ATOM      7  C   UNL     1       8.303   2.388  25.012  0.00  0.00    +0.015 A 
ATOM      8  C   UNL     1       8.764   3.648  24.618  0.00  0.00    +0.001 A 
ATOM      9  C   UNL     1       9.926   3.761  23.855  0.00  0.00    +0.004 A 
ATOM     10  C   UNL     1      10.610   2.612  23.462  0.00  0.00    +0.047 A 
ATOM     11  C   UNL     1       8.567  -0.122  25.026  0.00  0.00    +0.138 A 
ENDROOT
BRANCH  11  12
ATOM     12  O   UNL     1       7.600  -0.142  26.009  0.00  0.00    -0.506 OA
ATOM     13  H   UNL     1       7.324  -1.053  26.196  0.00  0.00    +0.292 HD
ENDBRANCH  11  12
BRANCH   1  14
ATOM     14  C   UNL     1       8.704  -2.679  24.660  0.00  0.00    +0.062 C 
BRANCH  14  15
ATOM     15  C   UNL     1       7.409  -3.076  23.910  0.00  0.00    -0.040 A 
ATOM     16  C   UNL     1       6.160  -2.927  24.548  0.00  0.00    +0.004 A 
ATOM     17  C   UNL     1       4.974  -3.323  23.920  0.00  0.00    +0.000 A 
ATOM     18  C   UNL     1       5.005  -3.842  22.630  0.00  0.00    +0.000 A 
ATOM     19  C   UNL     1       6.219  -3.964  21.966  0.00  0.00    +0.000 A 
ATOM     20  C   UNL     1       7.407  -3.585  22.597  0.00  0.00    +0.004 A 
ENDBRANCH  14  15
BRANCH  14  21
ATOM     21  C   UNL     1       8.653  -3.042  26.174  0.00  0.00    +0.044 C 
BRANCH  21  22
ATOM     22  C   UNL     1       9.034  -4.472  26.571  0.00  0.00    +0.112 C 
ATOM     23  C   UNL     1       7.781  -5.302  26.839  0.00  0.00    +0.037 C 
BRANCH  22  24
ATOM     24  O   UNL     1       9.784  -5.087  25.534  0.00  0.00    -0.392 OA
ATOM     25  H   UNL     1       9.509  -6.014  25.441  0.00  0.00    +0.210 HD
ENDBRANCH  22  24
ENDBRANCH  21  22
ENDBRANCH  14  21
ENDBRANCH   1  14
TORSDOF 6
ENDMDL
MODEL 4
REMARK VINA RESULT:      -6.5      1.384      1.992
REMARK  Name = 
REMARK  7 active torsions:
REMARK  status: ('A' for Active; 'I' for Inactive)
REMARK    1  A    between atoms: C_2  and  C_3
REMARK    2  A    between atoms: C_2  and  O_4
REMARK    3  A    between atoms: C_2  and  C_5
REMARK    4  A    between atoms: C_5  and  C_6
REMARK    5  A    between atoms: C_6  and  C_8
REMARK    6  A    between atoms: C_6  and  C_14
REMARK    7  A    between atoms: C_15  and  O_16
REMARK                            x       y       z     vdW  Elec       q    Type
REMARK                         _______ _______ _______ _____ _____    ______ ____
ROOT
ATOM      1  C   UNL     1       7.402  -3.651  24.693  0.00  0.00    +0.086 A 
ATOM      2  C   UNL     1       8.731  -4.213  24.289  0.00  0.00    +0.345 A 
ATOM      3  O   UNL     1       8.981  -5.412  24.356  0.00  0.00    -0.245 OA
ATOM      4  O   UNL     1       9.705  -3.321  23.865  0.00  0.00    -0.422 OA
ATOM      5  C   UNL     1       9.331  -2.073  23.350  0.00  0.00    +0.143 A 
ATOM      6  C   UNL     1       8.034  -1.604  23.508  0.00  0.00    +0.059 A 
ATOM      7  C   UNL     1       7.686  -0.406  22.871  0.00  0.00    +0.015 A 
ATOM      8  C   UNL     1       8.630   0.306  22.123  0.00  0.00    +0.001 A 
ATOM      9  C   UNL     1       9.938  -0.164  22.018  0.00  0.00    +0.004 A 
ATOM     10  C   UNL     1      10.295  -1.361  22.635  0.00  0.00    +0.047 A 
ATOM     11  C   UNL     1       7.100  -2.390  24.316  0.00  0.00    +0.138 A 
ENDROOT
BRANCH  11  12
ATOM     12  O   UNL     1       5.930  -1.727  24.619  0.00  0.00    -0.506 OA
ATOM     13  H   UNL     1       5.912  -1.480  25.557  0.00  0.00    +0.292 HD
ENDBRANCH  11  12
BRANCH   1  14
ATOM     14  C   UNL     1       6.499  -4.635  25.453  0.00  0.00    +0.062 C 
BRANCH  14  15
ATOM     15  C   UNL     1       5.142  -4.878  24.748  0.00  0.00    -0.040 A 
ATOM     16  C   UNL     1       5.095  -5.655  23.573  0.00  0.00    +0.004 A 
ATOM     17  C   UNL     1       3.895  -5.853  22.882  0.00  0.00    +0.000 A 
ATOM     18  C   UNL     1       2.711  -5.309  23.367  0.00  0.00    +0.000 A 
ATOM     19  C   UNL     1       2.724  -4.570  24.543  0.00  0.00    +0.000 A 
ATOM     20  C   UNL     1       3.924  -4.357  25.227  0.00  0.00    +0.004 A 
ENDBRANCH  14  15
BRANCH  14  21
ATOM     21  C   UNL     1       6.333  -4.234  26.948  0.00  0.00    +0.044 C 
BRANCH  21  22
ATOM     22  C   UNL     1       6.608  -5.310  28.004  0.00  0.00    +0.112 C 
ATOM     23  C   UNL     1       5.433  -6.281  28.094  0.00  0.00    +0.037 C 
BRANCH  22  24
ATOM     24  O   UNL     1       7.783  -6.035  27.671  0.00  0.00    -0.392 OA
ATOM     25  H   UNL     1       8.450  -5.908  28.365  0.00  0.00    +0.210 HD
ENDBRANCH  22  24
ENDBRANCH  21  22
ENDBRANCH  14  21
ENDBRANCH   1  14
TORSDOF 6
ENDMDL
MODEL 5
REMARK VINA RESULT:      -6.4      1.849      5.905
REMARK  Name = 
REMARK  7 active torsions:
REMARK  status: ('A' for Active; 'I' for Inactive)
REMARK    1  A    between atoms: C_2  and  C_3
REMARK    2  A    between atoms: C_2  and  O_4
REMARK    3  A    between atoms: C_2  and  C_5
REMARK    4  A    between atoms: C_5  and  C_6
REMARK    5  A    between atoms: C_6  and  C_8
REMARK    6  A    between atoms: C_6  and  C_14
REMARK    7  A    between atoms: C_15  and  O_16
REMARK                            x       y       z     vdW  Elec       q    Type
REMARK                         _______ _______ _______ _____ _____    ______ ____
ROOT
ATOM      1  C   UNL     1       7.403  -4.083  24.441  0.00  0.00    +0.086 A 
ATOM      2  C   UNL     1       8.300  -5.080  25.107  0.00  0.00    +0.345 A 
ATOM      3  O   UNL     1       9.437  -5.308  24.705  0.00  0.00    -0.245 OA
ATOM      4  O   UNL     1       7.791  -5.782  26.191  0.00  0.00    -0.422 OA
ATOM      5  C   UNL     1       6.733  -5.243  26.934  0.00  0.00    +0.143 A 
ATOM      6  C   UNL     1       6.008  -4.163  26.451  0.00  0.00    +0.059 A 
ATOM      7  C   UNL     1       5.041  -3.593  27.289  0.00  0.00    +0.015 A 
ATOM      8  C   UNL     1       4.798  -4.119  28.562  0.00  0.00    +0.001 A 
ATOM      9  C   UNL     1       5.510  -5.233  29.006  0.00  0.00    +0.004 A 
ATOM     10  C   UNL     1       6.484  -5.802  28.189  0.00  0.00    +0.047 A 
ATOM     11  C   UNL     1       6.301  -3.671  25.104  0.00  0.00    +0.138 A 
ENDROOT
BRANCH  11  12
ATOM     12  O   UNL     1       5.372  -2.772  24.623  0.00  0.00    -0.506 OA
ATOM     13  H   UNL     1       4.596  -3.239  24.275  0.00  0.00    +0.292 HD
ENDBRANCH  11  12
BRANCH   1  14
ATOM     14  C   UNL     1       7.901  -3.593  23.073  0.00  0.00    +0.062 C 
BRANCH  14  15
ATOM     15  C   UNL     1       8.757  -2.305  23.166  0.00  0.00    -0.040 A 
ATOM     16  C   UNL     1       9.117  -1.620  21.988  0.00  0.00    +0.004 A 
ATOM     17  C   UNL     1       9.930  -0.483  22.031  0.00  0.00    +0.000 A 
ATOM     18  C   UNL     1      10.373   0.015  23.251  0.00  0.00    +0.000 A 
ATOM     19  C   UNL     1      10.001  -0.620  24.429  0.00  0.00    +0.000 A 
ATOM     20  C   UNL     1       9.202  -1.766  24.389  0.00  0.00    +0.004 A 
ENDBRANCH  14  15
BRANCH  14  21
ATOM     21  C   UNL     1       6.740  -3.465  22.043  0.00  0.00    +0.044 C 
BRANCH  21  22
ATOM     22  C   UNL     1       6.116  -4.762  21.518  0.00  0.00    +0.112 C 
ATOM     23  C   UNL     1       7.093  -5.925  21.673  0.00  0.00    +0.037 C 
BRANCH  22  24
ATOM     24  O   UNL     1       4.926  -5.059  22.233  0.00  0.00    -0.392 OA
ATOM     25  H   UNL     1       5.128  -5.145  23.179  0.00  0.00    +0.210 HD
ENDBRANCH  22  24
ENDBRANCH  21  22
ENDBRANCH  14  21
ENDBRANCH   1  14
TORSDOF 6
ENDMDL
MODEL 6
REMARK VINA RESULT:      -6.3      1.825      3.835
REMARK  Name = 
REMARK  7 active torsions:
REMARK  status: ('A' for Active; 'I' for Inactive)
REMARK    1  A    between atoms: C_2  and  C_3
REMARK    2  A    between atoms: C_2  and  O_4
REMARK    3  A    between atoms: C_2  and  C_5
REMARK    4  A    between atoms: C_5  and  C_6
REMARK    5  A    between atoms: C_6  and  C_8
REMARK    6  A    between atoms: C_6  and  C_14
REMARK    7  A    between atoms: C_15  and  O_16
REMARK                            x       y       z     vdW  Elec       q    Type
REMARK                         _______ _______ _______ _____ _____    ______ ____
ROOT
ATOM      1  C   UNL     1       7.193  -1.632  23.197  0.00  0.00    +0.086 A 
ATOM      2  C   UNL     1       6.303  -0.667  23.917  0.00  0.00    +0.345 A 
ATOM      3  O   UNL     1       5.428  -1.038  24.694  0.00  0.00    -0.245 OA
ATOM      4  O   UNL     1       6.469   0.685  23.650  0.00  0.00    -0.422 OA
ATOM      5  C   UNL     1       7.697   1.154  23.164  0.00  0.00    +0.143 A 
ATOM      6  C   UNL     1       8.652   0.267  22.689  0.00  0.00    +0.059 A 
ATOM      7  C   UNL     1       9.904   0.781  22.327  0.00  0.00    +0.015 A 
ATOM      8  C   UNL     1      10.167   2.152  22.418  0.00  0.00    +0.001 A 
ATOM      9  C   UNL     1       9.174   3.027  22.857  0.00  0.00    +0.004 A 
ATOM     10  C   UNL     1       7.928   2.528  23.233  0.00  0.00    +0.047 A 
ATOM     11  C   UNL     1       8.308  -1.154  22.604  0.00  0.00    +0.138 A 
ENDROOT
BRANCH  11  12
ATOM     12  O   UNL     1       9.218  -1.907  21.894  0.00  0.00    -0.506 OA
ATOM     13  H   UNL     1       9.988  -2.119  22.445  0.00  0.00    +0.292 HD
ENDBRANCH  11  12
BRANCH   1  14
ATOM     14  C   UNL     1       6.744  -3.099  23.284  0.00  0.00    +0.062 C 
BRANCH  14  15
ATOM     15  C   UNL     1       7.407  -3.867  24.453  0.00  0.00    -0.040 A 
ATOM     16  C   UNL     1       6.625  -4.278  25.551  0.00  0.00    +0.004 A 
ATOM     17  C   UNL     1       7.199  -4.929  26.648  0.00  0.00    +0.000 A 
ATOM     18  C   UNL     1       8.561  -5.214  26.657  0.00  0.00    +0.000 A 
ATOM     19  C   UNL     1       9.347  -4.853  25.571  0.00  0.00    +0.000 A 
ATOM     20  C   UNL     1       8.779  -4.188  24.480  0.00  0.00    +0.004 A 
ENDBRANCH  14  15
BRANCH  14  21
ATOM     21  C   UNL     1       6.899  -3.835  21.920  0.00  0.00    +0.044 C 
BRANCH  21  22
ATOM     22  C   UNL     1       5.929  -4.984  21.623  0.00  0.00    +0.112 C 
ATOM     23  C   UNL     1       6.559  -6.323  21.997  0.00  0.00    +0.037 C 
BRANCH  22  24
ATOM     24  O   UNL     1       4.727  -4.815  22.359  0.00  0.00    -0.392 OA
ATOM     25  H   UNL     1       3.970  -5.069  21.807  0.00  0.00    +0.210 HD
ENDBRANCH  22  24
ENDBRANCH  21  22
ENDBRANCH  14  21
ENDBRANCH   1  14
TORSDOF 6
ENDMDL
MODEL 7
REMARK VINA RESULT:      -6.3      0.870      2.099
REMARK  Name = 
REMARK  7 active torsions:
REMARK  status: ('A' for Active; 'I' for Inactive)
REMARK    1  A    between atoms: C_2  and  C_3
REMARK    2  A    between atoms: C_2  and  O_4
REMARK    3  A    between atoms: C_2  and  C_5
REMARK    4  A    between atoms: C_5  and  C_6
REMARK    5  A    between atoms: C_6  and  C_8
REMARK    6  A    between atoms: C_6  and  C_14
REMARK    7  A    between atoms: C_15  and  O_16
REMARK                            x       y       z     vdW  Elec       q    Type
REMARK                         _______ _______ _______ _____ _____    ______ ____
ROOT
ATOM      1  C   UNL     1       8.024  -2.363  23.722  0.00  0.00    +0.086 A 
ATOM      2  C   UNL     1       6.762  -1.569  23.866  0.00  0.00    +0.345 A 
ATOM      3  O   UNL     1       5.837  -1.936  24.584  0.00  0.00    -0.245 OA
ATOM      4  O   UNL     1       6.647  -0.401  23.125  0.00  0.00    -0.422 OA
ATOM      5  C   UNL     1       7.800   0.263  22.687  0.00  0.00    +0.143 A 
ATOM      6  C   UNL     1       9.038  -0.361  22.744  0.00  0.00    +0.059 A 
ATOM      7  C   UNL     1      10.170   0.392  22.405  0.00  0.00    +0.015 A 
ATOM      8  C   UNL     1      10.046   1.724  21.996  0.00  0.00    +0.001 A 
ATOM      9  C   UNL     1       8.785   2.314  21.906  0.00  0.00    +0.004 A 
ATOM     10  C   UNL     1       7.652   1.581  22.252  0.00  0.00    +0.047 A 
ATOM     11  C   UNL     1       9.097  -1.762  23.166  0.00  0.00    +0.138 A 
ENDROOT
BRANCH  11  12
ATOM     12  O   UNL     1      10.321  -2.359  22.950  0.00  0.00    -0.506 OA
ATOM     13  H   UNL     1      10.284  -2.944  22.177  0.00  0.00    +0.292 HD
ENDBRANCH  11  12
BRANCH   1  14
ATOM     14  C   UNL     1       7.951  -3.784  24.301  0.00  0.00    +0.062 C 
BRANCH  14  15
ATOM     15  C   UNL     1       7.034  -4.725  23.481  0.00  0.00    -0.040 A 
ATOM     16  C   UNL     1       7.318  -4.965  22.121  0.00  0.00    +0.004 A 
ATOM     17  C   UNL     1       6.483  -5.768  21.337  0.00  0.00    +0.000 A 
ATOM     18  C   UNL     1       5.367  -6.377  21.902  0.00  0.00    +0.000 A 
ATOM     19  C   UNL     1       5.087  -6.187  23.248  0.00  0.00    +0.000 A 
ATOM     20  C   UNL     1       5.910  -5.371  24.031  0.00  0.00    +0.004 A 
ENDBRANCH  14  15
BRANCH  14  21
ATOM     21  C   UNL     1       7.598  -3.776  25.817  0.00  0.00    +0.044 C 
BRANCH  21  22
ATOM     22  C   UNL     1       8.311  -4.793  26.715  0.00  0.00    +0.112 C 
ATOM     23  C   UNL     1       7.293  -5.649  27.464  0.00  0.00    +0.037 C 
BRANCH  22  24
ATOM     24  O   UNL     1       9.143  -5.638  25.935  0.00  0.00    -0.392 OA
ATOM     25  H   UNL     1       9.778  -5.099  25.436  0.00  0.00    +0.210 HD
ENDBRANCH  22  24
ENDBRANCH  21  22
ENDBRANCH  14  21
ENDBRANCH   1  14
TORSDOF 6
ENDMDL
MODEL 8
REMARK VINA RESULT:      -6.3      1.352      3.352
REMARK  Name = 
REMARK  7 active torsions:
REMARK  status: ('A' for Active; 'I' for Inactive)
REMARK    1  A    between atoms: C_2  and  C_3
REMARK    2  A    between atoms: C_2  and  O_4
REMARK    3  A    between atoms: C_2  and  C_5
REMARK    4  A    between atoms: C_5  and  C_6
REMARK    5  A    between atoms: C_6  and  C_8
REMARK    6  A    between atoms: C_6  and  C_14
REMARK    7  A    between atoms: C_15  and  O_16
REMARK                            x       y       z     vdW  Elec       q    Type
REMARK                         _______ _______ _______ _____ _____    ______ ____
ROOT
ATOM      1  C   UNL     1       7.961  -1.977  23.675  0.00  0.00    +0.086 A 
ATOM      2  C   UNL     1       9.373  -2.271  24.076  0.00  0.00    +0.345 A 
ATOM      3  O   UNL     1       9.818  -3.415  24.110  0.00  0.00    -0.245 OA
ATOM      4  O   UNL     1      10.173  -1.201  24.451  0.00  0.00    -0.422 OA
ATOM      5  C   UNL     1       9.870   0.089  23.996  0.00  0.00    +0.143 A 
ATOM      6  C   UNL     1       8.643   0.360  23.408  0.00  0.00    +0.059 A 
ATOM      7  C   UNL     1       8.441   1.635  22.865  0.00  0.00    +0.015 A 
ATOM      8  C   UNL     1       9.441   2.610  22.942  0.00  0.00    +0.001 A 
ATOM      9  C   UNL     1      10.649   2.326  23.578  0.00  0.00    +0.004 A 
ATOM     10  C   UNL     1      10.869   1.057  24.110  0.00  0.00    +0.047 A 
ATOM     11  C   UNL     1       7.634  -0.702  23.374  0.00  0.00    +0.138 A 
ENDROOT
BRANCH  11  12
ATOM     12  O   UNL     1       6.379  -0.267  23.003  0.00  0.00    -0.506 OA
ATOM     13  H   UNL     1       6.408   0.664  22.730  0.00  0.00    +0.292 HD
ENDBRANCH  11  12
BRANCH   1  14
ATOM     14  C   UNL     1       7.050  -3.212  23.594  0.00  0.00    +0.062 C 
BRANCH  14  15
ATOM     15  C   UNL     1       6.727  -3.816  24.983  0.00  0.00    -0.040 A 
ATOM     16  C   UNL     1       6.086  -3.023  25.957  0.00  0.00    +0.004 A 
ATOM     17  C   UNL     1       5.825  -3.520  27.238  0.00  0.00    +0.000 A 
ATOM     18  C   UNL     1       6.164  -4.828  27.564  0.00  0.00    +0.000 A 
ATOM     19  C   UNL     1       6.762  -5.642  26.611  0.00  0.00    +0.000 A 
ATOM     20  C   UNL     1       7.040  -5.144  25.335  0.00  0.00    +0.004 A 
ENDBRANCH  14  15
BRANCH  14  21
ATOM     21  C   UNL     1       7.597  -4.272  22.594  0.00  0.00    +0.044 C 
BRANCH  21  22
ATOM     22  C   UNL     1       6.657  -4.746  21.481  0.00  0.00    +0.112 C 
ATOM     23  C   UNL     1       5.936  -6.024  21.901  0.00  0.00    +0.037 C 
BRANCH  22  24
ATOM     24  O   UNL     1       5.693  -3.744  21.193  0.00  0.00    -0.392 OA
ATOM     25  H   UNL     1       5.456  -3.277  22.011  0.00  0.00    +0.210 HD
ENDBRANCH  22  24
ENDBRANCH  21  22
ENDBRANCH  14  21
ENDBRANCH   1  14
TORSDOF 6
ENDMDL
MODEL 9
REMARK VINA RESULT:      -6.2      1.649      2.190
REMARK  Name = 
REMARK  7 active torsions:
REMARK  status: ('A' for Active; 'I' for Inactive)
REMARK    1  A    between atoms: C_2  and  C_3
REMARK    2  A    between atoms: C_2  and  O_4
REMARK    3  A    between atoms: C_2  and  C_5
REMARK    4  A    between atoms: C_5  and  C_6
REMARK    5  A    between atoms: C_6  and  C_8
REMARK    6  A    between atoms: C_6  and  C_14
REMARK    7  A    between atoms: C_15  and  O_16
REMARK                            x       y       z     vdW  Elec       q    Type
REMARK                         _______ _______ _______ _____ _____    ______ ____
ROOT
ATOM      1  C   UNL     1       7.356  -1.930  24.705  0.00  0.00    +0.086 A 
ATOM      2  C   UNL     1       8.488  -1.809  25.677  0.00  0.00    +0.345 A 
ATOM      3  O   UNL     1       8.743  -2.687  26.496  0.00  0.00    -0.245 OA
ATOM      4  O   UNL     1       9.235  -0.640  25.655  0.00  0.00    -0.422 OA
ATOM      5  C   UNL     1       9.278   0.137  24.490  0.00  0.00    +0.143 A 
ATOM      6  C   UNL     1       8.381  -0.090  23.457  0.00  0.00    +0.059 A 
ATOM      7  C   UNL     1       8.547   0.636  22.270  0.00  0.00    +0.015 A 
ATOM      8  C   UNL     1       9.571   1.581  22.148  0.00  0.00    +0.001 A 
ATOM      9  C   UNL     1      10.432   1.821  23.218  0.00  0.00    +0.004 A 
ATOM     10  C   UNL     1      10.288   1.097  24.400  0.00  0.00    +0.047 A 
ATOM     11  C   UNL     1       7.322  -1.082  23.655  0.00  0.00    +0.138 A 
ENDROOT
BRANCH  11  12
ATOM     12  O   UNL     1       6.343  -1.055  22.684  0.00  0.00    -0.506 OA
ATOM     13  H   UNL     1       5.596  -1.620  22.938  0.00  0.00    +0.292 HD
ENDBRANCH  11  12
BRANCH   1  14
ATOM     14  C   UNL     1       6.383  -3.082  25.000  0.00  0.00    +0.062 C 
BRANCH  14  15
ATOM     15  C   UNL     1       6.369  -4.161  23.890  0.00  0.00    -0.040 A 
ATOM     16  C   UNL     1       5.138  -4.610  23.369  0.00  0.00    +0.004 A 
ATOM     17  C   UNL     1       5.086  -5.620  22.402  0.00  0.00    +0.000 A 
ATOM     18  C   UNL     1       6.260  -6.179  21.910  0.00  0.00    +0.000 A 
ATOM     19  C   UNL     1       7.487  -5.728  22.380  0.00  0.00    +0.000 A 
ATOM     20  C   UNL     1       7.543  -4.730  23.358  0.00  0.00    +0.004 A 
ENDBRANCH  14  15
BRANCH  14  21
ATOM     21  C   UNL     1       4.956  -2.562  25.346  0.00  0.00    +0.044 C 
BRANCH  21  22
ATOM     22  C   UNL     1       4.544  -2.559  26.822  0.00  0.00    +0.112 C 
ATOM     23  C   UNL     1       5.269  -3.668  27.581  0.00  0.00    +0.037 C 
BRANCH  22  24
ATOM     24  O   UNL     1       4.859  -1.309  27.417  0.00  0.00    -0.392 OA
ATOM     25  H   UNL     1       5.663  -0.949  27.009  0.00  0.00    +0.210 HD
ENDBRANCH  22  24
ENDBRANCH  21  22
ENDBRANCH  14  21
ENDBRANCH   1  14
TORSDOF 6
ENDMDL
