MODEL 1
REMARK VINA RESULT:      -5.1      0.000      0.000
REMARK  Name = 
REMARK  5 active torsions:
REMARK  status: ('A' for Active; 'I' for Inactive)
REMARK    1  A    between atoms: C_1  and  C_2
REMARK    2  A    between atoms: C_5  and  N_7
REMARK    3  A    between atoms: N_7  and  O_8
REMARK    4  A    between atoms: CA_10  and  C_12
REMARK    5  A    between atoms: C_12  and  O_13
REMARK                            x       y       z     vdW  Elec       q    Type
REMARK                         _______ _______ _______ _____ _____    ______ ____
ROOT
ATOM      1  C   UNL     1       8.455   5.080  24.787  0.00  0.00    +0.010 C 
ATOM      2  C   UNL     1       9.579   5.004  23.765  0.00  0.00    +0.017 C 
ATOM      3  CA  UNL     1      10.303   3.660  23.773  0.00  0.00    +0.167 C 
ATOM      4  N   UNL     1      11.726   3.940  23.390  0.00  0.00    -0.287 NA
ATOM      5  H   UNL     1      12.311   3.708  24.196  0.00  0.00    +0.124 HD
ATOM      6  C   UNL     1      11.862   5.390  23.263  0.00  0.00    +0.148 C 
ATOM      7  C   UNL     1      10.702   5.988  24.045  0.00  0.00    +0.042 C 
ENDROOT
BRANCH   3   8
ATOM      8  C   UNL     1       9.701   2.688  22.752  0.00  0.00    +0.322 C 
ATOM      9  OXT UNL     1       8.609   2.153  22.854  0.00  0.00    -0.249 OA
BRANCH   8  10
ATOM     10  O   UNL     1      10.534   2.494  21.695  0.00  0.00    -0.480 OA
ATOM     11  H   UNL     1       9.960   2.567  20.889  0.00  0.00    +0.295 HD
ENDBRANCH   8  10
ENDBRANCH   3   8
BRANCH   6  12
ATOM     12  N   UNL     1      13.137   5.741  23.859  0.00  0.00    -0.187 NA
ATOM     13  H   UNL     1      13.355   6.712  23.622  0.00  0.00    +0.155 HD
BRANCH  12  14
ATOM     14  O   UNL     1      14.158   5.019  23.109  0.00  0.00    -0.314 OA
ATOM     15  H   UNL     1      14.526   5.721  22.537  0.00  0.00    +0.236 HD
ENDBRANCH  12  14
ENDBRANCH   6  12
TORSDOF 4
ENDMDL
MODEL 2
REMARK VINA RESULT:      -4.8      9.633     11.341
REMARK  Name = 
REMARK  5 active torsions:
REMARK  status: ('A' for Active; 'I' for Inactive)
REMARK    1  A    between atoms: C_1  and  C_2
REMARK    2  A    between atoms: C_5  and  N_7
REMARK    3  A    between atoms: N_7  and  O_8
REMARK    4  A    between atoms: CA_10  and  C_12
REMARK    5  A    between atoms: C_12  and  O_13
REMARK                            x       y       z     vdW  Elec       q    Type
REMARK                         _______ _______ _______ _____ _____    ______ ____
ROOT
ATOM      1  C   UNL     1       6.075  -5.440  24.169  0.00  0.00    +0.010 C 
ATOM      2  C   UNL     1       6.618  -5.028  25.529  0.00  0.00    +0.017 C 
ATOM      3  CA  UNL     1       8.031  -5.543  25.789  0.00  0.00    +0.167 C 
ATOM      4  N   UNL     1       8.135  -5.777  27.267  0.00  0.00    -0.287 NA
ATOM      5  H   UNL     1       8.268  -6.782  27.408  0.00  0.00    +0.124 HD
ATOM      6  C   UNL     1       6.816  -5.514  27.840  0.00  0.00    +0.148 C 
ATOM      7  C   UNL     1       5.831  -5.621  26.686  0.00  0.00    +0.042 C 
ENDROOT
BRANCH   3   8
ATOM      8  C   UNL     1       9.091  -4.515  25.378  0.00  0.00    +0.322 C 
ATOM      9  OXT UNL     1       8.930  -3.305  25.377  0.00  0.00    -0.249 OA
BRANCH   8  10
ATOM     10  O   UNL     1      10.257  -5.115  25.021  0.00  0.00    -0.480 OA
ATOM     11  H   UNL     1      10.439  -4.810  24.095  0.00  0.00    +0.295 HD
ENDBRANCH   8  10
ENDBRANCH   3   8
BRANCH   6  12
ATOM     12  N   UNL     1       6.581  -6.545  28.832  0.00  0.00    -0.187 NA
ATOM     13  H   UNL     1       7.419  -7.129  28.905  0.00  0.00    +0.155 HD
BRANCH  12  14
ATOM     14  O   UNL     1       5.625  -7.476  28.245  0.00  0.00    -0.314 OA
ATOM     15  H   UNL     1       5.015  -7.640  28.992  0.00  0.00    +0.236 HD
ENDBRANCH  12  14
ENDBRANCH   6  12
TORSDOF 4
ENDMDL
MODEL 3
REMARK VINA RESULT:      -4.7      9.923     11.205
REMARK  Name = 
REMARK  5 active torsions:
REMARK  status: ('A' for Active; 'I' for Inactive)
REMARK    1  A    between atoms: C_1  and  C_2
REMARK    2  A    between atoms: C_5  and  N_7
REMARK    3  A    between atoms: N_7  and  O_8
REMARK    4  A    between atoms: CA_10  and  C_12
REMARK    5  A    between atoms: C_12  and  O_13
REMARK                            x       y       z     vdW  Elec       q    Type
REMARK                         _______ _______ _______ _____ _____    ______ ____
ROOT
ATOM      1  C   UNL     1       4.992  -3.260  27.498  0.00  0.00    +0.010 C 
ATOM      2  C   UNL     1       5.909  -4.321  26.908  0.00  0.00    +0.017 C 
ATOM      3  CA  UNL     1       6.193  -5.468  27.873  0.00  0.00    +0.167 C 
ATOM      4  N   UNL     1       7.577  -5.955  27.562  0.00  0.00    -0.287 NA
ATOM      5  H   UNL     1       8.159  -5.767  28.381  0.00  0.00    +0.124 HD
ATOM      6  C   UNL     1       8.125  -5.072  26.534  0.00  0.00    +0.148 C 
ATOM      7  C   UNL     1       7.300  -3.795  26.598  0.00  0.00    +0.042 C 
ENDROOT
BRANCH   3   8
ATOM      8  C   UNL     1       5.209  -6.627  27.678  0.00  0.00    +0.322 C 
ATOM      9  OXT UNL     1       4.350  -6.679  26.813  0.00  0.00    -0.249 OA
BRANCH   8  10
ATOM     10  O   UNL     1       5.414  -7.615  28.590  0.00  0.00    -0.480 OA
ATOM     11  H   UNL     1       4.831  -7.389  29.360  0.00  0.00    +0.295 HD
ENDBRANCH   8  10
ENDBRANCH   3   8
BRANCH   6  12
ATOM     12  N   UNL     1       9.509  -4.826  26.892  0.00  0.00    -0.187 NA
ATOM     13  H   UNL     1       9.713  -3.832  26.756  0.00  0.00    +0.155 HD
BRANCH  12  14
ATOM     14  O   UNL     1      10.323  -5.437  25.849  0.00  0.00    -0.314 OA
ATOM     15  H   UNL     1      11.060  -4.801  25.766  0.00  0.00    +0.236 HD
ENDBRANCH  12  14
ENDBRANCH   6  12
TORSDOF 4
ENDMDL
MODEL 4
REMARK VINA RESULT:      -4.7      3.936      4.986
REMARK  Name = 
REMARK  5 active torsions:
REMARK  status: ('A' for Active; 'I' for Inactive)
REMARK    1  A    between atoms: C_1  and  C_2
REMARK    2  A    between atoms: C_5  and  N_7
REMARK    3  A    between atoms: N_7  and  O_8
REMARK    4  A    between atoms: CA_10  and  C_12
REMARK    5  A    between atoms: C_12  and  O_13
REMARK                            x       y       z     vdW  Elec       q    Type
REMARK                         _______ _______ _______ _____ _____    ______ ____
ROOT
ATOM      1  C   UNL     1       8.919  -0.290  25.712  0.00  0.00    +0.010 C 
ATOM      2  C   UNL     1       8.725  -0.184  24.207  0.00  0.00    +0.017 C 
ATOM      3  CA  UNL     1       9.998  -0.477  23.419  0.00  0.00    +0.167 C 
ATOM      4  N   UNL     1       9.935   0.363  22.177  0.00  0.00    -0.287 NA
ATOM      5  H   UNL     1      10.702   1.038  22.225  0.00  0.00    +0.124 HD
ATOM      6  C   UNL     1       8.733   1.190  22.276  0.00  0.00    +0.148 C 
ATOM      7  C   UNL     1       8.369   1.221  23.753  0.00  0.00    +0.042 C 
ENDROOT
BRANCH   3   8
ATOM      8  C   UNL     1      10.085  -1.952  23.011  0.00  0.00    +0.322 C 
ATOM      9  OXT UNL     1      10.239  -2.884  23.783  0.00  0.00    -0.249 OA
BRANCH   8  10
ATOM     10  O   UNL     1       9.955  -2.106  21.666  0.00  0.00    -0.480 OA
ATOM     11  H   UNL     1       9.660  -3.045  21.535  0.00  0.00    +0.295 HD
ENDBRANCH   8  10
ENDBRANCH   3   8
BRANCH   6  12
ATOM     12  N   UNL     1       9.096   2.508  21.793  0.00  0.00    -0.187 NA
ATOM     13  H   UNL     1       8.836   2.580  20.805  0.00  0.00    +0.155 HD
BRANCH  12  14
ATOM     14  O   UNL     1      10.551   2.537  21.717  0.00  0.00    -0.314 OA
ATOM     15  H   UNL     1      10.744   1.742  21.181  0.00  0.00    +0.236 HD
ENDBRANCH  12  14
ENDBRANCH   6  12
TORSDOF 4
ENDMDL
MODEL 5
REMARK VINA RESULT:      -4.7      6.787      8.377
REMARK  Name = 
REMARK  5 active torsions:
REMARK  status: ('A' for Active; 'I' for Inactive)
REMARK    1  A    between atoms: C_1  and  C_2
REMARK    2  A    between atoms: C_5  and  N_7
REMARK    3  A    between atoms: N_7  and  O_8
REMARK    4  A    between atoms: CA_10  and  C_12
REMARK    5  A    between atoms: C_12  and  O_13
REMARK                            x       y       z     vdW  Elec       q    Type
REMARK                         _______ _______ _______ _____ _____    ______ ____
ROOT
ATOM      1  C   UNL     1       6.557  -2.463  23.034  0.00  0.00    +0.010 C 
ATOM      2  C   UNL     1       7.681  -2.560  24.054  0.00  0.00    +0.017 C 
ATOM      3  CA  UNL     1       9.019  -2.951  23.433  0.00  0.00    +0.167 C 
ATOM      4  N   UNL     1       9.759  -3.739  24.473  0.00  0.00    -0.287 NA
ATOM      5  H   UNL     1       9.869  -4.691  24.116  0.00  0.00    +0.124 HD
ATOM      6  C   UNL     1       8.861  -3.895  25.616  0.00  0.00    +0.148 C 
ATOM      7  C   UNL     1       7.457  -3.659  25.080  0.00  0.00    +0.042 C 
ENDROOT
BRANCH   3   8
ATOM      8  C   UNL     1       9.853  -1.719  23.064  0.00  0.00    +0.322 C 
ATOM      9  OXT UNL     1      10.210  -0.855  23.849  0.00  0.00    -0.249 OA
BRANCH   8  10
ATOM     10  O   UNL     1      10.165  -1.705  21.741  0.00  0.00    -0.480 OA
ATOM     11  H   UNL     1      10.858  -2.406  21.625  0.00  0.00    +0.295 HD
ENDBRANCH   8  10
ENDBRANCH   3   8
BRANCH   6  12
ATOM     12  N   UNL     1       9.023  -5.257  26.088  0.00  0.00    -0.187 NA
ATOM     13  H   UNL     1       9.473  -5.235  27.008  0.00  0.00    +0.155 HD
BRANCH  12  14
ATOM     14  O   UNL     1      10.065  -5.860  25.266  0.00  0.00    -0.314 OA
ATOM     15  H   UNL     1       9.686  -5.785  24.368  0.00  0.00    +0.236 HD
ENDBRANCH  12  14
ENDBRANCH   6  12
TORSDOF 4
ENDMDL
MODEL 6
REMARK VINA RESULT:      -4.6      2.439      3.419
REMARK  Name = 
REMARK  5 active torsions:
REMARK  status: ('A' for Active; 'I' for Inactive)
REMARK    1  A    between atoms: C_1  and  C_2
REMARK    2  A    between atoms: C_5  and  N_7
REMARK    3  A    between atoms: N_7  and  O_8
REMARK    4  A    between atoms: CA_10  and  C_12
REMARK    5  A    between atoms: C_12  and  O_13
REMARK                            x       y       z     vdW  Elec       q    Type
REMARK                         _______ _______ _______ _____ _____    ______ ____
ROOT
ATOM      1  C   UNL     1       9.967  -0.033  24.792  0.00  0.00    +0.010 C 
ATOM      2  C   UNL     1       9.374   1.042  23.893  0.00  0.00    +0.017 C 
ATOM      3  CA  UNL     1      10.068   1.134  22.537  0.00  0.00    +0.167 C 
ATOM      4  N   UNL     1       9.990   2.572  22.114  0.00  0.00    -0.287 NA
ATOM      5  H   UNL     1      10.946   2.934  22.082  0.00  0.00    +0.124 HD
ATOM      6  C   UNL     1       9.373   3.312  23.214  0.00  0.00    +0.148 C 
ATOM      7  C   UNL     1       9.547   2.444  24.451  0.00  0.00    +0.042 C 
ENDROOT
BRANCH   3   8
ATOM      8  C   UNL     1       9.366   0.273  21.481  0.00  0.00    +0.322 C 
ATOM      9  OXT UNL     1       9.424  -0.944  21.419  0.00  0.00    -0.249 OA
BRANCH   8  10
ATOM     10  O   UNL     1       8.648   1.034  20.613  0.00  0.00    -0.480 OA
ATOM     11  H   UNL     1       7.724   1.048  20.975  0.00  0.00    +0.295 HD
ENDBRANCH   8  10
ENDBRANCH   3   8
BRANCH   6  12
ATOM     12  N   UNL     1      10.102   4.559  23.336  0.00  0.00    -0.187 NA
ATOM     13  H   UNL     1       9.830   5.177  22.566  0.00  0.00    +0.155 HD
BRANCH  12  14
ATOM     14  O   UNL     1      11.489   4.264  23.000  0.00  0.00    -0.314 OA
ATOM     15  H   UNL     1      11.554   3.313  23.217  0.00  0.00    +0.236 HD
ENDBRANCH  12  14
ENDBRANCH   6  12
TORSDOF 4
ENDMDL
MODEL 7
REMARK VINA RESULT:      -4.5      9.432     10.321
REMARK  Name = 
REMARK  5 active torsions:
REMARK  status: ('A' for Active; 'I' for Inactive)
REMARK    1  A    between atoms: C_1  and  C_2
REMARK    2  A    between atoms: C_5  and  N_7
REMARK    3  A    between atoms: N_7  and  O_8
REMARK    4  A    between atoms: CA_10  and  C_12
REMARK    5  A    between atoms: C_12  and  O_13
REMARK                            x       y       z     vdW  Elec       q    Type
REMARK                         _______ _______ _______ _____ _____    ______ ____
ROOT
ATOM      1  C   UNL     1       5.303  -6.043  25.562  0.00  0.00    +0.010 C 
ATOM      2  C   UNL     1       6.200  -5.092  24.782  0.00  0.00    +0.017 C 
ATOM      3  CA  UNL     1       6.682  -5.677  23.458  0.00  0.00    +0.167 C 
ATOM      4  N   UNL     1       8.041  -5.094  23.204  0.00  0.00    -0.287 NA
ATOM      5  H   UNL     1       8.714  -5.864  23.229  0.00  0.00    +0.124 HD
ATOM      6  C   UNL     1       8.389  -4.286  24.371  0.00  0.00    +0.148 C 
ATOM      7  C   UNL     1       7.501  -4.781  25.502  0.00  0.00    +0.042 C 
ENDROOT
BRANCH   3   8
ATOM      8  C   UNL     1       5.757  -5.291  22.299  0.00  0.00    +0.322 C 
ATOM      9  OXT UNL     1       5.141  -4.241  22.215  0.00  0.00    -0.249 OA
BRANCH   8  10
ATOM     10  O   UNL     1       5.709  -6.265  21.352  0.00  0.00    -0.480 OA
ATOM     11  H   UNL     1       5.333  -5.830  20.543  0.00  0.00    +0.295 HD
ENDBRANCH   8  10
ENDBRANCH   3   8
BRANCH   6  12
ATOM     12  N   UNL     1       9.789  -4.539  24.649  0.00  0.00    -0.187 NA
ATOM     13  H   UNL     1      10.294  -4.614  23.761  0.00  0.00    +0.155 HD
BRANCH  12  14
ATOM     14  O   UNL     1       9.873  -5.906  25.149  0.00  0.00    -0.314 OA
ATOM     15  H   UNL     1       9.129  -6.339  24.686  0.00  0.00    +0.236 HD
ENDBRANCH  12  14
ENDBRANCH   6  12
TORSDOF 4
ENDMDL
MODEL 8
REMARK VINA RESULT:      -4.5      4.158      5.421
REMARK  Name = 
REMARK  5 active torsions:
REMARK  status: ('A' for Active; 'I' for Inactive)
REMARK    1  A    between atoms: C_1  and  C_2
REMARK    2  A    between atoms: C_5  and  N_7
REMARK    3  A    between atoms: N_7  and  O_8
REMARK    4  A    between atoms: CA_10  and  C_12
REMARK    5  A    between atoms: C_12  and  O_13
REMARK                            x       y       z     vdW  Elec       q    Type
REMARK                         _______ _______ _______ _____ _____    ______ ____
ROOT
ATOM      1  C   UNL     1       8.393  -2.216  22.541  0.00  0.00    +0.010 C 
ATOM      2  C   UNL     1       9.365  -1.094  22.874  0.00  0.00    +0.017 C 
ATOM      3  CA  UNL     1       8.806  -0.104  23.892  0.00  0.00    +0.167 C 
ATOM      4  N   UNL     1       9.406   1.231  23.561  0.00  0.00    -0.287 NA
ATOM      5  H   UNL     1       8.642   1.847  23.271  0.00  0.00    +0.124 HD
ATOM      6  C   UNL     1      10.198   1.060  22.344  0.00  0.00    +0.148 C 
ATOM      7  C   UNL     1       9.676  -0.206  21.681  0.00  0.00    +0.042 C 
ENDROOT
BRANCH   3   8
ATOM      8  C   UNL     1       9.203  -0.479  25.324  0.00  0.00    +0.322 C 
ATOM      9  OXT UNL     1       8.708  -1.386  25.972  0.00  0.00    -0.249 OA
BRANCH   8  10
ATOM     10  O   UNL     1      10.197   0.321  25.793  0.00  0.00    -0.480 OA
ATOM     11  H   UNL     1       9.782   0.863  26.513  0.00  0.00    +0.295 HD
ENDBRANCH   8  10
ENDBRANCH   3   8
BRANCH   6  12
ATOM     12  N   UNL     1       9.952   2.228  21.521  0.00  0.00    -0.187 NA
ATOM     13  H   UNL     1      10.227   3.064  22.044  0.00  0.00    +0.155 HD
BRANCH  12  14
ATOM     14  O   UNL     1       8.505   2.389  21.450  0.00  0.00    -0.314 OA
ATOM     15  H   UNL     1       8.266   1.774  20.729  0.00  0.00    +0.236 HD
ENDBRANCH  12  14
ENDBRANCH   6  12
TORSDOF 4
ENDMDL
MODEL 9
REMARK VINA RESULT:      -4.4      2.899      4.593
REMARK  Name = 
REMARK  5 active torsions:
REMARK  status: ('A' for Active; 'I' for Inactive)
REMARK    1  A    between atoms: C_1  and  C_2
REMARK    2  A    between atoms: C_5  and  N_7
REMARK    3  A    between atoms: N_7  and  O_8
REMARK    4  A    between atoms: CA_10  and  C_12
REMARK    5  A    between atoms: C_12  and  O_13
REMARK                            x       y       z     vdW  Elec       q    Type
REMARK                         _______ _______ _______ _____ _____    ______ ____
ROOT
ATOM      1  C   UNL     1       8.161   1.799  25.296  0.00  0.00    +0.010 C 
ATOM      2  C   UNL     1       9.269   1.623  24.269  0.00  0.00    +0.017 C 
ATOM      3  CA  UNL     1       9.216   2.659  23.150  0.00  0.00    +0.167 C 
ATOM      4  N   UNL     1       9.747   1.985  21.919  0.00  0.00    -0.287 NA
ATOM      5  H   UNL     1       8.979   1.932  21.245  0.00  0.00    +0.124 HD
ATOM      6  C   UNL     1      10.003   0.589  22.268  0.00  0.00    +0.148 C 
ATOM      7  C   UNL     1       9.173   0.310  23.512  0.00  0.00    +0.042 C 
ENDROOT
BRANCH   3   8
ATOM      8  C   UNL     1      10.096   3.875  23.462  0.00  0.00    +0.322 C 
ATOM      9  OXT UNL     1       9.765   4.816  24.165  0.00  0.00    -0.249 OA
BRANCH   8  10
ATOM     10  O   UNL     1      11.312   3.778  22.864  0.00  0.00    -0.480 OA
ATOM     11  H   UNL     1      11.125   3.722  21.891  0.00  0.00    +0.295 HD
ENDBRANCH   8  10
ENDBRANCH   3   8
BRANCH   6  12
ATOM     12  N   UNL     1       9.555  -0.209  21.144  0.00  0.00    -0.187 NA
ATOM     13  H   UNL     1       8.546  -0.365  21.231  0.00  0.00    +0.155 HD
BRANCH  12  14
ATOM     14  O   UNL     1      10.079  -1.553  21.353  0.00  0.00    -0.314 OA
ATOM     15  H   UNL     1       9.435  -1.928  21.986  0.00  0.00    +0.236 HD
ENDBRANCH  12  14
ENDBRANCH   6  12
TORSDOF 4
ENDMDL
