MODEL 1
REMARK VINA RESULT:      -4.7      0.000      0.000
REMARK  Name = 
REMARK  14 active torsions:
REMARK  status: ('A' for Active; 'I' for Inactive)
REMARK    1  A    between atoms: N_1  and  CA_2
REMARK    2  A    between atoms: CA_2  and  C_4
REMARK    3  A    between atoms: CA_2  and  C_6
REMARK    4  A    between atoms: C_4  and  O_5
REMARK    5  A    between atoms: C_6  and  O_8
REMARK    6  A    between atoms: C_6  and  C_9
REMARK    7  A    between atoms: C_9  and  O_11
REMARK    8  A    between atoms: C_9  and  C_12
REMARK    9  A    between atoms: C_12  and  O_14
REMARK   10  A    between atoms: C_12  and  C_15
REMARK   11  A    between atoms: C_15  and  O_16
REMARK   12  A    between atoms: O_16  and  P_17
REMARK   13  A    between atoms: P_17  and  O_18
REMARK   14  A    between atoms: P_17  and  O_19
REMARK                            x       y       z     vdW  Elec       q    Type
REMARK                         _______ _______ _______ _____ _____    ______ ____
ROOT
ATOM      1  C   UNL     1       9.461  -1.893  23.485  0.00  0.00    +0.175 C 
ENDROOT
BRANCH   1   2
ATOM      2  O   UNL     1       8.940  -1.519  24.782  0.00  0.00    -0.387 OA
ATOM      3  H   UNL     1       7.992  -1.745  24.782  0.00  0.00    +0.210 HD
ENDBRANCH   1   2
BRANCH   1   4
ATOM      4  C   UNL     1      10.076  -0.642  22.819  0.00  0.00    +0.164 C 
BRANCH   4   5
ATOM      5  O   UNL     1       9.821  -0.743  21.396  0.00  0.00    -0.388 OA
ATOM      6  H   UNL     1      10.668  -0.850  20.933  0.00  0.00    +0.210 HD
ENDBRANCH   4   5
BRANCH   4   7
ATOM      7  CA  UNL     1       9.622   0.751  23.336  0.00  0.00    +0.108 C 
BRANCH   7   8
ATOM      8  N   UNL     1       8.159   0.965  23.279  0.00  0.00    -0.323 NA
ATOM      9  H1  UNL     1       7.908   1.770  23.862  0.00  0.00    +0.119 HD
ATOM     10  H2  UNL     1       7.905   1.235  22.329  0.00  0.00    +0.119 HD
ENDBRANCH   7   8
BRANCH   7  11
ATOM     11  C   UNL     1      10.329   1.917  22.622  0.00  0.00    +0.177 C 
BRANCH  11  12
ATOM     12  O   UNL     1       9.715   2.161  21.357  0.00  0.00    -0.393 OA
ATOM     13  H   UNL     1      10.390   1.911  20.699  0.00  0.00    +0.209 HD
ENDBRANCH  11  12
ENDBRANCH   7  11
ENDBRANCH   4   7
ENDBRANCH   1   4
BRANCH   1  14
ATOM     14  C   UNL     1       8.361  -2.593  22.667  0.00  0.00    +0.172 C 
BRANCH  14  15
ATOM     15  O   UNL     1       7.196  -1.764  22.565  0.00  0.00    -0.387 OA
ATOM     16  H   UNL     1       7.337  -1.044  23.214  0.00  0.00    +0.210 HD
ENDBRANCH  14  15
BRANCH  14  17
ATOM     17  C   UNL     1       7.964  -3.949  23.263  0.00  0.00    +0.206 C 
BRANCH  17  18
ATOM     18  O   UNL     1       8.961  -4.275  24.221  0.00  0.00    -0.284 OA
BRANCH  18  19
ATOM     19  P   UNL     1       8.397  -5.105  25.630  0.00  0.00    +0.472 P 
ATOM     20  O   UNL     1       7.892  -5.849  26.890  0.00  0.00    -0.228 OA
BRANCH  19  21
ATOM     21  O   UNL     1       8.897  -3.797  26.473  0.00  0.00    -0.303 OA
ATOM     22  H   UNL     1       8.496  -2.979  26.127  0.00  0.00    +0.222 HD
ENDBRANCH  19  21
BRANCH  19  23
ATOM     23  O   UNL     1       9.810  -5.922  25.626  0.00  0.00    -0.303 OA
ATOM     24  H   UNL     1      10.432  -5.376  26.137  0.00  0.00    +0.222 HD
ENDBRANCH  19  23
ENDBRANCH  18  19
ENDBRANCH  17  18
ENDBRANCH  14  17
ENDBRANCH   1  14
TORSDOF 14
ENDMDL
MODEL 2
REMARK VINA RESULT:      -4.6      1.598      2.166
REMARK  Name = 
REMARK  14 active torsions:
REMARK  status: ('A' for Active; 'I' for Inactive)
REMARK    1  A    between atoms: N_1  and  CA_2
REMARK    2  A    between atoms: CA_2  and  C_4
REMARK    3  A    between atoms: CA_2  and  C_6
REMARK    4  A    between atoms: C_4  and  O_5
REMARK    5  A    between atoms: C_6  and  O_8
REMARK    6  A    between atoms: C_6  and  C_9
REMARK    7  A    between atoms: C_9  and  O_11
REMARK    8  A    between atoms: C_9  and  C_12
REMARK    9  A    between atoms: C_12  and  O_14
REMARK   10  A    between atoms: C_12  and  C_15
REMARK   11  A    between atoms: C_15  and  O_16
REMARK   12  A    between atoms: O_16  and  P_17
REMARK   13  A    between atoms: P_17  and  O_18
REMARK   14  A    between atoms: P_17  and  O_19
REMARK                            x       y       z     vdW  Elec       q    Type
REMARK                         _______ _______ _______ _____ _____    ______ ____
ROOT
ATOM      1  C   UNL     1       8.855  -0.355  23.653  0.00  0.00    +0.175 C 
ENDROOT
BRANCH   1   2
ATOM      2  O   UNL     1       7.827  -0.122  22.663  0.00  0.00    -0.387 OA
ATOM      3  H   UNL     1       7.020  -0.567  22.983  0.00  0.00    +0.210 HD
ENDBRANCH   1   2
BRANCH   1   4
ATOM      4  C   UNL     1       9.559   0.986  23.960  0.00  0.00    +0.164 C 
BRANCH   4   5
ATOM      5  O   UNL     1      10.979   0.714  24.055  0.00  0.00    -0.388 OA
ATOM      6  H   UNL     1      11.107  -0.121  24.535  0.00  0.00    +0.210 HD
ENDBRANCH   4   5
BRANCH   4   7
ATOM      7  CA  UNL     1       9.317   2.172  22.985  0.00  0.00    +0.108 C 
BRANCH   7   8
ATOM      8  N   UNL     1       9.809   1.929  21.611  0.00  0.00    -0.323 NA
ATOM      9  H1  UNL     1      10.541   2.609  21.385  0.00  0.00    +0.119 HD
ATOM     10  H2  UNL     1      10.272   1.020  21.586  0.00  0.00    +0.119 HD
ENDBRANCH   7   8
BRANCH   7  11
ATOM     11  C   UNL     1       9.896   3.500  23.499  0.00  0.00    +0.177 C 
BRANCH  11  12
ATOM     12  O   UNL     1      11.249   3.645  23.066  0.00  0.00    -0.393 OA
ATOM     13  H   UNL     1      11.227   3.455  22.110  0.00  0.00    +0.209 HD
ENDBRANCH  11  12
ENDBRANCH   7  11
ENDBRANCH   4   7
ENDBRANCH   1   4
BRANCH   1  14
ATOM     14  C   UNL     1       9.784  -1.486  23.180  0.00  0.00    +0.172 C 
BRANCH  14  15
ATOM     15  O   UNL     1      10.161  -1.297  21.809  0.00  0.00    -0.387 OA
ATOM     16  H   UNL     1      11.082  -0.967  21.841  0.00  0.00    +0.210 HD
ENDBRANCH  14  15
BRANCH  14  17
ATOM     17  C   UNL     1       9.147  -2.871  23.341  0.00  0.00    +0.206 C 
BRANCH  17  18
ATOM     18  O   UNL     1       9.921  -3.560  24.313  0.00  0.00    -0.284 OA
BRANCH  18  19
ATOM     19  P   UNL     1       9.060  -4.719  25.265  0.00  0.00    +0.472 P 
ATOM     20  O   UNL     1       8.289  -5.757  26.116  0.00  0.00    -0.228 OA
BRANCH  19  21
ATOM     21  O   UNL     1      10.479  -5.523  25.380  0.00  0.00    -0.303 OA
ATOM     22  H   UNL     1      10.432  -6.227  26.052  0.00  0.00    +0.222 HD
ENDBRANCH  19  21
BRANCH  19  23
ATOM     23  O   UNL     1       8.544  -5.379  23.864  0.00  0.00    -0.303 OA
ATOM     24  H   UNL     1       7.940  -4.725  23.470  0.00  0.00    +0.222 HD
ENDBRANCH  19  23
ENDBRANCH  18  19
ENDBRANCH  17  18
ENDBRANCH  14  17
ENDBRANCH   1  14
TORSDOF 14
ENDMDL
MODEL 3
REMARK VINA RESULT:      -4.6      3.139      4.486
REMARK  Name = 
REMARK  14 active torsions:
REMARK  status: ('A' for Active; 'I' for Inactive)
REMARK    1  A    between atoms: N_1  and  CA_2
REMARK    2  A    between atoms: CA_2  and  C_4
REMARK    3  A    between atoms: CA_2  and  C_6
REMARK    4  A    between atoms: C_4  and  O_5
REMARK    5  A    between atoms: C_6  and  O_8
REMARK    6  A    between atoms: C_6  and  C_9
REMARK    7  A    between atoms: C_9  and  O_11
REMARK    8  A    between atoms: C_9  and  C_12
REMARK    9  A    between atoms: C_12  and  O_14
REMARK   10  A    between atoms: C_12  and  C_15
REMARK   11  A    between atoms: C_15  and  O_16
REMARK   12  A    between atoms: O_16  and  P_17
REMARK   13  A    between atoms: P_17  and  O_18
REMARK   14  A    between atoms: P_17  and  O_19
REMARK                            x       y       z     vdW  Elec       q    Type
REMARK                         _______ _______ _______ _____ _____    ______ ____
ROOT
ATOM      1  C   UNL     1       8.516  -4.820  24.649  0.00  0.00    +0.175 C 
ENDROOT
BRANCH   1   2
ATOM      2  O   UNL     1       9.767  -5.527  24.817  0.00  0.00    -0.387 OA
ATOM      3  H   UNL     1      10.064  -5.361  25.732  0.00  0.00    +0.210 HD
ENDBRANCH   1   2
BRANCH   1   4
ATOM      4  C   UNL     1       8.824  -3.342  24.316  0.00  0.00    +0.164 C 
BRANCH   4   5
ATOM      5  O   UNL     1      10.227  -3.266  23.959  0.00  0.00    -0.388 OA
ATOM      6  H   UNL     1      10.319  -3.444  23.009  0.00  0.00    +0.210 HD
ENDBRANCH   4   5
BRANCH   4   7
ATOM      7  CA  UNL     1       7.966  -2.653  23.219  0.00  0.00    +0.108 C 
BRANCH   7   8
ATOM      8  N   UNL     1       7.493  -3.573  22.161  0.00  0.00    -0.323 NA
ATOM      9  H1  UNL     1       8.247  -4.219  21.907  0.00  0.00    +0.119 HD
ATOM     10  H2  UNL     1       6.756  -4.163  22.546  0.00  0.00    +0.119 HD
ENDBRANCH   7   8
BRANCH   7  11
ATOM     11  C   UNL     1       8.676  -1.456  22.564  0.00  0.00    +0.177 C 
BRANCH  11  12
ATOM     12  O   UNL     1       9.631  -1.916  21.607  0.00  0.00    -0.393 OA
ATOM     13  H   UNL     1      10.112  -1.115  21.329  0.00  0.00    +0.209 HD
ENDBRANCH  11  12
ENDBRANCH   7  11
ENDBRANCH   4   7
ENDBRANCH   1   4
BRANCH   1  14
ATOM     14  C   UNL     1       7.627  -5.037  25.886  0.00  0.00    +0.172 C 
BRANCH  14  15
ATOM     15  O   UNL     1       8.226  -5.980  26.786  0.00  0.00    -0.387 OA
ATOM     16  H   UNL     1       8.562  -6.700  26.214  0.00  0.00    +0.210 HD
ENDBRANCH  14  15
BRANCH  14  17
ATOM     17  C   UNL     1       6.219  -5.519  25.515  0.00  0.00    +0.206 C 
BRANCH  17  18
ATOM     18  O   UNL     1       6.216  -5.705  24.107  0.00  0.00    -0.284 OA
BRANCH  18  19
ATOM     19  P   UNL     1       4.652  -5.785  23.371  0.00  0.00    +0.472 P 
ATOM     20  O   UNL     1       3.254  -5.857  22.711  0.00  0.00    -0.228 OA
BRANCH  19  21
ATOM     21  O   UNL     1       4.601  -7.333  23.895  0.00  0.00    -0.303 OA
ATOM     22  H   UNL     1       3.714  -7.718  23.772  0.00  0.00    +0.222 HD
ENDBRANCH  19  21
BRANCH  19  23
ATOM     23  O   UNL     1       5.414  -6.055  21.952  0.00  0.00    -0.303 OA
ATOM     24  H   UNL     1       5.625  -5.176  21.595  0.00  0.00    +0.222 HD
ENDBRANCH  19  23
ENDBRANCH  18  19
ENDBRANCH  17  18
ENDBRANCH  14  17
ENDBRANCH   1  14
TORSDOF 14
ENDMDL
MODEL 4
REMARK VINA RESULT:      -4.6      2.285      2.885
REMARK  Name = 
REMARK  14 active torsions:
REMARK  status: ('A' for Active; 'I' for Inactive)
REMARK    1  A    between atoms: N_1  and  CA_2
REMARK    2  A    between atoms: CA_2  and  C_4
REMARK    3  A    between atoms: CA_2  and  C_6
REMARK    4  A    between atoms: C_4  and  O_5
REMARK    5  A    between atoms: C_6  and  O_8
REMARK    6  A    between atoms: C_6  and  C_9
REMARK    7  A    between atoms: C_9  and  O_11
REMARK    8  A    between atoms: C_9  and  C_12
REMARK    9  A    between atoms: C_12  and  O_14
REMARK   10  A    between atoms: C_12  and  C_15
REMARK   11  A    between atoms: C_15  and  O_16
REMARK   12  A    between atoms: O_16  and  P_17
REMARK   13  A    between atoms: P_17  and  O_18
REMARK   14  A    between atoms: P_17  and  O_19
REMARK                            x       y       z     vdW  Elec       q    Type
REMARK                         _______ _______ _______ _____ _____    ______ ____
ROOT
ATOM      1  C   UNL     1       9.420  -1.066  24.426  0.00  0.00    +0.175 C 
ENDROOT
BRANCH   1   2
ATOM      2  O   UNL     1       8.035  -1.127  24.839  0.00  0.00    -0.387 OA
ATOM      3  H   UNL     1       7.871  -0.343  25.396  0.00  0.00    +0.210 HD
ENDBRANCH   1   2
BRANCH   1   4
ATOM      4  C   UNL     1       9.583   0.092  23.415  0.00  0.00    +0.164 C 
BRANCH   4   5
ATOM      5  O   UNL     1       8.461   0.025  22.500  0.00  0.00    -0.388 OA
ATOM      6  H   UNL     1       8.796   0.069  21.590  0.00  0.00    +0.210 HD
ENDBRANCH   4   5
BRANCH   4   7
ATOM      7  CA  UNL     1       9.715   1.534  23.980  0.00  0.00    +0.108 C 
BRANCH   7   8
ATOM      8  N   UNL     1       8.854   1.799  25.153  0.00  0.00    -0.323 NA
ATOM      9  H1  UNL     1       9.423   1.785  26.005  0.00  0.00    +0.119 HD
ATOM     10  H2  UNL     1       8.497   2.752  25.088  0.00  0.00    +0.119 HD
ENDBRANCH   7   8
BRANCH   7  11
ATOM     11  C   UNL     1       9.467   2.619  22.918  0.00  0.00    +0.177 C 
BRANCH  11  12
ATOM     12  O   UNL     1      10.078   2.245  21.683  0.00  0.00    -0.393 OA
ATOM     13  H   UNL     1       9.776   2.916  21.042  0.00  0.00    +0.209 HD
ENDBRANCH  11  12
ENDBRANCH   7  11
ENDBRANCH   4   7
ENDBRANCH   1   4
BRANCH   1  14
ATOM     14  C   UNL     1       9.871  -2.446  23.917  0.00  0.00    +0.172 C 
BRANCH  14  15
ATOM     15  O   UNL     1      10.588  -2.323  22.681  0.00  0.00    -0.387 OA
ATOM     16  H   UNL     1      11.516  -2.548  22.900  0.00  0.00    +0.210 HD
ENDBRANCH  14  15
BRANCH  14  17
ATOM     17  C   UNL     1       8.696  -3.410  23.724  0.00  0.00    +0.206 C 
BRANCH  17  18
ATOM     18  O   UNL     1       8.021  -2.992  22.546  0.00  0.00    -0.284 OA
BRANCH  18  19
ATOM     19  P   UNL     1       6.334  -3.369  22.482  0.00  0.00    +0.472 P 
ATOM     20  O   UNL     1       4.824  -3.706  22.425  0.00  0.00    -0.228 OA
BRANCH  19  21
ATOM     21  O   UNL     1       6.076  -1.762  22.642  0.00  0.00    -0.303 OA
ATOM     22  H   UNL     1       6.378  -1.275  21.854  0.00  0.00    +0.222 HD
ENDBRANCH  19  21
BRANCH  19  23
ATOM     23  O   UNL     1       6.429  -3.739  24.069  0.00  0.00    -0.303 OA
ATOM     24  H   UNL     1       5.820  -3.129  24.519  0.00  0.00    +0.222 HD
ENDBRANCH  19  23
ENDBRANCH  18  19
ENDBRANCH  17  18
ENDBRANCH  14  17
ENDBRANCH   1  14
TORSDOF 14
ENDMDL
MODEL 5
REMARK VINA RESULT:      -4.5      1.666      2.179
REMARK  Name = 
REMARK  14 active torsions:
REMARK  status: ('A' for Active; 'I' for Inactive)
REMARK    1  A    between atoms: N_1  and  CA_2
REMARK    2  A    between atoms: CA_2  and  C_4
REMARK    3  A    between atoms: CA_2  and  C_6
REMARK    4  A    between atoms: C_4  and  O_5
REMARK    5  A    between atoms: C_6  and  O_8
REMARK    6  A    between atoms: C_6  and  C_9
REMARK    7  A    between atoms: C_9  and  O_11
REMARK    8  A    between atoms: C_9  and  C_12
REMARK    9  A    between atoms: C_12  and  O_14
REMARK   10  A    between atoms: C_12  and  C_15
REMARK   11  A    between atoms: C_15  and  O_16
REMARK   12  A    between atoms: O_16  and  P_17
REMARK   13  A    between atoms: P_17  and  O_18
REMARK   14  A    between atoms: P_17  and  O_19
REMARK                            x       y       z     vdW  Elec       q    Type
REMARK                         _______ _______ _______ _____ _____    ______ ____
ROOT
ATOM      1  C   UNL     1       8.370  -1.784  23.872  0.00  0.00    +0.175 C 
ENDROOT
BRANCH   1   2
ATOM      2  O   UNL     1       7.739  -2.432  22.743  0.00  0.00    -0.387 OA
ATOM      3  H   UNL     1       8.400  -2.456  22.025  0.00  0.00    +0.210 HD
ENDBRANCH   1   2
BRANCH   1   4
ATOM      4  C   UNL     1       8.584  -0.292  23.528  0.00  0.00    +0.164 C 
BRANCH   4   5
ATOM      5  O   UNL     1       9.849   0.106  24.114  0.00  0.00    -0.388 OA
ATOM      6  H   UNL     1       9.701   0.351  25.042  0.00  0.00    +0.210 HD
ENDBRANCH   4   5
BRANCH   4   7
ATOM      7  CA  UNL     1       8.547   0.119  22.030  0.00  0.00    +0.108 C 
BRANCH   7   8
ATOM      8  N   UNL     1       9.558  -0.565  21.195  0.00  0.00    -0.323 NA
ATOM      9  H1  UNL     1      10.434  -0.652  21.721  0.00  0.00    +0.119 HD
ATOM     10  H2  UNL     1       9.251  -1.524  21.029  0.00  0.00    +0.119 HD
ENDBRANCH   7   8
BRANCH   7  11
ATOM     11  C   UNL     1       8.667   1.639  21.822  0.00  0.00    +0.177 C 
BRANCH  11  12
ATOM     12  O   UNL     1      10.027   1.993  21.569  0.00  0.00    -0.393 OA
ATOM     13  H   UNL     1      10.551   1.373  22.110  0.00  0.00    +0.209 HD
ENDBRANCH  11  12
ENDBRANCH   7  11
ENDBRANCH   4   7
ENDBRANCH   1   4
BRANCH   1  14
ATOM     14  C   UNL     1       9.644  -2.552  24.266  0.00  0.00    +0.172 C 
BRANCH  14  15
ATOM     15  O   UNL     1      10.576  -2.586  23.177  0.00  0.00    -0.387 OA
ATOM     16  H   UNL     1      10.099  -2.188  22.420  0.00  0.00    +0.210 HD
ENDBRANCH  14  15
BRANCH  14  17
ATOM     17  C   UNL     1       9.344  -3.986  24.718  0.00  0.00    +0.206 C 
BRANCH  17  18
ATOM     18  O   UNL     1       8.000  -3.990  25.177  0.00  0.00    -0.284 OA
BRANCH  18  19
ATOM     19  P   UNL     1       7.696  -4.954  26.581  0.00  0.00    +0.472 P 
ATOM     20  O   UNL     1       7.422  -5.816  27.837  0.00  0.00    -0.228 OA
BRANCH  19  21
ATOM     21  O   UNL     1       8.845  -5.965  26.007  0.00  0.00    -0.303 OA
ATOM     22  H   UNL     1       9.179  -6.554  26.708  0.00  0.00    +0.222 HD
ENDBRANCH  19  21
BRANCH  19  23
ATOM     23  O   UNL     1       6.421  -5.587  25.782  0.00  0.00    -0.303 OA
ATOM     24  H   UNL     1       6.772  -5.897  24.929  0.00  0.00    +0.222 HD
ENDBRANCH  19  23
ENDBRANCH  18  19
ENDBRANCH  17  18
ENDBRANCH  14  17
ENDBRANCH   1  14
TORSDOF 14
ENDMDL
MODEL 6
REMARK VINA RESULT:      -4.5      2.973      6.044
REMARK  Name = 
REMARK  14 active torsions:
REMARK  status: ('A' for Active; 'I' for Inactive)
REMARK    1  A    between atoms: N_1  and  CA_2
REMARK    2  A    between atoms: CA_2  and  C_4
REMARK    3  A    between atoms: CA_2  and  C_6
REMARK    4  A    between atoms: C_4  and  O_5
REMARK    5  A    between atoms: C_6  and  O_8
REMARK    6  A    between atoms: C_6  and  C_9
REMARK    7  A    between atoms: C_9  and  O_11
REMARK    8  A    between atoms: C_9  and  C_12
REMARK    9  A    between atoms: C_12  and  O_14
REMARK   10  A    between atoms: C_12  and  C_15
REMARK   11  A    between atoms: C_15  and  O_16
REMARK   12  A    between atoms: O_16  and  P_17
REMARK   13  A    between atoms: P_17  and  O_18
REMARK   14  A    between atoms: P_17  and  O_19
REMARK                            x       y       z     vdW  Elec       q    Type
REMARK                         _______ _______ _______ _____ _____    ______ ____
ROOT
ATOM      1  C   UNL     1       8.684  -1.469  23.614  0.00  0.00    +0.175 C 
ENDROOT
BRANCH   1   2
ATOM      2  O   UNL     1       9.821  -1.299  24.492  0.00  0.00    -0.387 OA
ATOM      3  H   UNL     1       9.466  -1.171  25.392  0.00  0.00    +0.210 HD
ENDBRANCH   1   2
BRANCH   1   4
ATOM      4  C   UNL     1       8.028  -2.836  23.914  0.00  0.00    +0.164 C 
BRANCH   4   5
ATOM      5  O   UNL     1       7.970  -3.569  22.665  0.00  0.00    -0.388 OA
ATOM      6  H   UNL     1       8.853  -3.570  22.262  0.00  0.00    +0.210 HD
ENDBRANCH   4   5
BRANCH   4   7
ATOM      7  CA  UNL     1       8.674  -3.724  25.014  0.00  0.00    +0.108 C 
BRANCH   7   8
ATOM      8  N   UNL     1       9.949  -4.351  24.606  0.00  0.00    -0.323 NA
ATOM      9  H1  UNL     1      10.310  -4.925  25.375  0.00  0.00    +0.119 HD
ATOM     10  H2  UNL     1       9.763  -5.009  23.849  0.00  0.00    +0.119 HD
ENDBRANCH   7   8
BRANCH   7  11
ATOM     11  C   UNL     1       7.724  -4.813  25.542  0.00  0.00    +0.177 C 
BRANCH  11  12
ATOM     12  O   UNL     1       8.455  -5.774  26.304  0.00  0.00    -0.393 OA
ATOM     13  H   UNL     1       8.710  -6.461  25.661  0.00  0.00    +0.209 HD
ENDBRANCH  11  12
ENDBRANCH   7  11
ENDBRANCH   4   7
ENDBRANCH   1   4
BRANCH   1  14
ATOM     14  C   UNL     1       9.120  -1.262  22.153  0.00  0.00    +0.172 C 
BRANCH  14  15
ATOM     15  O   UNL     1      10.425  -1.811  21.928  0.00  0.00    -0.387 OA
ATOM     16  H   UNL     1      10.270  -2.750  21.694  0.00  0.00    +0.210 HD
ENDBRANCH  14  15
BRANCH  14  17
ATOM     17  C   UNL     1       9.118   0.217  21.748  0.00  0.00    +0.206 C 
BRANCH  17  18
ATOM     18  O   UNL     1       8.782   0.953  22.915  0.00  0.00    -0.284 OA
BRANCH  18  19
ATOM     19  P   UNL     1       9.755   2.352  23.218  0.00  0.00    +0.472 P 
ATOM     20  O   UNL     1      10.625   3.602  23.490  0.00  0.00    -0.228 OA
BRANCH  19  21
ATOM     21  O   UNL     1      10.262   2.205  21.671  0.00  0.00    -0.303 OA
ATOM     22  H   UNL     1       9.613   1.718  21.131  0.00  0.00    +0.222 HD
ENDBRANCH  19  21
BRANCH  19  23
ATOM     23  O   UNL     1      10.848   1.353  23.906  0.00  0.00    -0.303 OA
ATOM     24  H   UNL     1      11.704   1.809  23.834  0.00  0.00    +0.222 HD
ENDBRANCH  19  23
ENDBRANCH  18  19
ENDBRANCH  17  18
ENDBRANCH  14  17
ENDBRANCH   1  14
TORSDOF 14
ENDMDL
MODEL 7
REMARK VINA RESULT:      -4.4      2.475      3.658
REMARK  Name = 
REMARK  14 active torsions:
REMARK  status: ('A' for Active; 'I' for Inactive)
REMARK    1  A    between atoms: N_1  and  CA_2
REMARK    2  A    between atoms: CA_2  and  C_4
REMARK    3  A    between atoms: CA_2  and  C_6
REMARK    4  A    between atoms: C_4  and  O_5
REMARK    5  A    between atoms: C_6  and  O_8
REMARK    6  A    between atoms: C_6  and  C_9
REMARK    7  A    between atoms: C_9  and  O_11
REMARK    8  A    between atoms: C_9  and  C_12
REMARK    9  A    between atoms: C_12  and  O_14
REMARK   10  A    between atoms: C_12  and  C_15
REMARK   11  A    between atoms: C_15  and  O_16
REMARK   12  A    between atoms: O_16  and  P_17
REMARK   13  A    between atoms: P_17  and  O_18
REMARK   14  A    between atoms: P_17  and  O_19
REMARK                            x       y       z     vdW  Elec       q    Type
REMARK                         _______ _______ _______ _____ _____    ______ ____
ROOT
ATOM      1  C   UNL     1       9.698   1.456  23.336  0.00  0.00    +0.175 C 
ENDROOT
BRANCH   1   2
ATOM      2  O   UNL     1       8.325   1.273  23.753  0.00  0.00    -0.387 OA
ATOM      3  H   UNL     1       7.874   0.792  23.034  0.00  0.00    +0.210 HD
ENDBRANCH   1   2
BRANCH   1   4
ATOM      4  C   UNL     1      10.100   2.927  23.590  0.00  0.00    +0.164 C 
BRANCH   4   5
ATOM      5  O   UNL     1      10.993   3.320  22.518  0.00  0.00    -0.388 OA
ATOM      6  H   UNL     1      11.395   4.175  22.742  0.00  0.00    +0.210 HD
ENDBRANCH   4   5
BRANCH   4   7
ATOM      7  CA  UNL     1       8.961   3.975  23.734  0.00  0.00    +0.108 C 
BRANCH   7   8
ATOM      8  N   UNL     1       8.124   4.120  22.523  0.00  0.00    -0.323 NA
ATOM      9  H1  UNL     1       8.725   4.160  21.694  0.00  0.00    +0.119 HD
ATOM     10  H2  UNL     1       7.567   3.274  22.407  0.00  0.00    +0.119 HD
ENDBRANCH   7   8
BRANCH   7  11
ATOM     11  C   UNL     1       9.472   5.361  24.162  0.00  0.00    +0.177 C 
BRANCH  11  12
ATOM     12  O   UNL     1       9.992   6.063  23.032  0.00  0.00    -0.393 OA
ATOM     13  H   UNL     1      10.490   5.391  22.530  0.00  0.00    +0.209 HD
ENDBRANCH  11  12
ENDBRANCH   7  11
ENDBRANCH   4   7
ENDBRANCH   1   4
BRANCH   1  14
ATOM     14  C   UNL     1       9.869   0.975  21.885  0.00  0.00    +0.172 C 
BRANCH  14  15
ATOM     15  O   UNL     1       8.925   1.620  21.019  0.00  0.00    -0.387 OA
ATOM     16  H   UNL     1       9.245   2.542  20.934  0.00  0.00    +0.210 HD
ENDBRANCH  14  15
BRANCH  14  17
ATOM     17  C   UNL     1       9.716  -0.545  21.752  0.00  0.00    +0.206 C 
BRANCH  17  18
ATOM     18  O   UNL     1       9.903  -1.083  23.054  0.00  0.00    -0.284 OA
BRANCH  18  19
ATOM     19  P   UNL     1       8.855  -2.393  23.475  0.00  0.00    +0.472 P 
ATOM     20  O   UNL     1       7.918  -3.565  23.852  0.00  0.00    -0.228 OA
BRANCH  19  21
ATOM     21  O   UNL     1       8.545  -1.564  24.851  0.00  0.00    -0.303 OA
ATOM     22  H   UNL     1       9.118  -1.864  25.580  0.00  0.00    +0.222 HD
ENDBRANCH  19  21
BRANCH  19  23
ATOM     23  O   UNL     1      10.181  -3.193  23.991  0.00  0.00    -0.303 OA
ATOM     24  H   UNL     1      10.941  -2.690  23.652  0.00  0.00    +0.222 HD
ENDBRANCH  19  23
ENDBRANCH  18  19
ENDBRANCH  17  18
ENDBRANCH  14  17
ENDBRANCH   1  14
TORSDOF 14
ENDMDL
MODEL 8
REMARK VINA RESULT:      -4.4      2.787      5.495
REMARK  Name = 
REMARK  14 active torsions:
REMARK  status: ('A' for Active; 'I' for Inactive)
REMARK    1  A    between atoms: N_1  and  CA_2
REMARK    2  A    between atoms: CA_2  and  C_4
REMARK    3  A    between atoms: CA_2  and  C_6
REMARK    4  A    between atoms: C_4  and  O_5
REMARK    5  A    between atoms: C_6  and  O_8
REMARK    6  A    between atoms: C_6  and  C_9
REMARK    7  A    between atoms: C_9  and  O_11
REMARK    8  A    between atoms: C_9  and  C_12
REMARK    9  A    between atoms: C_12  and  O_14
REMARK   10  A    between atoms: C_12  and  C_15
REMARK   11  A    between atoms: C_15  and  O_16
REMARK   12  A    between atoms: O_16  and  P_17
REMARK   13  A    between atoms: P_17  and  O_18
REMARK   14  A    between atoms: P_17  and  O_19
REMARK                            x       y       z     vdW  Elec       q    Type
REMARK                         _______ _______ _______ _____ _____    ______ ____
ROOT
ATOM      1  C   UNL     1       8.325  -2.094  22.583  0.00  0.00    +0.175 C 
ENDROOT
BRANCH   1   2
ATOM      2  O   UNL     1       7.417  -1.185  23.246  0.00  0.00    -0.387 OA
ATOM      3  H   UNL     1       7.948  -0.422  23.544  0.00  0.00    +0.210 HD
ENDBRANCH   1   2
BRANCH   1   4
ATOM      4  C   UNL     1       8.991  -2.994  23.649  0.00  0.00    +0.164 C 
BRANCH   4   5
ATOM      5  O   UNL     1       9.531  -2.121  24.671  0.00  0.00    -0.388 OA
ATOM      6  H   UNL     1       8.799  -1.648  25.099  0.00  0.00    +0.210 HD
ENDBRANCH   4   5
BRANCH   4   7
ATOM      7  CA  UNL     1       8.120  -4.099  24.309  0.00  0.00    +0.108 C 
BRANCH   7   8
ATOM      8  N   UNL     1       6.968  -3.578  25.076  0.00  0.00    -0.323 NA
ATOM      9  H1  UNL     1       7.029  -3.901  26.046  0.00  0.00    +0.119 HD
ATOM     10  H2  UNL     1       7.043  -2.562  25.129  0.00  0.00    +0.119 HD
ENDBRANCH   7   8
BRANCH   7  11
ATOM     11  C   UNL     1       8.934  -5.048  25.206  0.00  0.00    +0.177 C 
BRANCH  11  12
ATOM     12  O   UNL     1      10.309  -5.030  24.819  0.00  0.00    -0.393 OA
ATOM     13  H   UNL     1      10.503  -5.946  24.547  0.00  0.00    +0.209 HD
ENDBRANCH  11  12
ENDBRANCH   7  11
ENDBRANCH   4   7
ENDBRANCH   1   4
BRANCH   1  14
ATOM     14  C   UNL     1       9.302  -1.299  21.698  0.00  0.00    +0.172 C 
BRANCH  14  15
ATOM     15  O   UNL     1      10.652  -1.730  21.915  0.00  0.00    -0.387 OA
ATOM     16  H   UNL     1      10.577  -2.646  22.252  0.00  0.00    +0.210 HD
ENDBRANCH  14  15
BRANCH  14  17
ATOM     17  C   UNL     1       9.209   0.212  21.940  0.00  0.00    +0.206 C 
BRANCH  17  18
ATOM     18  O   UNL     1       9.943   0.475  23.127  0.00  0.00    -0.284 OA
BRANCH  18  19
ATOM     19  P   UNL     1       9.339   1.770  24.103  0.00  0.00    +0.472 P 
ATOM     20  O   UNL     1       8.798   2.928  24.976  0.00  0.00    -0.228 OA
BRANCH  19  21
ATOM     21  O   UNL     1       8.857   0.613  25.154  0.00  0.00    -0.303 OA
ATOM     22  H   UNL     1       9.035   0.877  26.075  0.00  0.00    +0.222 HD
ENDBRANCH  19  21
BRANCH  19  23
ATOM     23  O   UNL     1       8.012   1.772  23.152  0.00  0.00    -0.303 OA
ATOM     24  H   UNL     1       7.257   1.902  23.751  0.00  0.00    +0.222 HD
ENDBRANCH  19  23
ENDBRANCH  18  19
ENDBRANCH  17  18
ENDBRANCH  14  17
ENDBRANCH   1  14
TORSDOF 14
ENDMDL
MODEL 9
REMARK VINA RESULT:      -4.4      3.163      4.994
REMARK  Name = 
REMARK  14 active torsions:
REMARK  status: ('A' for Active; 'I' for Inactive)
REMARK    1  A    between atoms: N_1  and  CA_2
REMARK    2  A    between atoms: CA_2  and  C_4
REMARK    3  A    between atoms: CA_2  and  C_6
REMARK    4  A    between atoms: C_4  and  O_5
REMARK    5  A    between atoms: C_6  and  O_8
REMARK    6  A    between atoms: C_6  and  C_9
REMARK    7  A    between atoms: C_9  and  O_11
REMARK    8  A    between atoms: C_9  and  C_12
REMARK    9  A    between atoms: C_12  and  O_14
REMARK   10  A    between atoms: C_12  and  C_15
REMARK   11  A    between atoms: C_15  and  O_16
REMARK   12  A    between atoms: O_16  and  P_17
REMARK   13  A    between atoms: P_17  and  O_18
REMARK   14  A    between atoms: P_17  and  O_19
REMARK                            x       y       z     vdW  Elec       q    Type
REMARK                         _______ _______ _______ _____ _____    ______ ____
ROOT
ATOM      1  C   UNL     1       9.022   2.858  24.058  0.00  0.00    +0.175 C 
ENDROOT
BRANCH   1   2
ATOM      2  O   UNL     1       7.996   1.886  23.750  0.00  0.00    -0.387 OA
ATOM      3  H   UNL     1       8.168   1.573  22.842  0.00  0.00    +0.210 HD
ENDBRANCH   1   2
BRANCH   1   4
ATOM      4  C   UNL     1       8.483   4.268  23.729  0.00  0.00    +0.164 C 
BRANCH   4   5
ATOM      5  O   UNL     1       9.577   5.021  23.149  0.00  0.00    -0.388 OA
ATOM      6  H   UNL     1       9.809   5.750  23.747  0.00  0.00    +0.210 HD
ENDBRANCH   4   5
BRANCH   4   7
ATOM      7  CA  UNL     1       7.232   4.370  22.813  0.00  0.00    +0.108 C 
BRANCH   7   8
ATOM      8  N   UNL     1       7.347   3.604  21.553  0.00  0.00    -0.323 NA
ATOM      9  H1  UNL     1       6.651   3.944  20.881  0.00  0.00    +0.119 HD
ATOM     10  H2  UNL     1       8.251   3.810  21.126  0.00  0.00    +0.119 HD
ENDBRANCH   7   8
BRANCH   7  11
ATOM     11  C   UNL     1       6.844   5.822  22.486  0.00  0.00    +0.177 C 
BRANCH  11  12
ATOM     12  O   UNL     1       7.500   6.247  21.290  0.00  0.00    -0.393 OA
ATOM     13  H   UNL     1       6.848   6.096  20.581  0.00  0.00    +0.209 HD
ENDBRANCH  11  12
ENDBRANCH   7  11
ENDBRANCH   4   7
ENDBRANCH   1   4
BRANCH   1  14
ATOM     14  C   UNL     1      10.330   2.476  23.344  0.00  0.00    +0.172 C 
BRANCH  14  15
ATOM     15  O   UNL     1      10.179   2.565  21.921  0.00  0.00    -0.387 OA
ATOM     16  H   UNL     1      10.225   3.522  21.718  0.00  0.00    +0.210 HD
ENDBRANCH  14  15
BRANCH  14  17
ATOM     17  C   UNL     1      10.807   1.067  23.713  0.00  0.00    +0.206 C 
BRANCH  17  18
ATOM     18  O   UNL     1      10.307   0.196  22.708  0.00  0.00    -0.284 OA
BRANCH  18  19
ATOM     19  P   UNL     1      10.082  -1.449  23.193  0.00  0.00    +0.472 P 
ATOM     20  O   UNL     1       9.879  -2.921  23.627  0.00  0.00    -0.228 OA
BRANCH  19  21
ATOM     21  O   UNL     1      10.006  -1.799  21.597  0.00  0.00    -0.303 OA
ATOM     22  H   UNL     1      10.593  -1.218  21.080  0.00  0.00    +0.222 HD
ENDBRANCH  19  21
BRANCH  19  23
ATOM     23  O   UNL     1       8.505  -1.091  23.418  0.00  0.00    -0.303 OA
ATOM     24  H   UNL     1       8.455  -0.120  23.445  0.00  0.00    +0.222 HD
ENDBRANCH  19  23
ENDBRANCH  18  19
ENDBRANCH  17  18
ENDBRANCH  14  17
ENDBRANCH   1  14
TORSDOF 14
ENDMDL
