MODEL 1
REMARK VINA RESULT:      -6.9      0.000      0.000
REMARK  Name = 
REMARK  21 active torsions:
REMARK  status: ('A' for Active; 'I' for Inactive)
REMARK    1  A    between atoms: C_1  and  C_2
REMARK    2  A    between atoms: C_2  and  C_3
REMARK    3  A    between atoms: C_3  and  C_4
REMARK    4  A    between atoms: C_4  and  C_5
REMARK    5  A    between atoms: C_5  and  C_6
REMARK    6  A    between atoms: C_6  and  O_7
REMARK    7  A    between atoms: O_7  and  C_8
REMARK    8  A    between atoms: C_8  and  N_10
REMARK    9  A    between atoms: C_11  and  C_13
REMARK   10  A    between atoms: C_16  and  N_17
REMARK   11  A    between atoms: N_17  and  C_18
REMARK   12  A    between atoms: C_18  and  C_19
REMARK   13  A    between atoms: C_25  and  C_27
REMARK   14  A    between atoms: N_29  and  C_30
REMARK   15  A    between atoms: N_29  and  C_37
REMARK   16  A    between atoms: C_30  and  C_31
REMARK   17  A    between atoms: C_31  and  C_32
REMARK   18  A    between atoms: C_32  and  O_34
REMARK   19  A    between atoms: O_34  and  C_35
REMARK   20  A    between atoms: C_35  and  C_36
REMARK   21  A    between atoms: N_43  and  C_44
REMARK                            x       y       z     vdW  Elec       q    Type
REMARK                         _______ _______ _______ _____ _____    ______ ____
ROOT
ATOM      1  C   UNL     1       9.545  -1.999  24.150  0.00  0.00    +0.128 A 
ATOM      2  N   UNL     1       9.048  -1.544  22.952  0.00  0.00    -0.329 N 
ATOM      3  C   UNL     1       8.321  -2.332  21.984  0.00  0.00    +0.150 C 
ATOM      4  C   UNL     1       9.429  -0.232  22.810  0.00  0.00    +0.069 A 
ATOM      5  C   UNL     1       9.349   0.656  21.746  0.00  0.00    +0.029 A 
ATOM      6  C   UNL     1       9.937   1.913  21.930  0.00  0.00    +0.015 A 
ATOM      7  C   UNL     1      10.365   2.381  23.178  0.00  0.00    +0.039 A 
ATOM      8  C   UNL     1      10.469   1.441  24.226  0.00  0.00    +0.043 A 
ATOM      9  C   UNL     1      10.029   0.106  24.019  0.00  0.00    +0.090 A 
ATOM     10  N   UNL     1      10.086  -1.006  24.836  0.00  0.00    -0.231 NA
ENDROOT
BRANCH   7  11
ATOM     11  C   UNL     1      10.730   3.849  23.422  0.00  0.00    +0.252 C 
ATOM     12  N   UNL     1       9.748   4.855  23.619  0.00  0.00    -0.252 N 
ATOM     13  O   UNL     1      11.931   4.123  23.435  0.00  0.00    -0.270 OA
BRANCH  12  14
ATOM     14  C   UNL     1       8.358   4.612  23.712  0.00  0.00    +0.128 A 
ATOM     15  N   UNL     1       7.919   4.041  24.857  0.00  0.00    -0.240 NA
ATOM     16  C   UNL     1       6.585   3.939  25.032  0.00  0.00    +0.113 A 
ATOM     17  C   UNL     1       5.656   4.344  24.091  0.00  0.00    +0.020 A 
ATOM     18  C   UNL     1       6.123   4.853  22.885  0.00  0.00    +0.005 A 
ATOM     19  C   UNL     1       7.496   4.978  22.680  0.00  0.00    +0.044 A 
ENDBRANCH  12  14
BRANCH  12  20
ATOM     20  C   UNL     1      10.098   6.315  23.699  0.00  0.00    +0.126 C 
BRANCH  20  21
ATOM     21  C   UNL     1       9.506   6.940  24.972  0.00  0.00    +0.140 C 
BRANCH  21  22
ATOM     22  C   UNL     1      10.273   6.999  26.273  0.00  0.00    +0.309 C 
ATOM     23  O   UNL     1      11.503   7.021  26.266  0.00  0.00    -0.251 OA
BRANCH  22  24
ATOM     24  O   UNL     1       9.531   6.972  27.406  0.00  0.00    -0.465 OA
BRANCH  24  25
ATOM     25  C   UNL     1       8.124   6.692  27.196  0.00  0.00    +0.229 C 
ATOM     26  C   UNL     1       7.423   6.328  28.492  0.00  0.00    +0.048 C 
ENDBRANCH  24  25
ENDBRANCH  22  24
ENDBRANCH  21  22
ENDBRANCH  20  21
ENDBRANCH  12  20
ENDBRANCH   7  11
BRANCH   1  27
ATOM     27  C   UNL     1       9.485  -3.446  24.554  0.00  0.00    +0.176 C 
BRANCH  27  28
ATOM     28  N   UNL     1       8.891  -3.674  25.882  0.00  0.00    -0.337 N 
ATOM     29  H   UNL     1       8.711  -2.784  26.346  0.00  0.00    +0.147 HD
BRANCH  28  33
ATOM     30  C   UNL     1       5.419  -6.085  25.964  0.00  0.00    +0.064 A 
ATOM     31  C   UNL     1       6.068  -5.743  27.152  0.00  0.00    +0.017 A 
ATOM     32  C   UNL     1       7.227  -4.953  27.111  0.00  0.00    +0.024 A 
ATOM     33  C   UNL     1       7.732  -4.477  25.889  0.00  0.00    +0.027 A 
ATOM     34  C   UNL     1       7.118  -4.912  24.710  0.00  0.00    +0.024 A 
ATOM     35  C   UNL     1       5.955  -5.684  24.741  0.00  0.00    +0.017 A 
BRANCH  30  37
ATOM     36  N   UNL     1       3.659  -7.225  24.835  0.00  0.00    +0.065 NA
ATOM     37  C   UNL     1       4.160  -6.893  25.981  0.00  0.00    +0.314 C 
ATOM     38  N   UNL     1       3.642  -7.216  27.218  0.00  0.00    -0.248 N 
ATOM     39  H   UNL     1       4.325  -7.360  27.954  0.00  0.00    +0.288 HD
ATOM     40  H   UNL     1       2.967  -7.983  27.189  0.00  0.00    +0.288 HD
BRANCH  36  41
ATOM     41  C   UNL     1       2.510  -7.952  24.801  0.00  0.00    +0.542 C 
ATOM     42  O   UNL     1       2.437  -9.181  24.802  0.00  0.00    -0.198 OA
BRANCH  41  43
ATOM     43  O   UNL     1       1.436  -7.124  24.770  0.00  0.00    -0.430 OA
BRANCH  43  44
ATOM     44  C   UNL     1       1.300  -6.341  23.576  0.00  0.00    +0.236 C 
BRANCH  44  45
ATOM     45  C   UNL     1       0.827  -4.929  23.915  0.00  0.00    +0.041 C 
BRANCH  45  46
ATOM     46  C   UNL     1       1.486  -4.416  25.192  0.00  0.00    +0.003 C 
BRANCH  46  47
ATOM     47  C   UNL     1       2.786  -3.670  24.890  0.00  0.00    -0.000 C 
BRANCH  47  49
ATOM     48  C   UNL     1       4.657  -2.291  25.861  0.00  0.00    +0.004 C 
ATOM     49  C   UNL     1       3.389  -3.074  26.161  0.00  0.00    -0.003 C 
ENDBRANCH  47  49
ENDBRANCH  46  47
ENDBRANCH  45  46
ENDBRANCH  44  45
ENDBRANCH  43  44
ENDBRANCH  41  43
ENDBRANCH  36  41
ENDBRANCH  30  37
ENDBRANCH  28  33
ENDBRANCH  27  28
ENDBRANCH   1  27
TORSDOF 18
ENDMDL
MODEL 2
REMARK VINA RESULT:      -6.4      3.847      6.322
REMARK  Name = 
REMARK  21 active torsions:
REMARK  status: ('A' for Active; 'I' for Inactive)
REMARK    1  A    between atoms: C_1  and  C_2
REMARK    2  A    between atoms: C_2  and  C_3
REMARK    3  A    between atoms: C_3  and  C_4
REMARK    4  A    between atoms: C_4  and  C_5
REMARK    5  A    between atoms: C_5  and  C_6
REMARK    6  A    between atoms: C_6  and  O_7
REMARK    7  A    between atoms: O_7  and  C_8
REMARK    8  A    between atoms: C_8  and  N_10
REMARK    9  A    between atoms: C_11  and  C_13
REMARK   10  A    between atoms: C_16  and  N_17
REMARK   11  A    between atoms: N_17  and  C_18
REMARK   12  A    between atoms: C_18  and  C_19
REMARK   13  A    between atoms: C_25  and  C_27
REMARK   14  A    between atoms: N_29  and  C_30
REMARK   15  A    between atoms: N_29  and  C_37
REMARK   16  A    between atoms: C_30  and  C_31
REMARK   17  A    between atoms: C_31  and  C_32
REMARK   18  A    between atoms: C_32  and  O_34
REMARK   19  A    between atoms: O_34  and  C_35
REMARK   20  A    between atoms: C_35  and  C_36
REMARK   21  A    between atoms: N_43  and  C_44
REMARK                            x       y       z     vdW  Elec       q    Type
REMARK                         _______ _______ _______ _____ _____    ______ ____
ROOT
ATOM      1  C   UNL     1       8.869   1.662  22.146  0.00  0.00    +0.128 A 
ATOM      2  N   UNL     1       9.171   2.769  22.904  0.00  0.00    -0.329 N 
ATOM      3  C   UNL     1      10.480   3.119  23.404  0.00  0.00    +0.150 C 
ATOM      4  C   UNL     1       7.997   3.436  23.159  0.00  0.00    +0.069 A 
ATOM      5  C   UNL     1       7.690   4.503  23.992  0.00  0.00    +0.029 A 
ATOM      6  C   UNL     1       6.341   4.868  24.075  0.00  0.00    +0.015 A 
ATOM      7  C   UNL     1       5.364   4.385  23.197  0.00  0.00    +0.039 A 
ATOM      8  C   UNL     1       5.702   3.276  22.391  0.00  0.00    +0.043 A 
ATOM      9  C   UNL     1       7.032   2.775  22.408  0.00  0.00    +0.090 A 
ATOM     10  N   UNL     1       7.596   1.679  21.785  0.00  0.00    -0.231 NA
ENDROOT
BRANCH   7  11
ATOM     11  C   UNL     1       3.966   5.004  23.105  0.00  0.00    +0.252 C 
ATOM     12  N   UNL     1       2.961   4.765  24.079  0.00  0.00    -0.252 N 
ATOM     13  O   UNL     1       3.746   5.728  22.132  0.00  0.00    -0.270 OA
BRANCH  12  14
ATOM     14  C   UNL     1       3.158   4.027  25.271  0.00  0.00    +0.128 A 
ATOM     15  N   UNL     1       3.210   2.682  25.147  0.00  0.00    -0.240 NA
ATOM     16  C   UNL     1       3.547   1.968  26.241  0.00  0.00    +0.113 A 
ATOM     17  C   UNL     1       3.797   2.533  27.478  0.00  0.00    +0.020 A 
ATOM     18  C   UNL     1       3.658   3.910  27.610  0.00  0.00    +0.005 A 
ATOM     19  C   UNL     1       3.319   4.673  26.495  0.00  0.00    +0.044 A 
ENDBRANCH  12  14
BRANCH  12  20
ATOM     20  C   UNL     1       1.545   5.241  23.908  0.00  0.00    +0.126 C 
BRANCH  20  21
ATOM     21  C   UNL     1       0.620   4.062  23.567  0.00  0.00    +0.140 C 
BRANCH  21  22
ATOM     22  C   UNL     1       0.814   3.216  22.330  0.00  0.00    +0.309 C 
ATOM     23  O   UNL     1       0.785   1.989  22.408  0.00  0.00    -0.251 OA
BRANCH  22  24
ATOM     24  O   UNL     1       1.067   3.888  21.181  0.00  0.00    -0.465 OA
BRANCH  24  25
ATOM     25  C   UNL     1       1.753   3.111  20.169  0.00  0.00    +0.229 C 
ATOM     26  C   UNL     1       1.888   3.878  18.866  0.00  0.00    +0.048 C 
ENDBRANCH  24  25
ENDBRANCH  22  24
ENDBRANCH  21  22
ENDBRANCH  20  21
ENDBRANCH  12  20
ENDBRANCH   7  11
BRANCH   1  27
ATOM     27  C   UNL     1       9.880   0.594  21.835  0.00  0.00    +0.176 C 
BRANCH  27  28
ATOM     28  N   UNL     1       9.296  -0.648  21.301  0.00  0.00    -0.337 N 
ATOM     29  H   UNL     1       9.865  -1.004  20.533  0.00  0.00    +0.147 HD
BRANCH  28  33
ATOM     30  C   UNL     1       8.675  -3.677  24.184  0.00  0.00    +0.064 A 
ATOM     31  C   UNL     1       9.888  -2.988  24.136  0.00  0.00    +0.017 A 
ATOM     32  C   UNL     1      10.087  -1.994  23.166  0.00  0.00    +0.024 A 
ATOM     33  C   UNL     1       9.070  -1.661  22.256  0.00  0.00    +0.027 A 
ATOM     34  C   UNL     1       7.901  -2.430  22.266  0.00  0.00    +0.024 A 
ATOM     35  C   UNL     1       7.687  -3.410  23.237  0.00  0.00    +0.017 A 
BRANCH  30  37
ATOM     36  N   UNL     1       7.248  -4.725  25.777  0.00  0.00    +0.065 NA
ATOM     37  C   UNL     1       8.422  -4.714  25.232  0.00  0.00    +0.314 C 
ATOM     38  N   UNL     1       9.462  -5.571  25.528  0.00  0.00    -0.248 N 
ATOM     39  H   UNL     1      10.073  -5.800  24.752  0.00  0.00    +0.288 HD
ATOM     40  H   UNL     1       9.166  -6.415  26.023  0.00  0.00    +0.288 HD
BRANCH  36  41
ATOM     41  C   UNL     1       6.974  -5.644  26.742  0.00  0.00    +0.542 C 
ATOM     42  O   UNL     1       7.634  -5.831  27.764  0.00  0.00    -0.198 OA
BRANCH  41  43
ATOM     43  O   UNL     1       5.851  -6.334  26.421  0.00  0.00    -0.430 OA
BRANCH  43  44
ATOM     44  C   UNL     1       4.668  -5.539  26.266  0.00  0.00    +0.236 C 
BRANCH  44  45
ATOM     45  C   UNL     1       3.744  -6.157  25.218  0.00  0.00    +0.041 C 
BRANCH  45  46
ATOM     46  C   UNL     1       4.540  -6.853  24.118  0.00  0.00    +0.003 C 
BRANCH  46  47
ATOM     47  C   UNL     1       4.907  -5.883  22.995  0.00  0.00    -0.000 C 
BRANCH  47  49
ATOM     48  C   UNL     1       6.249  -5.719  20.869  0.00  0.00    +0.004 C 
ATOM     49  C   UNL     1       6.159  -6.345  22.252  0.00  0.00    -0.003 C 
ENDBRANCH  47  49
ENDBRANCH  46  47
ENDBRANCH  45  46
ENDBRANCH  44  45
ENDBRANCH  43  44
ENDBRANCH  41  43
ENDBRANCH  36  41
ENDBRANCH  30  37
ENDBRANCH  28  33
ENDBRANCH  27  28
ENDBRANCH   1  27
TORSDOF 18
ENDMDL
MODEL 3
REMARK VINA RESULT:      -6.3      2.830     10.245
REMARK  Name = 
REMARK  21 active torsions:
REMARK  status: ('A' for Active; 'I' for Inactive)
REMARK    1  A    between atoms: C_1  and  C_2
REMARK    2  A    between atoms: C_2  and  C_3
REMARK    3  A    between atoms: C_3  and  C_4
REMARK    4  A    between atoms: C_4  and  C_5
REMARK    5  A    between atoms: C_5  and  C_6
REMARK    6  A    between atoms: C_6  and  O_7
REMARK    7  A    between atoms: O_7  and  C_8
REMARK    8  A    between atoms: C_8  and  N_10
REMARK    9  A    between atoms: C_11  and  C_13
REMARK   10  A    between atoms: C_16  and  N_17
REMARK   11  A    between atoms: N_17  and  C_18
REMARK   12  A    between atoms: C_18  and  C_19
REMARK   13  A    between atoms: C_25  and  C_27
REMARK   14  A    between atoms: N_29  and  C_30
REMARK   15  A    between atoms: N_29  and  C_37
REMARK   16  A    between atoms: C_30  and  C_31
REMARK   17  A    between atoms: C_31  and  C_32
REMARK   18  A    between atoms: C_32  and  O_34
REMARK   19  A    between atoms: O_34  and  C_35
REMARK   20  A    between atoms: C_35  and  C_36
REMARK   21  A    between atoms: N_43  and  C_44
REMARK                            x       y       z     vdW  Elec       q    Type
REMARK                         _______ _______ _______ _____ _____    ______ ____
ROOT
ATOM      1  C   UNL     1       7.448  -2.654  23.000  0.00  0.00    +0.128 A 
ATOM      2  N   UNL     1       6.737  -3.813  22.798  0.00  0.00    -0.329 N 
ATOM      3  C   UNL     1       7.088  -4.872  21.881  0.00  0.00    +0.150 C 
ATOM      4  C   UNL     1       5.600  -3.748  23.568  0.00  0.00    +0.069 A 
ATOM      5  C   UNL     1       4.466  -4.546  23.631  0.00  0.00    +0.029 A 
ATOM      6  C   UNL     1       3.442  -4.117  24.482  0.00  0.00    +0.015 A 
ATOM      7  C   UNL     1       3.608  -3.093  25.422  0.00  0.00    +0.039 A 
ATOM      8  C   UNL     1       4.756  -2.279  25.303  0.00  0.00    +0.043 A 
ATOM      9  C   UNL     1       5.744  -2.595  24.331  0.00  0.00    +0.090 A 
ATOM     10  N   UNL     1       6.899  -1.934  23.965  0.00  0.00    -0.231 NA
ENDROOT
BRANCH   7  11
ATOM     11  C   UNL     1       2.592  -2.830  26.538  0.00  0.00    +0.252 C 
ATOM     12  N   UNL     1       2.558  -3.597  27.732  0.00  0.00    -0.252 N 
ATOM     13  O   UNL     1       1.790  -1.914  26.350  0.00  0.00    -0.270 OA
BRANCH  12  14
ATOM     14  C   UNL     1       3.497  -4.601  28.069  0.00  0.00    +0.128 A 
ATOM     15  N   UNL     1       3.094  -5.882  27.915  0.00  0.00    -0.240 NA
ATOM     16  C   UNL     1       4.017  -6.851  28.084  0.00  0.00    +0.113 A 
ATOM     17  C   UNL     1       5.329  -6.604  28.444  0.00  0.00    +0.020 A 
ATOM     18  C   UNL     1       5.708  -5.288  28.680  0.00  0.00    +0.005 A 
ATOM     19  C   UNL     1       4.777  -4.266  28.505  0.00  0.00    +0.044 A 
ENDBRANCH  12  14
BRANCH  12  20
ATOM     20  C   UNL     1       1.464  -3.446  28.754  0.00  0.00    +0.126 C 
BRANCH  20  21
ATOM     21  C   UNL     1       1.876  -2.433  29.835  0.00  0.00    +0.140 C 
BRANCH  21  22
ATOM     22  C   UNL     1       1.698  -0.944  29.652  0.00  0.00    +0.309 C 
ATOM     23  O   UNL     1       0.607  -0.487  29.316  0.00  0.00    -0.251 OA
BRANCH  22  24
ATOM     24  O   UNL     1       2.806  -0.184  29.829  0.00  0.00    -0.465 OA
BRANCH  24  25
ATOM     25  C   UNL     1       4.033  -0.793  29.357  0.00  0.00    +0.229 C 
ATOM     26  C   UNL     1       4.746   0.089  28.347  0.00  0.00    +0.048 C 
ENDBRANCH  24  25
ENDBRANCH  22  24
ENDBRANCH  21  22
ENDBRANCH  20  21
ENDBRANCH  12  20
ENDBRANCH   7  11
BRANCH   1  27
ATOM     27  C   UNL     1       8.655  -2.292  22.180  0.00  0.00    +0.176 C 
BRANCH  27  28
ATOM     28  N   UNL     1       9.817  -1.865  22.978  0.00  0.00    -0.337 N 
ATOM     29  H   UNL     1      10.663  -2.328  22.645  0.00  0.00    +0.147 HD
BRANCH  28  33
ATOM     30  C   UNL     1      10.415   2.311  23.251  0.00  0.00    +0.064 A 
ATOM     31  C   UNL     1      10.515   1.508  24.389  0.00  0.00    +0.017 A 
ATOM     32  C   UNL     1      10.302   0.125  24.288  0.00  0.00    +0.024 A 
ATOM     33  C   UNL     1      10.013  -0.471  23.049  0.00  0.00    +0.027 A 
ATOM     34  C   UNL     1       9.827   0.367  21.944  0.00  0.00    +0.024 A 
ATOM     35  C   UNL     1      10.053   1.742  22.031  0.00  0.00    +0.017 A 
BRANCH  30  37
ATOM     36  N   UNL     1       9.851   4.492  24.024  0.00  0.00    +0.065 NA
ATOM     37  C   UNL     1      10.676   3.782  23.323  0.00  0.00    +0.314 C 
ATOM     38  N   UNL     1      11.774   4.256  22.636  0.00  0.00    -0.248 N 
ATOM     39  H   UNL     1      12.564   3.622  22.584  0.00  0.00    +0.288 HD
ATOM     40  H   UNL     1      12.071   5.187  22.936  0.00  0.00    +0.288 HD
BRANCH  36  41
ATOM     41  C   UNL     1      10.043   5.836  24.111  0.00  0.00    +0.542 C 
ATOM     42  O   UNL     1      10.965   6.393  24.708  0.00  0.00    -0.198 OA
BRANCH  41  43
ATOM     43  O   UNL     1       9.067   6.490  23.433  0.00  0.00    -0.430 OA
BRANCH  43  44
ATOM     44  C   UNL     1       7.757   5.915  23.539  0.00  0.00    +0.236 C 
BRANCH  44  45
ATOM     45  C   UNL     1       7.263   5.457  22.169  0.00  0.00    +0.041 C 
BRANCH  45  46
ATOM     46  C   UNL     1       6.905   3.974  22.176  0.00  0.00    +0.003 C 
BRANCH  46  47
ATOM     47  C   UNL     1       6.731   3.447  23.600  0.00  0.00    -0.000 C 
BRANCH  47  49
ATOM     48  C   UNL     1       6.833   1.361  25.010  0.00  0.00    +0.004 C 
ATOM     49  C   UNL     1       6.608   1.924  23.616  0.00  0.00    -0.003 C 
ENDBRANCH  47  49
ENDBRANCH  46  47
ENDBRANCH  45  46
ENDBRANCH  44  45
ENDBRANCH  43  44
ENDBRANCH  41  43
ENDBRANCH  36  41
ENDBRANCH  30  37
ENDBRANCH  28  33
ENDBRANCH  27  28
ENDBRANCH   1  27
TORSDOF 18
ENDMDL
MODEL 4
REMARK VINA RESULT:      -6.2      3.360      5.191
REMARK  Name = 
REMARK  21 active torsions:
REMARK  status: ('A' for Active; 'I' for Inactive)
REMARK    1  A    between atoms: C_1  and  C_2
REMARK    2  A    between atoms: C_2  and  C_3
REMARK    3  A    between atoms: C_3  and  C_4
REMARK    4  A    between atoms: C_4  and  C_5
REMARK    5  A    between atoms: C_5  and  C_6
REMARK    6  A    between atoms: C_6  and  O_7
REMARK    7  A    between atoms: O_7  and  C_8
REMARK    8  A    between atoms: C_8  and  N_10
REMARK    9  A    between atoms: C_11  and  C_13
REMARK   10  A    between atoms: C_16  and  N_17
REMARK   11  A    between atoms: N_17  and  C_18
REMARK   12  A    between atoms: C_18  and  C_19
REMARK   13  A    between atoms: C_25  and  C_27
REMARK   14  A    between atoms: N_29  and  C_30
REMARK   15  A    between atoms: N_29  and  C_37
REMARK   16  A    between atoms: C_30  and  C_31
REMARK   17  A    between atoms: C_31  and  C_32
REMARK   18  A    between atoms: C_32  and  O_34
REMARK   19  A    between atoms: O_34  and  C_35
REMARK   20  A    between atoms: C_35  and  C_36
REMARK   21  A    between atoms: N_43  and  C_44
REMARK                            x       y       z     vdW  Elec       q    Type
REMARK                         _______ _______ _______ _____ _____    ______ ____
ROOT
ATOM      1  C   UNL     1       9.576   0.511  22.278  0.00  0.00    +0.128 A 
ATOM      2  N   UNL     1      10.033   1.306  23.303  0.00  0.00    -0.329 N 
ATOM      3  C   UNL     1      11.135   0.997  24.185  0.00  0.00    +0.150 C 
ATOM      4  C   UNL     1       9.210   2.403  23.383  0.00  0.00    +0.069 A 
ATOM      5  C   UNL     1       9.104   3.426  24.315  0.00  0.00    +0.029 A 
ATOM      6  C   UNL     1       8.066   4.345  24.123  0.00  0.00    +0.015 A 
ATOM      7  C   UNL     1       7.317   4.418  22.943  0.00  0.00    +0.039 A 
ATOM      8  C   UNL     1       7.425   3.340  22.035  0.00  0.00    +0.043 A 
ATOM      9  C   UNL     1       8.360   2.301  22.287  0.00  0.00    +0.090 A 
ATOM     10  N   UNL     1       8.608   1.121  21.614  0.00  0.00    -0.231 NA
ENDROOT
BRANCH   7  11
ATOM     11  C   UNL     1       6.395   5.599  22.627  0.00  0.00    +0.252 C 
ATOM     12  N   UNL     1       5.118   5.751  23.230  0.00  0.00    -0.252 N 
ATOM     13  O   UNL     1       6.813   6.424  21.812  0.00  0.00    -0.270 OA
BRANCH  12  14
ATOM     14  C   UNL     1       4.603   4.906  24.241  0.00  0.00    +0.128 A 
ATOM     15  N   UNL     1       4.278   3.647  23.870  0.00  0.00    -0.240 NA
ATOM     16  C   UNL     1       3.930   2.780  24.843  0.00  0.00    +0.113 A 
ATOM     17  C   UNL     1       3.847   3.123  26.180  0.00  0.00    +0.020 A 
ATOM     18  C   UNL     1       4.102   4.441  26.537  0.00  0.00    +0.005 A 
ATOM     19  C   UNL     1       4.473   5.356  25.554  0.00  0.00    +0.044 A 
ENDBRANCH  12  14
BRANCH  12  20
ATOM     20  C   UNL     1       4.150   6.820  22.804  0.00  0.00    +0.126 C 
BRANCH  20  21
ATOM     21  C   UNL     1       2.785   6.201  22.461  0.00  0.00    +0.140 C 
BRANCH  21  22
ATOM     22  C   UNL     1       2.492   5.594  21.109  0.00  0.00    +0.309 C 
ATOM     23  O   UNL     1       2.147   6.310  20.170  0.00  0.00    -0.251 OA
BRANCH  22  24
ATOM     24  O   UNL     1       2.585   4.245  21.027  0.00  0.00    -0.465 OA
BRANCH  24  25
ATOM     25  C   UNL     1       1.476   3.530  21.625  0.00  0.00    +0.229 C 
ATOM     26  C   UNL     1       1.109   2.291  20.827  0.00  0.00    +0.048 C 
ENDBRANCH  24  25
ENDBRANCH  22  24
ENDBRANCH  21  22
ENDBRANCH  20  21
ENDBRANCH  12  20
ENDBRANCH   7  11
BRANCH   1  27
ATOM     27  C   UNL     1      10.118  -0.867  22.019  0.00  0.00    +0.176 C 
BRANCH  27  28
ATOM     28  N   UNL     1       9.089  -1.859  21.663  0.00  0.00    -0.337 N 
ATOM     29  H   UNL     1       9.412  -2.440  20.889  0.00  0.00    +0.147 HD
BRANCH  28  33
ATOM     30  C   UNL     1       7.792  -4.256  24.895  0.00  0.00    +0.064 A 
ATOM     31  C   UNL     1       8.924  -3.449  25.025  0.00  0.00    +0.017 A 
ATOM     32  C   UNL     1       9.352  -2.668  23.941  0.00  0.00    +0.024 A 
ATOM     33  C   UNL     1       8.640  -2.665  22.729  0.00  0.00    +0.027 A 
ATOM     34  C   UNL     1       7.567  -3.551  22.596  0.00  0.00    +0.024 A 
ATOM     35  C   UNL     1       7.124  -4.320  23.673  0.00  0.00    +0.017 A 
BRANCH  30  37
ATOM     36  N   UNL     1       6.008  -5.144  26.199  0.00  0.00    +0.065 NA
ATOM     37  C   UNL     1       7.291  -5.069  26.047  0.00  0.00    +0.314 C 
ATOM     38  N   UNL     1       8.241  -5.668  26.848  0.00  0.00    -0.248 N 
ATOM     39  H   UNL     1       9.089  -5.961  26.376  0.00  0.00    +0.288 HD
ATOM     40  H   UNL     1       7.866  -6.421  27.430  0.00  0.00    +0.288 HD
BRANCH  36  41
ATOM     41  C   UNL     1       5.506  -5.865  27.238  0.00  0.00    +0.542 C 
ATOM     42  O   UNL     1       5.587  -7.087  27.371  0.00  0.00    -0.198 OA
BRANCH  41  43
ATOM     43  O   UNL     1       4.900  -5.039  28.126  0.00  0.00    -0.430 OA
BRANCH  43  44
ATOM     44  C   UNL     1       3.996  -4.083  27.555  0.00  0.00    +0.236 C 
BRANCH  44  45
ATOM     45  C   UNL     1       4.350  -2.671  28.020  0.00  0.00    +0.041 C 
BRANCH  45  46
ATOM     46  C   UNL     1       4.270  -1.673  26.868  0.00  0.00    +0.003 C 
BRANCH  46  47
ATOM     47  C   UNL     1       5.661  -1.293  26.361  0.00  0.00    -0.000 C 
BRANCH  47  49
ATOM     48  C   UNL     1       6.564   0.001  24.397  0.00  0.00    +0.004 C 
ATOM     49  C   UNL     1       5.674  -1.149  24.840  0.00  0.00    -0.003 C 
ENDBRANCH  47  49
ENDBRANCH  46  47
ENDBRANCH  45  46
ENDBRANCH  44  45
ENDBRANCH  43  44
ENDBRANCH  41  43
ENDBRANCH  36  41
ENDBRANCH  30  37
ENDBRANCH  28  33
ENDBRANCH  27  28
ENDBRANCH   1  27
TORSDOF 18
ENDMDL
MODEL 5
REMARK VINA RESULT:      -6.1      1.813      2.471
REMARK  Name = 
REMARK  21 active torsions:
REMARK  status: ('A' for Active; 'I' for Inactive)
REMARK    1  A    between atoms: C_1  and  C_2
REMARK    2  A    between atoms: C_2  and  C_3
REMARK    3  A    between atoms: C_3  and  C_4
REMARK    4  A    between atoms: C_4  and  C_5
REMARK    5  A    between atoms: C_5  and  C_6
REMARK    6  A    between atoms: C_6  and  O_7
REMARK    7  A    between atoms: O_7  and  C_8
REMARK    8  A    between atoms: C_8  and  N_10
REMARK    9  A    between atoms: C_11  and  C_13
REMARK   10  A    between atoms: C_16  and  N_17
REMARK   11  A    between atoms: N_17  and  C_18
REMARK   12  A    between atoms: C_18  and  C_19
REMARK   13  A    between atoms: C_25  and  C_27
REMARK   14  A    between atoms: N_29  and  C_30
REMARK   15  A    between atoms: N_29  and  C_37
REMARK   16  A    between atoms: C_30  and  C_31
REMARK   17  A    between atoms: C_31  and  C_32
REMARK   18  A    between atoms: C_32  and  O_34
REMARK   19  A    between atoms: O_34  and  C_35
REMARK   20  A    between atoms: C_35  and  C_36
REMARK   21  A    between atoms: N_43  and  C_44
REMARK                            x       y       z     vdW  Elec       q    Type
REMARK                         _______ _______ _______ _____ _____    ______ ____
ROOT
ATOM      1  C   UNL     1       9.488  -2.088  24.100  0.00  0.00    +0.128 A 
ATOM      2  N   UNL     1       9.058  -1.626  22.879  0.00  0.00    -0.329 N 
ATOM      3  C   UNL     1       8.389  -2.409  21.867  0.00  0.00    +0.150 C 
ATOM      4  C   UNL     1       9.443  -0.312  22.767  0.00  0.00    +0.069 A 
ATOM      5  C   UNL     1       9.420   0.583  21.706  0.00  0.00    +0.029 A 
ATOM      6  C   UNL     1       9.994   1.839  21.930  0.00  0.00    +0.015 A 
ATOM      7  C   UNL     1      10.351   2.301  23.203  0.00  0.00    +0.039 A 
ATOM      8  C   UNL     1      10.398   1.354  24.250  0.00  0.00    +0.043 A 
ATOM      9  C   UNL     1       9.974   0.019  24.009  0.00  0.00    +0.090 A 
ATOM     10  N   UNL     1       9.988  -1.098  24.821  0.00  0.00    -0.231 NA
ENDROOT
BRANCH   7  11
ATOM     11  C   UNL     1      10.698   3.767  23.476  0.00  0.00    +0.252 C 
ATOM     12  N   UNL     1       9.703   4.761  23.671  0.00  0.00    -0.252 N 
ATOM     13  O   UNL     1      11.896   4.052  23.516  0.00  0.00    -0.270 OA
BRANCH  12  14
ATOM     14  C   UNL     1       8.313   4.505  23.735  0.00  0.00    +0.128 A 
ATOM     15  N   UNL     1       7.576   4.899  22.672  0.00  0.00    -0.240 NA
ATOM     16  C   UNL     1       6.279   4.532  22.642  0.00  0.00    +0.113 A 
ATOM     17  C   UNL     1       5.662   3.816  23.652  0.00  0.00    +0.020 A 
ATOM     18  C   UNL     1       6.410   3.489  24.776  0.00  0.00    +0.005 A 
ATOM     19  C   UNL     1       7.755   3.849  24.830  0.00  0.00    +0.044 A 
ENDBRANCH  12  14
BRANCH  12  20
ATOM     20  C   UNL     1      10.038   6.223  23.780  0.00  0.00    +0.126 C 
BRANCH  20  21
ATOM     21  C   UNL     1       9.244   6.872  24.925  0.00  0.00    +0.140 C 
BRANCH  21  22
ATOM     22  C   UNL     1       9.624   6.685  26.376  0.00  0.00    +0.309 C 
ATOM     23  O   UNL     1      10.752   6.986  26.764  0.00  0.00    -0.251 OA
BRANCH  22  24
ATOM     24  O   UNL     1       8.679   6.133  27.174  0.00  0.00    -0.465 OA
BRANCH  24  25
ATOM     25  C   UNL     1       7.584   7.020  27.511  0.00  0.00    +0.229 C 
ATOM     26  C   UNL     1       6.236   6.394  27.197  0.00  0.00    +0.048 C 
ENDBRANCH  24  25
ENDBRANCH  22  24
ENDBRANCH  21  22
ENDBRANCH  20  21
ENDBRANCH  12  20
ENDBRANCH   7  11
BRANCH   1  27
ATOM     27  C   UNL     1       9.410  -3.537  24.490  0.00  0.00    +0.176 C 
BRANCH  27  28
ATOM     28  N   UNL     1       8.203  -4.226  24.002  0.00  0.00    -0.337 N 
ATOM     29  H   UNL     1       8.455  -4.933  23.311  0.00  0.00    +0.147 HD
BRANCH  28  33
ATOM     30  C   UNL     1       5.716  -5.923  26.970  0.00  0.00    +0.064 A 
ATOM     31  C   UNL     1       5.300  -5.886  25.638  0.00  0.00    +0.017 A 
ATOM     32  C   UNL     1       6.128  -5.308  24.664  0.00  0.00    +0.024 A 
ATOM     33  C   UNL     1       7.388  -4.788  25.006  0.00  0.00    +0.027 A 
ATOM     34  C   UNL     1       7.739  -4.754  26.359  0.00  0.00    +0.024 A 
ATOM     35  C   UNL     1       6.929  -5.341  27.334  0.00  0.00    +0.017 A 
BRANCH  30  37
ATOM     36  N   UNL     1       3.658  -6.133  28.149  0.00  0.00    +0.065 NA
ATOM     37  C   UNL     1       4.870  -6.568  28.022  0.00  0.00    +0.314 C 
ATOM     38  N   UNL     1       5.455  -7.571  28.767  0.00  0.00    -0.248 N 
ATOM     39  H   UNL     1       6.140  -8.136  28.276  0.00  0.00    +0.288 HD
ATOM     40  H   UNL     1       4.779  -8.159  29.259  0.00  0.00    +0.288 HD
BRANCH  36  41
ATOM     41  C   UNL     1       2.853  -6.683  29.098  0.00  0.00    +0.542 C 
ATOM     42  O   UNL     1       2.359  -7.810  29.057  0.00  0.00    -0.198 OA
BRANCH  41  43
ATOM     43  O   UNL     1       2.672  -5.807  30.118  0.00  0.00    -0.430 OA
BRANCH  43  44
ATOM     44  C   UNL     1       2.204  -4.507  29.733  0.00  0.00    +0.236 C 
BRANCH  44  45
ATOM     45  C   UNL     1       3.123  -3.423  30.290  0.00  0.00    +0.041 C 
BRANCH  45  46
ATOM     46  C   UNL     1       3.958  -2.783  29.184  0.00  0.00    +0.003 C 
BRANCH  46  47
ATOM     47  C   UNL     1       3.140  -2.588  27.908  0.00  0.00    -0.000 C 
BRANCH  47  49
ATOM     48  C   UNL     1       5.376  -1.929  26.951  0.00  0.00    +0.004 C 
ATOM     49  C   UNL     1       4.037  -2.592  26.670  0.00  0.00    -0.003 C 
ENDBRANCH  47  49
ENDBRANCH  46  47
ENDBRANCH  45  46
ENDBRANCH  44  45
ENDBRANCH  43  44
ENDBRANCH  41  43
ENDBRANCH  36  41
ENDBRANCH  30  37
ENDBRANCH  28  33
ENDBRANCH  27  28
ENDBRANCH   1  27
TORSDOF 18
ENDMDL
MODEL 6
REMARK VINA RESULT:      -6.1      1.506      2.091
REMARK  Name = 
REMARK  21 active torsions:
REMARK  status: ('A' for Active; 'I' for Inactive)
REMARK    1  A    between atoms: C_1  and  C_2
REMARK    2  A    between atoms: C_2  and  C_3
REMARK    3  A    between atoms: C_3  and  C_4
REMARK    4  A    between atoms: C_4  and  C_5
REMARK    5  A    between atoms: C_5  and  C_6
REMARK    6  A    between atoms: C_6  and  O_7
REMARK    7  A    between atoms: O_7  and  C_8
REMARK    8  A    between atoms: C_8  and  N_10
REMARK    9  A    between atoms: C_11  and  C_13
REMARK   10  A    between atoms: C_16  and  N_17
REMARK   11  A    between atoms: N_17  and  C_18
REMARK   12  A    between atoms: C_18  and  C_19
REMARK   13  A    between atoms: C_25  and  C_27
REMARK   14  A    between atoms: N_29  and  C_30
REMARK   15  A    between atoms: N_29  and  C_37
REMARK   16  A    between atoms: C_30  and  C_31
REMARK   17  A    between atoms: C_31  and  C_32
REMARK   18  A    between atoms: C_32  and  O_34
REMARK   19  A    between atoms: O_34  and  C_35
REMARK   20  A    between atoms: C_35  and  C_36
REMARK   21  A    between atoms: N_43  and  C_44
REMARK                            x       y       z     vdW  Elec       q    Type
REMARK                         _______ _______ _______ _____ _____    ______ ____
ROOT
ATOM      1  C   UNL     1       9.524  -2.024  24.140  0.00  0.00    +0.128 A 
ATOM      2  N   UNL     1       9.027  -1.564  22.944  0.00  0.00    -0.329 N 
ATOM      3  C   UNL     1       8.332  -2.357  21.957  0.00  0.00    +0.150 C 
ATOM      4  C   UNL     1       9.372  -0.239  22.826  0.00  0.00    +0.069 A 
ATOM      5  C   UNL     1       9.276   0.662  21.775  0.00  0.00    +0.029 A 
ATOM      6  C   UNL     1       9.827   1.932  21.984  0.00  0.00    +0.015 A 
ATOM      7  C   UNL     1      10.229   2.393  23.244  0.00  0.00    +0.039 A 
ATOM      8  C   UNL     1      10.349   1.440  24.279  0.00  0.00    +0.043 A 
ATOM      9  C   UNL     1       9.949   0.096  24.046  0.00  0.00    +0.090 A 
ATOM     10  N   UNL     1      10.030  -1.026  24.847  0.00  0.00    -0.231 NA
ENDROOT
BRANCH   7  11
ATOM     11  C   UNL     1      10.550   3.866  23.514  0.00  0.00    +0.252 C 
ATOM     12  N   UNL     1       9.538   4.849  23.670  0.00  0.00    -0.252 N 
ATOM     13  O   UNL     1      11.743   4.167  23.586  0.00  0.00    -0.270 OA
BRANCH  12  14
ATOM     14  C   UNL     1       8.150   4.575  23.696  0.00  0.00    +0.128 A 
ATOM     15  N   UNL     1       7.423   5.039  22.655  0.00  0.00    -0.240 NA
ATOM     16  C   UNL     1       6.130   4.663  22.580  0.00  0.00    +0.113 A 
ATOM     17  C   UNL     1       5.507   3.870  23.527  0.00  0.00    +0.020 A 
ATOM     18  C   UNL     1       6.244   3.469  24.634  0.00  0.00    +0.005 A 
ATOM     19  C   UNL     1       7.585   3.837  24.733  0.00  0.00    +0.044 A 
ENDBRANCH  12  14
BRANCH  12  20
ATOM     20  C   UNL     1       9.852   6.316  23.776  0.00  0.00    +0.126 C 
BRANCH  20  21
ATOM     21  C   UNL     1       9.092   6.944  24.956  0.00  0.00    +0.140 C 
BRANCH  21  22
ATOM     22  C   UNL     1       9.456   6.656  26.394  0.00  0.00    +0.309 C 
ATOM     23  O   UNL     1      10.546   7.012  26.839  0.00  0.00    -0.251 OA
BRANCH  22  24
ATOM     24  O   UNL     1       8.546   5.955  27.112  0.00  0.00    -0.465 OA
BRANCH  24  25
ATOM     25  C   UNL     1       7.398   6.727  27.543  0.00  0.00    +0.229 C 
ATOM     26  C   UNL     1       7.371   6.899  29.052  0.00  0.00    +0.048 C 
ENDBRANCH  24  25
ENDBRANCH  22  24
ENDBRANCH  21  22
ENDBRANCH  20  21
ENDBRANCH  12  20
ENDBRANCH   7  11
BRANCH   1  27
ATOM     27  C   UNL     1       9.502  -3.478  24.521  0.00  0.00    +0.176 C 
BRANCH  27  28
ATOM     28  N   UNL     1       8.647  -3.781  25.682  0.00  0.00    -0.337 N 
ATOM     29  H   UNL     1       8.402  -2.921  26.173  0.00  0.00    +0.147 HD
BRANCH  28  33
ATOM     30  C   UNL     1       5.166  -6.039  24.873  0.00  0.00    +0.064 A 
ATOM     31  C   UNL     1       5.579  -5.827  26.190  0.00  0.00    +0.017 A 
ATOM     32  C   UNL     1       6.743  -5.087  26.445  0.00  0.00    +0.024 A 
ATOM     33  C   UNL     1       7.489  -4.531  25.392  0.00  0.00    +0.027 A 
ATOM     34  C   UNL     1       7.106  -4.837  24.082  0.00  0.00    +0.024 A 
ATOM     35  C   UNL     1       5.940  -5.559  23.818  0.00  0.00    +0.017 A 
BRANCH  30  37
ATOM     36  N   UNL     1       3.405  -7.499  25.533  0.00  0.00    +0.065 NA
ATOM     37  C   UNL     1       3.908  -6.791  24.574  0.00  0.00    +0.314 C 
ATOM     38  N   UNL     1       3.392  -6.665  23.301  0.00  0.00    -0.248 N 
ATOM     39  H   UNL     1       3.541  -5.766  22.856  0.00  0.00    +0.288 HD
ATOM     40  H   UNL     1       2.414  -6.953  23.228  0.00  0.00    +0.288 HD
BRANCH  36  41
ATOM     41  C   UNL     1       2.266  -8.208  25.306  0.00  0.00    +0.542 C 
ATOM     42  O   UNL     1       2.127  -9.094  24.462  0.00  0.00    -0.198 OA
BRANCH  41  43
ATOM     43  O   UNL     1       1.289  -7.803  26.154  0.00  0.00    -0.430 OA
BRANCH  43  44
ATOM     44  C   UNL     1       1.720  -6.946  27.220  0.00  0.00    +0.236 C 
BRANCH  44  45
ATOM     45  C   UNL     1       1.130  -7.411  28.550  0.00  0.00    +0.041 C 
BRANCH  45  46
ATOM     46  C   UNL     1       2.227  -7.761  29.551  0.00  0.00    +0.003 C 
BRANCH  46  47
ATOM     47  C   UNL     1       3.536  -7.044  29.220  0.00  0.00    -0.000 C 
BRANCH  47  49
ATOM     48  C   UNL     1       3.540  -4.528  29.368  0.00  0.00    +0.004 C 
ATOM     49  C   UNL     1       3.746  -5.831  30.125  0.00  0.00    -0.003 C 
ENDBRANCH  47  49
ENDBRANCH  46  47
ENDBRANCH  45  46
ENDBRANCH  44  45
ENDBRANCH  43  44
ENDBRANCH  41  43
ENDBRANCH  36  41
ENDBRANCH  30  37
ENDBRANCH  28  33
ENDBRANCH  27  28
ENDBRANCH   1  27
TORSDOF 18
ENDMDL
MODEL 7
REMARK VINA RESULT:      -6.0      2.862     10.779
REMARK  Name = 
REMARK  21 active torsions:
REMARK  status: ('A' for Active; 'I' for Inactive)
REMARK    1  A    between atoms: C_1  and  C_2
REMARK    2  A    between atoms: C_2  and  C_3
REMARK    3  A    between atoms: C_3  and  C_4
REMARK    4  A    between atoms: C_4  and  C_5
REMARK    5  A    between atoms: C_5  and  C_6
REMARK    6  A    between atoms: C_6  and  O_7
REMARK    7  A    between atoms: O_7  and  C_8
REMARK    8  A    between atoms: C_8  and  N_10
REMARK    9  A    between atoms: C_11  and  C_13
REMARK   10  A    between atoms: C_16  and  N_17
REMARK   11  A    between atoms: N_17  and  C_18
REMARK   12  A    between atoms: C_18  and  C_19
REMARK   13  A    between atoms: C_25  and  C_27
REMARK   14  A    between atoms: N_29  and  C_30
REMARK   15  A    between atoms: N_29  and  C_37
REMARK   16  A    between atoms: C_30  and  C_31
REMARK   17  A    between atoms: C_31  and  C_32
REMARK   18  A    between atoms: C_32  and  O_34
REMARK   19  A    between atoms: O_34  and  C_35
REMARK   20  A    between atoms: C_35  and  C_36
REMARK   21  A    between atoms: N_43  and  C_44
REMARK                            x       y       z     vdW  Elec       q    Type
REMARK                         _______ _______ _______ _____ _____    ______ ____
ROOT
ATOM      1  C   UNL     1       3.053   1.026  27.732  0.00  0.00    +0.128 A 
ATOM      2  N   UNL     1       3.291   0.328  28.891  0.00  0.00    -0.329 N 
ATOM      3  C   UNL     1       3.442   0.903  30.208  0.00  0.00    +0.150 C 
ATOM      4  C   UNL     1       3.433  -0.998  28.562  0.00  0.00    +0.069 A 
ATOM      5  C   UNL     1       3.839  -2.106  29.295  0.00  0.00    +0.029 A 
ATOM      6  C   UNL     1       3.960  -3.312  28.595  0.00  0.00    +0.015 A 
ATOM      7  C   UNL     1       3.468  -3.495  27.297  0.00  0.00    +0.039 A 
ATOM      8  C   UNL     1       3.100  -2.342  26.570  0.00  0.00    +0.043 A 
ATOM      9  C   UNL     1       3.124  -1.072  27.209  0.00  0.00    +0.090 A 
ATOM     10  N   UNL     1       2.887   0.195  26.715  0.00  0.00    -0.231 NA
ENDROOT
BRANCH   7  11
ATOM     11  C   UNL     1       3.340  -4.881  26.657  0.00  0.00    +0.252 C 
ATOM     12  N   UNL     1       4.458  -5.587  26.140  0.00  0.00    -0.252 N 
ATOM     13  O   UNL     1       2.207  -5.362  26.605  0.00  0.00    -0.270 OA
BRANCH  12  14
ATOM     14  C   UNL     1       5.801  -5.152  26.243  0.00  0.00    +0.128 A 
ATOM     15  N   UNL     1       6.606  -5.863  27.064  0.00  0.00    -0.240 NA
ATOM     16  C   UNL     1       7.921  -5.562  27.063  0.00  0.00    +0.113 A 
ATOM     17  C   UNL     1       8.473  -4.545  26.305  0.00  0.00    +0.020 A 
ATOM     18  C   UNL     1       7.621  -3.768  25.529  0.00  0.00    +0.005 A 
ATOM     19  C   UNL     1       6.259  -4.062  25.505  0.00  0.00    +0.044 A 
ENDBRANCH  12  14
BRANCH  12  20
ATOM     20  C   UNL     1       4.313  -6.871  25.371  0.00  0.00    +0.126 C 
BRANCH  20  21
ATOM     21  C   UNL     1       4.627  -6.645  23.883  0.00  0.00    +0.140 C 
BRANCH  21  22
ATOM     22  C   UNL     1       3.921  -5.591  23.062  0.00  0.00    +0.309 C 
ATOM     23  O   UNL     1       2.693  -5.594  22.976  0.00  0.00    -0.251 OA
BRANCH  22  24
ATOM     24  O   UNL     1       4.716  -4.709  22.411  0.00  0.00    -0.465 OA
BRANCH  24  25
ATOM     25  C   UNL     1       6.066  -5.179  22.175  0.00  0.00    +0.229 C 
ATOM     26  C   UNL     1       6.232  -5.734  20.771  0.00  0.00    +0.048 C 
ENDBRANCH  24  25
ENDBRANCH  22  24
ENDBRANCH  21  22
ENDBRANCH  20  21
ENDBRANCH  12  20
ENDBRANCH   7  11
BRANCH   1  27
ATOM     27  C   UNL     1       3.032   2.528  27.681  0.00  0.00    +0.176 C 
BRANCH  27  28
ATOM     28  N   UNL     1       3.012   3.083  26.316  0.00  0.00    -0.337 N 
ATOM     29  H   UNL     1       2.612   4.021  26.323  0.00  0.00    +0.147 HD
BRANCH  28  33
ATOM     30  C   UNL     1       6.715   3.070  24.275  0.00  0.00    +0.064 A 
ATOM     31  C   UNL     1       5.524   2.856  23.577  0.00  0.00    +0.017 A 
ATOM     32  C   UNL     1       4.303   2.849  24.268  0.00  0.00    +0.024 A 
ATOM     33  C   UNL     1       4.257   3.083  25.653  0.00  0.00    +0.027 A 
ATOM     34  C   UNL     1       5.469   3.201  26.340  0.00  0.00    +0.024 A 
ATOM     35  C   UNL     1       6.688   3.225  25.660  0.00  0.00    +0.017 A 
BRANCH  30  37
ATOM     36  N   UNL     1       9.092   2.938  24.269  0.00  0.00    +0.065 NA
ATOM     37  C   UNL     1       8.026   3.121  23.558  0.00  0.00    +0.314 C 
ATOM     38  N   UNL     1       7.987   3.359  22.199  0.00  0.00    -0.248 N 
ATOM     39  H   UNL     1       7.179   2.984  21.713  0.00  0.00    +0.288 HD
ATOM     40  H   UNL     1       8.853   3.108  21.717  0.00  0.00    +0.288 HD
BRANCH  36  41
ATOM     41  C   UNL     1      10.309   2.985  23.662  0.00  0.00    +0.542 C 
ATOM     42  O   UNL     1      10.985   3.999  23.484  0.00  0.00    -0.198 OA
BRANCH  41  43
ATOM     43  O   UNL     1      10.685   1.740  23.278  0.00  0.00    -0.430 OA
BRANCH  43  44
ATOM     44  C   UNL     1      11.008   0.841  24.348  0.00  0.00    +0.236 C 
BRANCH  44  45
ATOM     45  C   UNL     1      10.065  -0.361  24.338  0.00  0.00    +0.041 C 
BRANCH  45  46
ATOM     46  C   UNL     1       9.330  -0.477  23.005  0.00  0.00    +0.003 C 
BRANCH  46  47
ATOM     47  C   UNL     1       7.820  -0.605  23.209  0.00  0.00    -0.000 C 
BRANCH  47  49
ATOM     48  C   UNL     1       5.938  -0.485  24.881  0.00  0.00    +0.004 C 
ATOM     49  C   UNL     1       7.445  -0.429  24.680  0.00  0.00    -0.003 C 
ENDBRANCH  47  49
ENDBRANCH  46  47
ENDBRANCH  45  46
ENDBRANCH  44  45
ENDBRANCH  43  44
ENDBRANCH  41  43
ENDBRANCH  36  41
ENDBRANCH  30  37
ENDBRANCH  28  33
ENDBRANCH  27  28
ENDBRANCH   1  27
TORSDOF 18
ENDMDL
MODEL 8
REMARK VINA RESULT:      -6.0      1.820     11.044
REMARK  Name = 
REMARK  21 active torsions:
REMARK  status: ('A' for Active; 'I' for Inactive)
REMARK    1  A    between atoms: C_1  and  C_2
REMARK    2  A    between atoms: C_2  and  C_3
REMARK    3  A    between atoms: C_3  and  C_4
REMARK    4  A    between atoms: C_4  and  C_5
REMARK    5  A    between atoms: C_5  and  C_6
REMARK    6  A    between atoms: C_6  and  O_7
REMARK    7  A    between atoms: O_7  and  C_8
REMARK    8  A    between atoms: C_8  and  N_10
REMARK    9  A    between atoms: C_11  and  C_13
REMARK   10  A    between atoms: C_16  and  N_17
REMARK   11  A    between atoms: N_17  and  C_18
REMARK   12  A    between atoms: C_18  and  C_19
REMARK   13  A    between atoms: C_25  and  C_27
REMARK   14  A    between atoms: N_29  and  C_30
REMARK   15  A    between atoms: N_29  and  C_37
REMARK   16  A    between atoms: C_30  and  C_31
REMARK   17  A    between atoms: C_31  and  C_32
REMARK   18  A    between atoms: C_32  and  O_34
REMARK   19  A    between atoms: O_34  and  C_35
REMARK   20  A    between atoms: C_35  and  C_36
REMARK   21  A    between atoms: N_43  and  C_44
REMARK                            x       y       z     vdW  Elec       q    Type
REMARK                         _______ _______ _______ _____ _____    ______ ____
ROOT
ATOM      1  C   UNL     1       8.534  -2.308  22.462  0.00  0.00    +0.128 A 
ATOM      2  N   UNL     1       8.691  -3.121  23.559  0.00  0.00    -0.329 N 
ATOM      3  C   UNL     1       9.908  -3.289  24.320  0.00  0.00    +0.150 C 
ATOM      4  C   UNL     1       7.511  -3.796  23.755  0.00  0.00    +0.069 A 
ATOM      5  C   UNL     1       7.160  -4.843  24.596  0.00  0.00    +0.029 A 
ATOM      6  C   UNL     1       5.864  -5.354  24.458  0.00  0.00    +0.015 A 
ATOM      7  C   UNL     1       4.866  -4.716  23.712  0.00  0.00    +0.039 A 
ATOM      8  C   UNL     1       5.267  -3.678  22.841  0.00  0.00    +0.043 A 
ATOM      9  C   UNL     1       6.621  -3.245  22.840  0.00  0.00    +0.090 A 
ATOM     10  N   UNL     1       7.276  -2.322  22.051  0.00  0.00    -0.231 NA
ENDROOT
BRANCH   7  11
ATOM     11  C   UNL     1       3.391  -5.116  23.804  0.00  0.00    +0.252 C 
ATOM     12  N   UNL     1       2.618  -4.910  24.977  0.00  0.00    -0.252 N 
ATOM     13  O   UNL     1       2.896  -5.635  22.802  0.00  0.00    -0.270 OA
BRANCH  12  14
ATOM     14  C   UNL     1       3.079  -4.238  26.134  0.00  0.00    +0.128 A 
ATOM     15  N   UNL     1       3.589  -5.011  27.120  0.00  0.00    -0.240 NA
ATOM     16  C   UNL     1       4.171  -4.386  28.164  0.00  0.00    +0.113 A 
ATOM     17  C   UNL     1       4.233  -3.011  28.296  0.00  0.00    +0.020 A 
ATOM     18  C   UNL     1       3.631  -2.230  27.317  0.00  0.00    +0.005 A 
ATOM     19  C   UNL     1       3.029  -2.848  26.222  0.00  0.00    +0.044 A 
ENDBRANCH  12  14
BRANCH  12  20
ATOM     20  C   UNL     1       1.221  -5.446  25.123  0.00  0.00    +0.126 C 
BRANCH  20  21
ATOM     21  C   UNL     1       1.253  -6.928  25.530  0.00  0.00    +0.140 C 
BRANCH  21  22
ATOM     22  C   UNL     1       1.339  -8.041  24.511  0.00  0.00    +0.309 C 
ATOM     23  O   UNL     1       2.215  -8.900  24.605  0.00  0.00    -0.251 OA
BRANCH  22  24
ATOM     24  O   UNL     1       0.444  -7.991  23.495  0.00  0.00    -0.465 OA
BRANCH  24  25
ATOM     25  C   UNL     1       0.878  -8.652  22.281  0.00  0.00    +0.229 C 
ATOM     26  C   UNL     1       0.447  -7.889  21.040  0.00  0.00    +0.048 C 
ENDBRANCH  24  25
ENDBRANCH  22  24
ENDBRANCH  21  22
ENDBRANCH  20  21
ENDBRANCH  12  20
ENDBRANCH   7  11
BRANCH   1  27
ATOM     27  C   UNL     1       9.679  -1.561  21.838  0.00  0.00    +0.176 C 
BRANCH  27  28
ATOM     28  N   UNL     1       9.272  -0.373  21.069  0.00  0.00    -0.337 N 
ATOM     29  H   UNL     1       8.382  -0.544  20.600  0.00  0.00    +0.147 HD
BRANCH  28  33
ATOM     30  C   UNL     1       9.160   3.209  23.311  0.00  0.00    +0.064 A 
ATOM     31  C   UNL     1      10.188   2.285  23.510  0.00  0.00    +0.017 A 
ATOM     32  C   UNL     1      10.207   1.094  22.768  0.00  0.00    +0.024 A 
ATOM     33  C   UNL     1       9.218   0.827  21.806  0.00  0.00    +0.027 A 
ATOM     34  C   UNL     1       8.151   1.725  21.695  0.00  0.00    +0.024 A 
ATOM     35  C   UNL     1       8.132   2.920  22.416  0.00  0.00    +0.017 A 
BRANCH  30  37
ATOM     36  N   UNL     1       8.549   4.506  25.213  0.00  0.00    +0.065 NA
ATOM     37  C   UNL     1       9.137   4.504  24.060  0.00  0.00    +0.314 C 
ATOM     38  N   UNL     1       9.744   5.586  23.456  0.00  0.00    -0.248 N 
ATOM     39  H   UNL     1      10.551   5.369  22.880  0.00  0.00    +0.288 HD
ATOM     40  H   UNL     1       9.951   6.350  24.102  0.00  0.00    +0.288 HD
BRANCH  36  41
ATOM     41  C   UNL     1       8.495   5.664  25.926  0.00  0.00    +0.542 C 
ATOM     42  O   UNL     1       9.463   6.344  26.267  0.00  0.00    -0.198 OA
BRANCH  41  43
ATOM     43  O   UNL     1       7.206   5.975  26.209  0.00  0.00    -0.430 OA
BRANCH  43  44
ATOM     44  C   UNL     1       6.226   5.360  25.361  0.00  0.00    +0.236 C 
BRANCH  44  45
ATOM     45  C   UNL     1       5.041   4.864  26.186  0.00  0.00    +0.041 C 
BRANCH  45  46
ATOM     46  C   UNL     1       4.958   3.341  26.177  0.00  0.00    +0.003 C 
BRANCH  46  47
ATOM     47  C   UNL     1       4.981   2.788  24.752  0.00  0.00    -0.000 C 
BRANCH  47  49
ATOM     48  C   UNL     1       6.878   1.383  25.632  0.00  0.00    +0.004 C 
ATOM     49  C   UNL     1       5.680   1.431  24.697  0.00  0.00    -0.003 C 
ENDBRANCH  47  49
ENDBRANCH  46  47
ENDBRANCH  45  46
ENDBRANCH  44  45
ENDBRANCH  43  44
ENDBRANCH  41  43
ENDBRANCH  36  41
ENDBRANCH  30  37
ENDBRANCH  28  33
ENDBRANCH  27  28
ENDBRANCH   1  27
TORSDOF 18
ENDMDL
MODEL 9
REMARK VINA RESULT:      -5.9      2.125     10.693
REMARK  Name = 
REMARK  21 active torsions:
REMARK  status: ('A' for Active; 'I' for Inactive)
REMARK    1  A    between atoms: C_1  and  C_2
REMARK    2  A    between atoms: C_2  and  C_3
REMARK    3  A    between atoms: C_3  and  C_4
REMARK    4  A    between atoms: C_4  and  C_5
REMARK    5  A    between atoms: C_5  and  C_6
REMARK    6  A    between atoms: C_6  and  O_7
REMARK    7  A    between atoms: O_7  and  C_8
REMARK    8  A    between atoms: C_8  and  N_10
REMARK    9  A    between atoms: C_11  and  C_13
REMARK   10  A    between atoms: C_16  and  N_17
REMARK   11  A    between atoms: N_17  and  C_18
REMARK   12  A    between atoms: C_18  and  C_19
REMARK   13  A    between atoms: C_25  and  C_27
REMARK   14  A    between atoms: N_29  and  C_30
REMARK   15  A    between atoms: N_29  and  C_37
REMARK   16  A    between atoms: C_30  and  C_31
REMARK   17  A    between atoms: C_31  and  C_32
REMARK   18  A    between atoms: C_32  and  O_34
REMARK   19  A    between atoms: O_34  and  C_35
REMARK   20  A    between atoms: C_35  and  C_36
REMARK   21  A    between atoms: N_43  and  C_44
REMARK                            x       y       z     vdW  Elec       q    Type
REMARK                         _______ _______ _______ _____ _____    ______ ____
ROOT
ATOM      1  C   UNL     1       8.774  -3.084  24.474  0.00  0.00    +0.128 A 
ATOM      2  N   UNL     1       8.964  -4.212  25.236  0.00  0.00    -0.329 N 
ATOM      3  C   UNL     1      10.186  -4.977  25.322  0.00  0.00    +0.150 C 
ATOM      4  C   UNL     1       7.769  -4.519  25.840  0.00  0.00    +0.069 A 
ATOM      5  C   UNL     1       7.346  -5.620  26.572  0.00  0.00    +0.029 A 
ATOM      6  C   UNL     1       6.001  -5.637  26.960  0.00  0.00    +0.015 A 
ATOM      7  C   UNL     1       5.162  -4.521  26.861  0.00  0.00    +0.039 A 
ATOM      8  C   UNL     1       5.612  -3.435  26.078  0.00  0.00    +0.043 A 
ATOM      9  C   UNL     1       6.923  -3.460  25.529  0.00  0.00    +0.090 A 
ATOM     10  N   UNL     1       7.568  -2.580  24.684  0.00  0.00    -0.231 NA
ENDROOT
BRANCH   7  11
ATOM     11  C   UNL     1       3.796  -4.458  27.551  0.00  0.00    +0.252 C 
ATOM     12  N   UNL     1       2.611  -4.942  26.937  0.00  0.00    -0.252 N 
ATOM     13  O   UNL     1       3.768  -3.958  28.676  0.00  0.00    -0.270 OA
BRANCH  12  14
ATOM     14  C   UNL     1       2.568  -5.614  25.693  0.00  0.00    +0.128 A 
ATOM     15  N   UNL     1       2.414  -6.957  25.735  0.00  0.00    -0.240 NA
ATOM     16  C   UNL     1       2.219  -7.600  24.566  0.00  0.00    +0.113 A 
ATOM     17  C   UNL     1       2.210  -6.967  23.336  0.00  0.00    +0.020 A 
ATOM     18  C   UNL     1       2.452  -5.599  23.300  0.00  0.00    +0.005 A 
ATOM     19  C   UNL     1       2.649  -4.908  24.494  0.00  0.00    +0.044 A 
ENDBRANCH  12  14
BRANCH  12  20
ATOM     20  C   UNL     1       1.250  -4.737  27.544  0.00  0.00    +0.126 C 
BRANCH  20  21
ATOM     21  C   UNL     1       0.456  -3.695  26.740  0.00  0.00    +0.140 C 
BRANCH  21  22
ATOM     22  C   UNL     1       0.903  -2.256  26.624  0.00  0.00    +0.309 C 
ATOM     23  O   UNL     1       0.774  -1.652  25.560  0.00  0.00    -0.251 OA
BRANCH  22  24
ATOM     24  O   UNL     1       1.483  -1.720  27.724  0.00  0.00    -0.465 OA
BRANCH  24  25
ATOM     25  C   UNL     1       2.606  -0.848  27.446  0.00  0.00    +0.229 C 
ATOM     26  C   UNL     1       3.387  -0.517  28.706  0.00  0.00    +0.048 C 
ENDBRANCH  24  25
ENDBRANCH  22  24
ENDBRANCH  21  22
ENDBRANCH  20  21
ENDBRANCH  12  20
ENDBRANCH   7  11
BRANCH   1  27
ATOM     27  C   UNL     1       9.815  -2.565  23.523  0.00  0.00    +0.176 C 
BRANCH  27  28
ATOM     28  N   UNL     1       9.301  -1.594  22.542  0.00  0.00    -0.337 N 
ATOM     29  H   UNL     1       8.286  -1.667  22.471  0.00  0.00    +0.147 HD
BRANCH  28  33
ATOM     30  C   UNL     1      10.431   2.433  23.165  0.00  0.00    +0.064 A 
ATOM     31  C   UNL     1       9.906   2.030  21.935  0.00  0.00    +0.017 A 
ATOM     32  C   UNL     1       9.548   0.688  21.736  0.00  0.00    +0.024 A 
ATOM     33  C   UNL     1       9.683  -0.255  22.769  0.00  0.00    +0.027 A 
ATOM     34  C   UNL     1      10.296   0.155  23.957  0.00  0.00    +0.024 A 
ATOM     35  C   UNL     1      10.642   1.491  24.170  0.00  0.00    +0.017 A 
BRANCH  30  37
ATOM     36  N   UNL     1      10.001   4.534  24.199  0.00  0.00    +0.065 NA
ATOM     37  C   UNL     1      10.785   3.864  23.417  0.00  0.00    +0.314 C 
ATOM     38  N   UNL     1      11.917   4.347  22.793  0.00  0.00    -0.248 N 
ATOM     39  H   UNL     1      12.665   3.674  22.664  0.00  0.00    +0.288 HD
ATOM     40  H   UNL     1      12.270   5.213  23.205  0.00  0.00    +0.288 HD
BRANCH  36  41
ATOM     41  C   UNL     1      10.278   5.843  24.450  0.00  0.00    +0.542 C 
ATOM     42  O   UNL     1      11.404   6.333  24.551  0.00  0.00    -0.198 OA
BRANCH  41  43
ATOM     43  O   UNL     1       9.125   6.547  24.571  0.00  0.00    -0.430 OA
BRANCH  43  44
ATOM     44  C   UNL     1       8.435   6.806  23.341  0.00  0.00    +0.236 C 
BRANCH  44  45
ATOM     45  C   UNL     1       7.045   6.173  23.367  0.00  0.00    +0.041 C 
BRANCH  45  46
ATOM     46  C   UNL     1       6.789   5.347  22.110  0.00  0.00    +0.003 C 
BRANCH  46  47
ATOM     47  C   UNL     1       6.950   3.851  22.382  0.00  0.00    -0.000 C 
BRANCH  47  49
ATOM     48  C   UNL     1       6.833   2.044  24.134  0.00  0.00    +0.004 C 
ATOM     49  C   UNL     1       6.557   3.505  23.817  0.00  0.00    -0.003 C 
ENDBRANCH  47  49
ENDBRANCH  46  47
ENDBRANCH  45  46
ENDBRANCH  44  45
ENDBRANCH  43  44
ENDBRANCH  41  43
ENDBRANCH  36  41
ENDBRANCH  30  37
ENDBRANCH  28  33
ENDBRANCH  27  28
ENDBRANCH   1  27
TORSDOF 18
ENDMDL
