MODEL 1
REMARK VINA RESULT:      -5.9      0.000      0.000
REMARK  Name = 
REMARK  7 active torsions:
REMARK  status: ('A' for Active; 'I' for Inactive)
REMARK    1  A    between atoms: N_2  and  C_3
REMARK    2  A    between atoms: N_2  and  N_10
REMARK    3  A    between atoms: C_3  and  C_4
REMARK    4  A    between atoms: C_12  and  C_14
REMARK    5  A    between atoms: C_14  and  C_15
REMARK    6  A    between atoms: C_14  and  C_16
REMARK    7  A    between atoms: C_14  and  C_17
REMARK                            x       y       z     vdW  Elec       q    Type
REMARK                         _______ _______ _______ _____ _____    ______ ____
ROOT
ATOM      1  H   UNL     1       9.860  -3.383  24.536  0.00  0.00    +0.145 HD
ATOM      2  N   UNL     1       9.356  -2.591  24.113  0.00  0.00    -0.236 NA
ENDROOT
BRANCH   2   3
ATOM      3  N   UNL     1       8.196  -3.118  23.497  0.00  0.00    -0.250 N 
ATOM      4  C   UNL     1       7.964  -4.489  23.526  0.00  0.00    +0.232 C 
ATOM      5  O   UNL     1       8.754  -5.273  24.054  0.00  0.00    -0.274 OA
ATOM      6  H   UNL     1       7.520  -2.471  23.105  0.00  0.00    +0.169 HD
BRANCH   4   7
ATOM      7  C   UNL     1       6.652  -4.939  22.856  0.00  0.00    +0.040 C 
ATOM      8  C   UNL     1       6.956  -6.006  21.794  0.00  0.00    +0.020 C 
ATOM      9  C   UNL     1       5.985  -3.734  22.172  0.00  0.00    +0.020 C 
ATOM     10  C   UNL     1       5.685  -5.503  23.908  0.00  0.00    +0.020 C 
ENDBRANCH   4   7
ENDBRANCH   2   3
BRANCH   2  11
ATOM     11  C   UNL     1      10.247  -2.010  23.099  0.00  0.00    +0.137 C 
BRANCH  11  12
ATOM     12  C   UNL     1      10.186  -0.498  23.029  0.00  0.00    -0.032 A 
ATOM     13  C   UNL     1       9.790   0.184  21.869  0.00  0.00    +0.005 A 
ATOM     14  C   UNL     1       9.795   1.582  21.831  0.00  0.00    +0.000 A 
ATOM     15  C   UNL     1      10.210   2.311  22.943  0.00  0.00    +0.000 A 
ATOM     16  C   UNL     1      10.625   1.647  24.093  0.00  0.00    +0.000 A 
ATOM     17  C   UNL     1      10.616   0.251  24.135  0.00  0.00    +0.005 A 
ENDBRANCH  11  12
ENDBRANCH   2  11
TORSDOF 4
ENDMDL
MODEL 2
REMARK VINA RESULT:      -5.9      0.059      1.247
REMARK  Name = 
REMARK  7 active torsions:
REMARK  status: ('A' for Active; 'I' for Inactive)
REMARK    1  A    between atoms: N_2  and  C_3
REMARK    2  A    between atoms: N_2  and  N_10
REMARK    3  A    between atoms: C_3  and  C_4
REMARK    4  A    between atoms: C_12  and  C_14
REMARK    5  A    between atoms: C_14  and  C_15
REMARK    6  A    between atoms: C_14  and  C_16
REMARK    7  A    between atoms: C_14  and  C_17
REMARK                            x       y       z     vdW  Elec       q    Type
REMARK                         _______ _______ _______ _____ _____    ______ ____
ROOT
ATOM      1  H   UNL     1       9.837  -3.300  24.512  0.00  0.00    +0.145 HD
ATOM      2  N   UNL     1       9.320  -2.529  24.066  0.00  0.00    -0.236 NA
ENDROOT
BRANCH   2   3
ATOM      3  N   UNL     1       8.164  -3.091  23.475  0.00  0.00    -0.250 N 
ATOM      4  C   UNL     1       7.959  -4.465  23.534  0.00  0.00    +0.232 C 
ATOM      5  O   UNL     1       8.770  -5.222  24.068  0.00  0.00    -0.274 OA
ATOM      6  H   UNL     1       7.471  -2.464  23.079  0.00  0.00    +0.169 HD
BRANCH   4   7
ATOM      7  C   UNL     1       6.648  -4.953  22.889  0.00  0.00    +0.040 C 
ATOM      8  C   UNL     1       6.963  -6.012  21.822  0.00  0.00    +0.020 C 
ATOM      9  C   UNL     1       5.934  -3.768  22.216  0.00  0.00    +0.020 C 
ATOM     10  C   UNL     1       5.717  -5.544  23.959  0.00  0.00    +0.020 C 
ENDBRANCH   4   7
ENDBRANCH   2   3
BRANCH   2  11
ATOM     11  C   UNL     1      10.199  -1.971  23.028  0.00  0.00    +0.137 C 
BRANCH  11  12
ATOM     12  C   UNL     1      10.245  -0.457  23.020  0.00  0.00    -0.032 A 
ATOM     13  C   UNL     1      10.627   0.289  24.144  0.00  0.00    +0.005 A 
ATOM     14  C   UNL     1      10.608   1.687  24.110  0.00  0.00    +0.000 A 
ATOM     15  C   UNL     1      10.190   2.353  22.960  0.00  0.00    +0.000 A 
ATOM     16  C   UNL     1       9.788   1.626  21.844  0.00  0.00    +0.000 A 
ATOM     17  C   UNL     1       9.812   0.230  21.875  0.00  0.00    +0.005 A 
ENDBRANCH  11  12
ENDBRANCH   2  11
TORSDOF 4
ENDMDL
MODEL 3
REMARK VINA RESULT:      -5.8      1.564      5.949
REMARK  Name = 
REMARK  7 active torsions:
REMARK  status: ('A' for Active; 'I' for Inactive)
REMARK    1  A    between atoms: N_2  and  C_3
REMARK    2  A    between atoms: N_2  and  N_10
REMARK    3  A    between atoms: C_3  and  C_4
REMARK    4  A    between atoms: C_12  and  C_14
REMARK    5  A    between atoms: C_14  and  C_15
REMARK    6  A    between atoms: C_14  and  C_16
REMARK    7  A    between atoms: C_14  and  C_17
REMARK                            x       y       z     vdW  Elec       q    Type
REMARK                         _______ _______ _______ _____ _____    ______ ____
ROOT
ATOM      1  H   UNL     1      10.607  -3.666  24.859  0.00  0.00    +0.145 HD
ATOM      2  N   UNL     1       9.917  -3.364  24.156  0.00  0.00    -0.236 NA
ENDROOT
BRANCH   2   3
ATOM      3  N   UNL     1       9.832  -1.954  24.236  0.00  0.00    -0.250 N 
ATOM      4  C   UNL     1       9.955  -1.189  23.081  0.00  0.00    +0.232 C 
ATOM      5  O   UNL     1      10.162  -1.702  21.980  0.00  0.00    -0.274 OA
ATOM      6  H   UNL     1       9.612  -1.533  25.134  0.00  0.00    +0.169 HD
BRANCH   4   7
ATOM      7  C   UNL     1       9.808   0.330  23.290  0.00  0.00    +0.040 C 
ATOM      8  C   UNL     1      10.872   0.819  24.282  0.00  0.00    +0.020 C 
ATOM      9  C   UNL     1       8.415   0.637  23.865  0.00  0.00    +0.020 C 
ATOM     10  C   UNL     1       9.958   1.067  21.950  0.00  0.00    +0.020 C 
ENDBRANCH   4   7
ENDBRANCH   2   3
BRANCH   2  11
ATOM     11  C   UNL     1       8.632  -3.971  24.532  0.00  0.00    +0.137 C 
BRANCH  11  12
ATOM     12  C   UNL     1       7.764  -4.337  23.346  0.00  0.00    -0.032 A 
ATOM     13  C   UNL     1       6.923  -3.409  22.715  0.00  0.00    +0.005 A 
ATOM     14  C   UNL     1       6.100  -3.801  21.654  0.00  0.00    +0.000 A 
ATOM     15  C   UNL     1       6.095  -5.126  21.226  0.00  0.00    +0.000 A 
ATOM     16  C   UNL     1       6.908  -6.063  21.856  0.00  0.00    +0.000 A 
ATOM     17  C   UNL     1       7.735  -5.672  22.912  0.00  0.00    +0.005 A 
ENDBRANCH  11  12
ENDBRANCH   2  11
TORSDOF 4
ENDMDL
MODEL 4
REMARK VINA RESULT:      -5.7      1.633      2.152
REMARK  Name = 
REMARK  7 active torsions:
REMARK  status: ('A' for Active; 'I' for Inactive)
REMARK    1  A    between atoms: N_2  and  C_3
REMARK    2  A    between atoms: N_2  and  N_10
REMARK    3  A    between atoms: C_3  and  C_4
REMARK    4  A    between atoms: C_12  and  C_14
REMARK    5  A    between atoms: C_14  and  C_15
REMARK    6  A    between atoms: C_14  and  C_16
REMARK    7  A    between atoms: C_14  and  C_17
REMARK                            x       y       z     vdW  Elec       q    Type
REMARK                         _______ _______ _______ _____ _____    ______ ____
ROOT
ATOM      1  H   UNL     1       7.811  -1.601  23.546  0.00  0.00    +0.145 HD
ATOM      2  N   UNL     1       7.795  -1.889  22.557  0.00  0.00    -0.236 NA
ENDROOT
BRANCH   2   3
ATOM      3  N   UNL     1       7.594  -3.290  22.536  0.00  0.00    -0.250 N 
ATOM      4  C   UNL     1       6.386  -3.805  22.077  0.00  0.00    +0.232 C 
ATOM      5  O   UNL     1       5.466  -3.076  21.707  0.00  0.00    -0.274 OA
ATOM      6  H   UNL     1       8.369  -3.894  22.793  0.00  0.00    +0.169 HD
BRANCH   4   7
ATOM      7  C   UNL     1       6.300  -5.343  22.067  0.00  0.00    +0.040 C 
ATOM      8  C   UNL     1       7.594  -5.936  22.643  0.00  0.00    +0.020 C 
ATOM      9  C   UNL     1       6.129  -5.838  20.621  0.00  0.00    +0.020 C 
ATOM     10  C   UNL     1       5.092  -5.813  22.892  0.00  0.00    +0.020 C 
ENDBRANCH   4   7
ENDBRANCH   2   3
BRANCH   2  11
ATOM     11  C   UNL     1       9.112  -1.559  21.995  0.00  0.00    +0.137 C 
BRANCH  11  12
ATOM     12  C   UNL     1       9.709  -0.283  22.552  0.00  0.00    -0.032 A 
ATOM     13  C   UNL     1      10.262  -0.212  23.839  0.00  0.00    +0.005 A 
ATOM     14  C   UNL     1      10.757   0.999  24.334  0.00  0.00    +0.000 A 
ATOM     15  C   UNL     1      10.689   2.152  23.557  0.00  0.00    +0.000 A 
ATOM     16  C   UNL     1      10.124   2.102  22.287  0.00  0.00    +0.000 A 
ATOM     17  C   UNL     1       9.634   0.893  21.788  0.00  0.00    +0.005 A 
ENDBRANCH  11  12
ENDBRANCH   2  11
TORSDOF 4
ENDMDL
MODEL 5
REMARK VINA RESULT:      -5.6      1.518      2.396
REMARK  Name = 
REMARK  7 active torsions:
REMARK  status: ('A' for Active; 'I' for Inactive)
REMARK    1  A    between atoms: N_2  and  C_3
REMARK    2  A    between atoms: N_2  and  N_10
REMARK    3  A    between atoms: C_3  and  C_4
REMARK    4  A    between atoms: C_12  and  C_14
REMARK    5  A    between atoms: C_14  and  C_15
REMARK    6  A    between atoms: C_14  and  C_16
REMARK    7  A    between atoms: C_14  and  C_17
REMARK                            x       y       z     vdW  Elec       q    Type
REMARK                         _______ _______ _______ _____ _____    ______ ____
ROOT
ATOM      1  H   UNL     1      10.429  -3.756  23.488  0.00  0.00    +0.145 HD
ATOM      2  N   UNL     1      10.124  -2.851  23.874  0.00  0.00    -0.236 NA
ENDROOT
BRANCH   2   3
ATOM      3  N   UNL     1       9.026  -3.112  24.728  0.00  0.00    -0.250 N 
ATOM      4  C   UNL     1       8.382  -4.343  24.665  0.00  0.00    +0.232 C 
ATOM      5  O   UNL     1       8.723  -5.217  23.866  0.00  0.00    -0.274 OA
ATOM      6  H   UNL     1       8.776  -2.414  25.420  0.00  0.00    +0.169 HD
BRANCH   4   7
ATOM      7  C   UNL     1       7.227  -4.523  25.667  0.00  0.00    +0.040 C 
ATOM      8  C   UNL     1       7.745  -5.226  26.930  0.00  0.00    +0.020 C 
ATOM      9  C   UNL     1       6.126  -5.390  25.033  0.00  0.00    +0.020 C 
ATOM     10  C   UNL     1       6.625  -3.158  26.034  0.00  0.00    +0.020 C 
ENDBRANCH   4   7
ENDBRANCH   2   3
BRANCH   2  11
ATOM     11  C   UNL     1       9.696  -2.025  22.736  0.00  0.00    +0.137 C 
BRANCH  11  12
ATOM     12  C   UNL     1       9.978  -0.548  22.917  0.00  0.00    -0.032 A 
ATOM     13  C   UNL     1      10.401  -0.008  24.141  0.00  0.00    +0.005 A 
ATOM     14  C   UNL     1      10.602   1.369  24.278  0.00  0.00    +0.000 A 
ATOM     15  C   UNL     1      10.368   2.221  23.202  0.00  0.00    +0.000 A 
ATOM     16  C   UNL     1       9.928   1.702  21.989  0.00  0.00    +0.000 A 
ATOM     17  C   UNL     1       9.731   0.327  21.847  0.00  0.00    +0.005 A 
ENDBRANCH  11  12
ENDBRANCH   2  11
TORSDOF 4
ENDMDL
MODEL 6
REMARK VINA RESULT:      -5.4      1.765      2.331
REMARK  Name = 
REMARK  7 active torsions:
REMARK  status: ('A' for Active; 'I' for Inactive)
REMARK    1  A    between atoms: N_2  and  C_3
REMARK    2  A    between atoms: N_2  and  N_10
REMARK    3  A    between atoms: C_3  and  C_4
REMARK    4  A    between atoms: C_12  and  C_14
REMARK    5  A    between atoms: C_14  and  C_15
REMARK    6  A    between atoms: C_14  and  C_16
REMARK    7  A    between atoms: C_14  and  C_17
REMARK                            x       y       z     vdW  Elec       q    Type
REMARK                         _______ _______ _______ _____ _____    ______ ____
ROOT
ATOM      1  H   UNL     1       7.646  -1.311  22.719  0.00  0.00    +0.145 HD
ATOM      2  N   UNL     1       8.106  -2.079  22.209  0.00  0.00    -0.236 NA
ENDROOT
BRANCH   2   3
ATOM      3  N   UNL     1       8.066  -3.217  23.049  0.00  0.00    -0.250 N 
ATOM      4  C   UNL     1       7.699  -3.077  24.383  0.00  0.00    +0.232 C 
ATOM      5  O   UNL     1       7.427  -1.979  24.872  0.00  0.00    -0.274 OA
ATOM      6  H   UNL     1       8.241  -4.128  22.637  0.00  0.00    +0.169 HD
BRANCH   4   7
ATOM      7  C   UNL     1       7.656  -4.390  25.186  0.00  0.00    +0.040 C 
ATOM      8  C   UNL     1       7.531  -4.074  26.684  0.00  0.00    +0.020 C 
ATOM      9  C   UNL     1       8.957  -5.178  24.952  0.00  0.00    +0.020 C 
ATOM     10  C   UNL     1       6.471  -5.254  24.729  0.00  0.00    +0.020 C 
ENDBRANCH   4   7
ENDBRANCH   2   3
BRANCH   2  11
ATOM     11  C   UNL     1       9.498  -1.666  21.983  0.00  0.00    +0.137 C 
BRANCH  11  12
ATOM     12  C   UNL     1       9.830  -0.305  22.557  0.00  0.00    -0.032 A 
ATOM     13  C   UNL     1       9.731   0.874  21.803  0.00  0.00    +0.005 A 
ATOM     14  C   UNL     1      10.095   2.105  22.357  0.00  0.00    +0.000 A 
ATOM     15  C   UNL     1      10.578   2.169  23.662  0.00  0.00    +0.000 A 
ATOM     16  C   UNL     1      10.701   1.007  24.415  0.00  0.00    +0.000 A 
ATOM     17  C   UNL     1      10.334  -0.224  23.866  0.00  0.00    +0.005 A 
ENDBRANCH  11  12
ENDBRANCH   2  11
TORSDOF 4
ENDMDL
MODEL 7
REMARK VINA RESULT:      -5.4      2.088      6.333
REMARK  Name = 
REMARK  7 active torsions:
REMARK  status: ('A' for Active; 'I' for Inactive)
REMARK    1  A    between atoms: N_2  and  C_3
REMARK    2  A    between atoms: N_2  and  N_10
REMARK    3  A    between atoms: C_3  and  C_4
REMARK    4  A    between atoms: C_12  and  C_14
REMARK    5  A    between atoms: C_14  and  C_15
REMARK    6  A    between atoms: C_14  and  C_16
REMARK    7  A    between atoms: C_14  and  C_17
REMARK                            x       y       z     vdW  Elec       q    Type
REMARK                         _______ _______ _______ _____ _____    ______ ____
ROOT
ATOM      1  H   UNL     1       9.806  -3.865  25.216  0.00  0.00    +0.145 HD
ATOM      2  N   UNL     1       9.650  -3.529  24.255  0.00  0.00    -0.236 NA
ENDROOT
BRANCH   2   3
ATOM      3  N   UNL     1       9.534  -2.120  24.321  0.00  0.00    -0.250 N 
ATOM      4  C   UNL     1      10.074  -1.336  23.307  0.00  0.00    +0.232 C 
ATOM      5  O   UNL     1      10.678  -1.830  22.353  0.00  0.00    -0.274 OA
ATOM      6  H   UNL     1       8.994  -1.715  25.079  0.00  0.00    +0.169 HD
BRANCH   4   7
ATOM      7  C   UNL     1       9.852   0.179  23.470  0.00  0.00    +0.040 C 
ATOM      8  C   UNL     1       9.953   0.865  22.100  0.00  0.00    +0.020 C 
ATOM      9  C   UNL     1      10.934   0.760  24.397  0.00  0.00    +0.020 C 
ATOM     10  C   UNL     1       8.475   0.450  24.095  0.00  0.00    +0.020 C 
ENDBRANCH   4   7
ENDBRANCH   2   3
BRANCH   2  11
ATOM     11  C   UNL     1       8.384  -4.120  23.797  0.00  0.00    +0.137 C 
BRANCH  11  12
ATOM     12  C   UNL     1       7.565  -4.741  24.909  0.00  0.00    -0.032 A 
ATOM     13  C   UNL     1       6.236  -5.149  24.726  0.00  0.00    +0.005 A 
ATOM     14  C   UNL     1       5.500  -5.672  25.793  0.00  0.00    +0.000 A 
ATOM     15  C   UNL     1       6.076  -5.777  27.057  0.00  0.00    +0.000 A 
ATOM     16  C   UNL     1       7.387  -5.357  27.258  0.00  0.00    +0.000 A 
ATOM     17  C   UNL     1       8.126  -4.839  26.193  0.00  0.00    +0.005 A 
ENDBRANCH  11  12
ENDBRANCH   2  11
TORSDOF 4
ENDMDL
MODEL 8
REMARK VINA RESULT:      -5.3      1.930      2.445
REMARK  Name = 
REMARK  7 active torsions:
REMARK  status: ('A' for Active; 'I' for Inactive)
REMARK    1  A    between atoms: N_2  and  C_3
REMARK    2  A    between atoms: N_2  and  N_10
REMARK    3  A    between atoms: C_3  and  C_4
REMARK    4  A    between atoms: C_12  and  C_14
REMARK    5  A    between atoms: C_14  and  C_15
REMARK    6  A    between atoms: C_14  and  C_16
REMARK    7  A    between atoms: C_14  and  C_17
REMARK                            x       y       z     vdW  Elec       q    Type
REMARK                         _______ _______ _______ _____ _____    ______ ____
ROOT
ATOM      1  H   UNL     1       5.386  -1.155  22.863  0.00  0.00    +0.145 HD
ATOM      2  N   UNL     1       6.414  -1.218  22.854  0.00  0.00    -0.236 NA
ENDROOT
BRANCH   2   3
ATOM      3  N   UNL     1       6.750  -2.561  23.147  0.00  0.00    -0.250 N 
ATOM      4  C   UNL     1       6.194  -3.591  22.396  0.00  0.00    +0.232 C 
ATOM      5  O   UNL     1       5.390  -3.373  21.488  0.00  0.00    -0.274 OA
ATOM      6  H   UNL     1       7.450  -2.739  23.861  0.00  0.00    +0.169 HD
BRANCH   4   7
ATOM      7  C   UNL     1       6.664  -5.005  22.784  0.00  0.00    +0.040 C 
ATOM      8  C   UNL     1       5.541  -5.732  23.539  0.00  0.00    +0.020 C 
ATOM      9  C   UNL     1       7.893  -4.903  23.703  0.00  0.00    +0.020 C 
ATOM     10  C   UNL     1       7.054  -5.799  21.528  0.00  0.00    +0.020 C 
ENDBRANCH   4   7
ENDBRANCH   2   3
BRANCH   2  11
ATOM     11  C   UNL     1       6.905  -0.330  23.917  0.00  0.00    +0.137 C 
BRANCH  11  12
ATOM     12  C   UNL     1       8.059   0.552  23.487  0.00  0.00    -0.032 A 
ATOM     13  C   UNL     1       8.549   0.560  22.172  0.00  0.00    +0.005 A 
ATOM     14  C   UNL     1       9.649   1.353  21.829  0.00  0.00    +0.000 A 
ATOM     15  C   UNL     1      10.280   2.131  22.797  0.00  0.00    +0.000 A 
ATOM     16  C   UNL     1       9.818   2.117  24.108  0.00  0.00    +0.000 A 
ATOM     17  C   UNL     1       8.716   1.330  24.453  0.00  0.00    +0.005 A 
ENDBRANCH  11  12
ENDBRANCH   2  11
TORSDOF 4
ENDMDL
MODEL 9
REMARK VINA RESULT:      -5.1      4.245      7.124
REMARK  Name = 
REMARK  7 active torsions:
REMARK  status: ('A' for Active; 'I' for Inactive)
REMARK    1  A    between atoms: N_2  and  C_3
REMARK    2  A    between atoms: N_2  and  N_10
REMARK    3  A    between atoms: C_3  and  C_4
REMARK    4  A    between atoms: C_12  and  C_14
REMARK    5  A    between atoms: C_14  and  C_15
REMARK    6  A    between atoms: C_14  and  C_16
REMARK    7  A    between atoms: C_14  and  C_17
REMARK                            x       y       z     vdW  Elec       q    Type
REMARK                         _______ _______ _______ _____ _____    ______ ____
ROOT
ATOM      1  H   UNL     1       8.930   2.460  20.562  0.00  0.00    +0.145 HD
ATOM      2  N   UNL     1       8.799   2.295  21.570  0.00  0.00    -0.236 NA
ENDROOT
BRANCH   2   3
ATOM      3  N   UNL     1       8.462   3.540  22.154  0.00  0.00    -0.250 N 
ATOM      4  C   UNL     1       7.124   3.887  22.311  0.00  0.00    +0.232 C 
ATOM      5  O   UNL     1       6.212   3.151  21.935  0.00  0.00    -0.274 OA
ATOM      6  H   UNL     1       9.211   4.126  22.510  0.00  0.00    +0.169 HD
BRANCH   4   7
ATOM      7  C   UNL     1       6.883   5.248  22.991  0.00  0.00    +0.040 C 
ATOM      8  C   UNL     1       7.455   5.219  24.417  0.00  0.00    +0.020 C 
ATOM      9  C   UNL     1       5.372   5.523  23.069  0.00  0.00    +0.020 C 
ATOM     10  C   UNL     1       7.546   6.372  22.180  0.00  0.00    +0.020 C 
ENDBRANCH   4   7
ENDBRANCH   2   3
BRANCH   2  11
ATOM     11  C   UNL     1      10.087   1.822  22.097  0.00  0.00    +0.137 C 
BRANCH  11  12
ATOM     12  C   UNL     1       9.993   0.506  22.841  0.00  0.00    -0.032 A 
ATOM     13  C   UNL     1      10.044  -0.733  22.186  0.00  0.00    +0.005 A 
ATOM     14  C   UNL     1       9.904  -1.923  22.906  0.00  0.00    +0.000 A 
ATOM     15  C   UNL     1       9.694  -1.888  24.282  0.00  0.00    +0.000 A 
ATOM     16  C   UNL     1       9.621  -0.667  24.942  0.00  0.00    +0.000 A 
ATOM     17  C   UNL     1       9.766   0.524  24.227  0.00  0.00    +0.005 A 
ENDBRANCH  11  12
ENDBRANCH   2  11
TORSDOF 4
ENDMDL
