MODEL 1
REMARK VINA RESULT:      -5.3      0.000      0.000
REMARK  Name = 
REMARK  6 active torsions:
REMARK  status: ('A' for Active; 'I' for Inactive)
REMARK    1  A    between atoms: C_2  and  C_3
REMARK    2  A    between atoms: C_2  and  C_4
REMARK    3  A    between atoms: C_2  and  C_12
REMARK    4  A    between atoms: C_4  and  C_5
REMARK    5  A    between atoms: C_10  and  O_11
REMARK    6  A    between atoms: C_12  and  O_13
REMARK                            x       y       z     vdW  Elec       q    Type
REMARK                         _______ _______ _______ _____ _____    ______ ____
ROOT
ATOM      1  C   UNL     1      10.174  -0.784  23.345  0.00  0.00    -0.005 A 
ATOM      2  C   UNL     1       9.895  -0.207  22.100  0.00  0.00    +0.120 A 
ATOM      3  C   UNL     1       9.892   1.176  21.925  0.00  0.00    +0.045 A 
ATOM      4  C   UNL     1      10.188   2.006  23.005  0.00  0.00    +0.004 A 
ATOM      5  C   UNL     1      10.494   1.452  24.246  0.00  0.00    +0.000 A 
ATOM      6  C   UNL     1      10.484   0.065  24.419  0.00  0.00    +0.007 A 
ENDROOT
BRANCH   2   7
ATOM      7  O   UNL     1       9.608  -1.028  21.047  0.00  0.00    -0.506 OA
ATOM      8  H   UNL     1      10.155  -1.828  21.117  0.00  0.00    +0.292 HD
ENDBRANCH   2   7
BRANCH   1   9
ATOM      9  C   UNL     1      10.132  -2.283  23.540  0.00  0.00    +0.053 C 
BRANCH   9  10
ATOM     10  C   UNL     1       9.080  -2.763  24.557  0.00  0.00    +0.099 C 
ATOM     11  C   UNL     1       7.661  -2.263  24.288  0.00  0.00    +0.019 C 
BRANCH  10  12
ATOM     12  C   UNL     1       9.052  -4.281  24.546  0.00  0.00    +0.308 C 
ATOM     13  O   UNL     1       8.059  -4.964  24.351  0.00  0.00    -0.251 OA
BRANCH  12  14
ATOM     14  O   UNL     1      10.258  -4.838  24.811  0.00  0.00    -0.480 OA
ATOM     15  H   UNL     1      10.938  -4.197  25.088  0.00  0.00    +0.295 HD
ENDBRANCH  12  14
ENDBRANCH  10  12
ENDBRANCH   9  10
ENDBRANCH   1   9
TORSDOF 5
ENDMDL
MODEL 2
REMARK VINA RESULT:      -5.3      1.843      4.801
REMARK  Name = 
REMARK  6 active torsions:
REMARK  status: ('A' for Active; 'I' for Inactive)
REMARK    1  A    between atoms: C_2  and  C_3
REMARK    2  A    between atoms: C_2  and  C_4
REMARK    3  A    between atoms: C_2  and  C_12
REMARK    4  A    between atoms: C_4  and  C_5
REMARK    5  A    between atoms: C_10  and  O_11
REMARK    6  A    between atoms: C_12  and  O_13
REMARK                            x       y       z     vdW  Elec       q    Type
REMARK                         _______ _______ _______ _____ _____    ______ ____
ROOT
ATOM      1  C   UNL     1       9.735  -0.921  24.621  0.00  0.00    -0.005 A 
ATOM      2  C   UNL     1       9.852  -2.081  23.844  0.00  0.00    +0.120 A 
ATOM      3  C   UNL     1       9.272  -3.283  24.244  0.00  0.00    +0.045 A 
ATOM      4  C   UNL     1       8.546  -3.335  25.433  0.00  0.00    +0.004 A 
ATOM      5  C   UNL     1       8.396  -2.187  26.208  0.00  0.00    +0.000 A 
ATOM      6  C   UNL     1       8.989  -0.987  25.808  0.00  0.00    +0.007 A 
ENDROOT
BRANCH   2   7
ATOM      7  O   UNL     1      10.563  -2.019  22.679  0.00  0.00    -0.506 OA
ATOM      8  H   UNL     1      10.165  -1.344  22.106  0.00  0.00    +0.292 HD
ENDBRANCH   2   7
BRANCH   1   9
ATOM      9  C   UNL     1      10.403   0.370  24.205  0.00  0.00    +0.053 C 
BRANCH   9  10
ATOM     10  C   UNL     1       9.467   1.373  23.506  0.00  0.00    +0.099 C 
ATOM     11  C   UNL     1       9.633   2.822  23.960  0.00  0.00    +0.019 C 
BRANCH  10  12
ATOM     12  C   UNL     1       9.727   1.318  22.011  0.00  0.00    +0.308 C 
ATOM     13  O   UNL     1       9.423   0.388  21.279  0.00  0.00    -0.251 OA
BRANCH  12  14
ATOM     14  O   UNL     1      10.374   2.410  21.542  0.00  0.00    -0.480 OA
ATOM     15  H   UNL     1      10.366   3.169  22.153  0.00  0.00    +0.295 HD
ENDBRANCH  12  14
ENDBRANCH  10  12
ENDBRANCH   9  10
ENDBRANCH   1   9
TORSDOF 5
ENDMDL
MODEL 3
REMARK VINA RESULT:      -5.1      1.367      1.975
REMARK  Name = 
REMARK  6 active torsions:
REMARK  status: ('A' for Active; 'I' for Inactive)
REMARK    1  A    between atoms: C_2  and  C_3
REMARK    2  A    between atoms: C_2  and  C_4
REMARK    3  A    between atoms: C_2  and  C_12
REMARK    4  A    between atoms: C_4  and  C_5
REMARK    5  A    between atoms: C_10  and  O_11
REMARK    6  A    between atoms: C_12  and  O_13
REMARK                            x       y       z     vdW  Elec       q    Type
REMARK                         _______ _______ _______ _____ _____    ______ ____
ROOT
ATOM      1  C   UNL     1       9.273  -1.914  24.021  0.00  0.00    -0.005 A 
ATOM      2  C   UNL     1      10.071  -1.199  23.119  0.00  0.00    +0.120 A 
ATOM      3  C   UNL     1      10.552   0.072  23.425  0.00  0.00    +0.045 A 
ATOM      4  C   UNL     1      10.250   0.643  24.660  0.00  0.00    +0.004 A 
ATOM      5  C   UNL     1       9.479  -0.061  25.583  0.00  0.00    +0.000 A 
ATOM      6  C   UNL     1       8.990  -1.331  25.267  0.00  0.00    +0.007 A 
ENDROOT
BRANCH   2   7
ATOM      7  O   UNL     1      10.364  -1.768  21.912  0.00  0.00    -0.506 OA
ATOM      8  H   UNL     1       9.876  -2.604  21.834  0.00  0.00    +0.292 HD
ENDBRANCH   2   7
BRANCH   1   9
ATOM      9  C   UNL     1       8.716  -3.274  23.667  0.00  0.00    +0.053 C 
BRANCH   9  10
ATOM     10  C   UNL     1       8.081  -4.029  24.850  0.00  0.00    +0.099 C 
ATOM     11  C   UNL     1       6.815  -4.810  24.500  0.00  0.00    +0.019 C 
BRANCH  10  12
ATOM     12  C   UNL     1       9.100  -5.010  25.403  0.00  0.00    +0.308 C 
ATOM     13  O   UNL     1      10.269  -5.078  25.057  0.00  0.00    -0.251 OA
BRANCH  12  14
ATOM     14  O   UNL     1       8.580  -5.855  26.324  0.00  0.00    -0.480 OA
ATOM     15  H   UNL     1       8.729  -5.578  27.246  0.00  0.00    +0.295 HD
ENDBRANCH  12  14
ENDBRANCH  10  12
ENDBRANCH   9  10
ENDBRANCH   1   9
TORSDOF 5
ENDMDL
MODEL 4
REMARK VINA RESULT:      -5.0      3.558      6.192
REMARK  Name = 
REMARK  6 active torsions:
REMARK  status: ('A' for Active; 'I' for Inactive)
REMARK    1  A    between atoms: C_2  and  C_3
REMARK    2  A    between atoms: C_2  and  C_4
REMARK    3  A    between atoms: C_2  and  C_12
REMARK    4  A    between atoms: C_4  and  C_5
REMARK    5  A    between atoms: C_10  and  O_11
REMARK    6  A    between atoms: C_12  and  O_13
REMARK                            x       y       z     vdW  Elec       q    Type
REMARK                         _______ _______ _______ _____ _____    ______ ____
ROOT
ATOM      1  C   UNL     1      10.207   1.508  23.123  0.00  0.00    -0.005 A 
ATOM      2  C   UNL     1      10.381   0.404  23.967  0.00  0.00    +0.120 A 
ATOM      3  C   UNL     1      10.083  -0.889  23.541  0.00  0.00    +0.045 A 
ATOM      4  C   UNL     1       9.617  -1.095  22.244  0.00  0.00    +0.004 A 
ATOM      5  C   UNL     1       9.461  -0.013  21.379  0.00  0.00    +0.000 A 
ATOM      6  C   UNL     1       9.751   1.282  21.815  0.00  0.00    +0.007 A 
ENDROOT
BRANCH   2   7
ATOM      7  O   UNL     1      10.841   0.616  25.236  0.00  0.00    -0.506 OA
ATOM      8  H   UNL     1      10.080   0.704  25.833  0.00  0.00    +0.292 HD
ENDBRANCH   2   7
BRANCH   1   9
ATOM      9  C   UNL     1      10.490   2.913  23.605  0.00  0.00    +0.053 C 
BRANCH   9  10
ATOM     10  C   UNL     1       9.233   3.775  23.826  0.00  0.00    +0.099 C 
ATOM     11  C   UNL     1       8.364   3.341  25.006  0.00  0.00    +0.019 C 
BRANCH  10  12
ATOM     12  C   UNL     1       9.665   5.211  24.065  0.00  0.00    +0.308 C 
ATOM     13  O   UNL     1       9.622   5.788  25.141  0.00  0.00    -0.251 OA
BRANCH  12  14
ATOM     14  O   UNL     1      10.090   5.834  22.940  0.00  0.00    -0.480 OA
ATOM     15  H   UNL     1      10.907   6.351  23.058  0.00  0.00    +0.295 HD
ENDBRANCH  12  14
ENDBRANCH  10  12
ENDBRANCH   9  10
ENDBRANCH   1   9
TORSDOF 5
ENDMDL
MODEL 5
REMARK VINA RESULT:      -4.9      2.011      2.471
REMARK  Name = 
REMARK  6 active torsions:
REMARK  status: ('A' for Active; 'I' for Inactive)
REMARK    1  A    between atoms: C_2  and  C_3
REMARK    2  A    between atoms: C_2  and  C_4
REMARK    3  A    between atoms: C_2  and  C_12
REMARK    4  A    between atoms: C_4  and  C_5
REMARK    5  A    between atoms: C_10  and  O_11
REMARK    6  A    between atoms: C_12  and  O_13
REMARK                            x       y       z     vdW  Elec       q    Type
REMARK                         _______ _______ _______ _____ _____    ______ ____
ROOT
ATOM      1  C   UNL     1       9.839  -0.697  23.399  0.00  0.00    -0.005 A 
ATOM      2  C   UNL     1      10.218   0.459  24.095  0.00  0.00    +0.120 A 
ATOM      3  C   UNL     1      10.237   1.706  23.474  0.00  0.00    +0.045 A 
ATOM      4  C   UNL     1       9.855   1.815  22.138  0.00  0.00    +0.004 A 
ATOM      5  C   UNL     1       9.451   0.683  21.434  0.00  0.00    +0.000 A 
ATOM      6  C   UNL     1       9.445  -0.568  22.058  0.00  0.00    +0.007 A 
ENDROOT
BRANCH   2   7
ATOM      7  O   UNL     1      10.587   0.343  25.405  0.00  0.00    -0.506 OA
ATOM      8  H   UNL     1      10.215  -0.480  25.762  0.00  0.00    +0.292 HD
ENDBRANCH   2   7
BRANCH   1   9
ATOM      9  C   UNL     1       9.863  -2.054  24.064  0.00  0.00    +0.053 C 
BRANCH   9  10
ATOM     10  C   UNL     1       8.483  -2.563  24.520  0.00  0.00    +0.099 C 
ATOM     11  C   UNL     1       8.072  -3.908  23.921  0.00  0.00    +0.019 C 
BRANCH  10  12
ATOM     12  C   UNL     1       8.494  -2.706  26.031  0.00  0.00    +0.308 C 
ATOM     13  O   UNL     1       8.334  -3.753  26.639  0.00  0.00    -0.251 OA
BRANCH  12  14
ATOM     14  O   UNL     1       8.671  -1.529  26.677  0.00  0.00    -0.480 OA
ATOM     15  H   UNL     1       9.445  -1.513  27.268  0.00  0.00    +0.295 HD
ENDBRANCH  12  14
ENDBRANCH  10  12
ENDBRANCH   9  10
ENDBRANCH   1   9
TORSDOF 5
ENDMDL
MODEL 6
REMARK VINA RESULT:      -4.8      1.817      2.735
REMARK  Name = 
REMARK  6 active torsions:
REMARK  status: ('A' for Active; 'I' for Inactive)
REMARK    1  A    between atoms: C_2  and  C_3
REMARK    2  A    between atoms: C_2  and  C_4
REMARK    3  A    between atoms: C_2  and  C_12
REMARK    4  A    between atoms: C_4  and  C_5
REMARK    5  A    between atoms: C_10  and  O_11
REMARK    6  A    between atoms: C_12  and  O_13
REMARK                            x       y       z     vdW  Elec       q    Type
REMARK                         _______ _______ _______ _____ _____    ______ ____
ROOT
ATOM      1  C   UNL     1       9.563   1.642  23.420  0.00  0.00    -0.005 A 
ATOM      2  C   UNL     1       8.903   1.744  22.188  0.00  0.00    +0.120 A 
ATOM      3  C   UNL     1       7.936   2.722  21.962  0.00  0.00    +0.045 A 
ATOM      4  C   UNL     1       7.627   3.631  22.973  0.00  0.00    +0.004 A 
ATOM      5  C   UNL     1       8.290   3.563  24.197  0.00  0.00    +0.000 A 
ATOM      6  C   UNL     1       9.250   2.573  24.422  0.00  0.00    +0.007 A 
ENDROOT
BRANCH   2   7
ATOM      7  O   UNL     1       9.215   0.852  21.202  0.00  0.00    -0.506 OA
ATOM      8  H   UNL     1       8.893  -0.027  21.464  0.00  0.00    +0.292 HD
ENDBRANCH   2   7
BRANCH   1   9
ATOM      9  C   UNL     1      10.579   0.552  23.675  0.00  0.00    +0.053 C 
BRANCH   9  10
ATOM     10  C   UNL     1       9.992  -0.734  24.286  0.00  0.00    +0.099 C 
ATOM     11  C   UNL     1       8.500  -0.662  24.609  0.00  0.00    +0.019 C 
BRANCH  10  12
ATOM     12  C   UNL     1      10.206  -1.877  23.311  0.00  0.00    +0.308 C 
ATOM     13  O   UNL     1      10.382  -1.751  22.109  0.00  0.00    -0.251 OA
BRANCH  12  14
ATOM     14  O   UNL     1      10.155  -3.096  23.898  0.00  0.00    -0.480 OA
ATOM     15  H   UNL     1       9.485  -3.692  23.517  0.00  0.00    +0.295 HD
ENDBRANCH  12  14
ENDBRANCH  10  12
ENDBRANCH   9  10
ENDBRANCH   1   9
TORSDOF 5
ENDMDL
MODEL 7
REMARK VINA RESULT:      -4.7      1.651      5.086
REMARK  Name = 
REMARK  6 active torsions:
REMARK  status: ('A' for Active; 'I' for Inactive)
REMARK    1  A    between atoms: C_2  and  C_3
REMARK    2  A    between atoms: C_2  and  C_4
REMARK    3  A    between atoms: C_2  and  C_12
REMARK    4  A    between atoms: C_4  and  C_5
REMARK    5  A    between atoms: C_10  and  O_11
REMARK    6  A    between atoms: C_12  and  O_13
REMARK                            x       y       z     vdW  Elec       q    Type
REMARK                         _______ _______ _______ _____ _____    ______ ____
ROOT
ATOM      1  C   UNL     1       8.977  -3.377  25.080  0.00  0.00    -0.005 A 
ATOM      2  C   UNL     1       9.199  -4.685  25.531  0.00  0.00    +0.120 A 
ATOM      3  C   UNL     1       8.365  -5.277  26.478  0.00  0.00    +0.045 A 
ATOM      4  C   UNL     1       7.277  -4.563  26.978  0.00  0.00    +0.004 A 
ATOM      5  C   UNL     1       7.024  -3.270  26.525  0.00  0.00    +0.000 A 
ATOM      6  C   UNL     1       7.870  -2.677  25.583  0.00  0.00    +0.007 A 
ENDROOT
BRANCH   2   7
ATOM      7  O   UNL     1      10.265  -5.377  25.032  0.00  0.00    -0.506 OA
ATOM      8  H   UNL     1      10.979  -5.369  25.691  0.00  0.00    +0.292 HD
ENDBRANCH   2   7
BRANCH   1   9
ATOM      9  C   UNL     1       9.910  -2.723  24.086  0.00  0.00    +0.053 C 
BRANCH   9  10
ATOM     10  C   UNL     1       9.394  -1.392  23.510  0.00  0.00    +0.099 C 
ATOM     11  C   UNL     1      10.452  -0.296  23.392  0.00  0.00    +0.019 C 
BRANCH  10  12
ATOM     12  C   UNL     1       8.828  -1.649  22.124  0.00  0.00    +0.308 C 
ATOM     13  O   UNL     1       7.845  -2.332  21.883  0.00  0.00    -0.251 OA
BRANCH  12  14
ATOM     14  O   UNL     1       9.548  -1.064  21.138  0.00  0.00    -0.480 OA
ATOM     15  H   UNL     1       9.400  -0.105  21.054  0.00  0.00    +0.295 HD
ENDBRANCH  12  14
ENDBRANCH  10  12
ENDBRANCH   9  10
ENDBRANCH   1   9
TORSDOF 5
ENDMDL
MODEL 8
REMARK VINA RESULT:      -4.7      2.112      3.519
REMARK  Name = 
REMARK  6 active torsions:
REMARK  status: ('A' for Active; 'I' for Inactive)
REMARK    1  A    between atoms: C_2  and  C_3
REMARK    2  A    between atoms: C_2  and  C_4
REMARK    3  A    between atoms: C_2  and  C_12
REMARK    4  A    between atoms: C_4  and  C_5
REMARK    5  A    between atoms: C_10  and  O_11
REMARK    6  A    between atoms: C_12  and  O_13
REMARK                            x       y       z     vdW  Elec       q    Type
REMARK                         _______ _______ _______ _____ _____    ______ ____
ROOT
ATOM      1  C   UNL     1       9.780   2.331  22.833  0.00  0.00    -0.005 A 
ATOM      2  C   UNL     1       8.514   2.919  22.947  0.00  0.00    +0.120 A 
ATOM      3  C   UNL     1       8.354   4.206  23.457  0.00  0.00    +0.045 A 
ATOM      4  C   UNL     1       9.476   4.934  23.848  0.00  0.00    +0.004 A 
ATOM      5  C   UNL     1      10.748   4.378  23.720  0.00  0.00    +0.000 A 
ATOM      6  C   UNL     1      10.901   3.083  23.218  0.00  0.00    +0.007 A 
ENDROOT
BRANCH   2   7
ATOM      7  O   UNL     1       7.420   2.199  22.558  0.00  0.00    -0.506 OA
ATOM      8  H   UNL     1       6.619   2.675  22.831  0.00  0.00    +0.292 HD
ENDBRANCH   2   7
BRANCH   1   9
ATOM      9  C   UNL     1       9.944   0.918  22.321  0.00  0.00    +0.053 C 
BRANCH   9  10
ATOM     10  C   UNL     1      10.477  -0.080  23.366  0.00  0.00    +0.099 C 
ATOM     11  C   UNL     1       9.803   0.012  24.734  0.00  0.00    +0.019 C 
BRANCH  10  12
ATOM     12  C   UNL     1      10.276  -1.489  22.837  0.00  0.00    +0.308 C 
ATOM     13  O   UNL     1      10.174  -2.490  23.529  0.00  0.00    -0.251 OA
BRANCH  12  14
ATOM     14  O   UNL     1      10.250  -1.552  21.485  0.00  0.00    -0.480 OA
ATOM     15  H   UNL     1       9.984  -2.421  21.134  0.00  0.00    +0.295 HD
ENDBRANCH  12  14
ENDBRANCH  10  12
ENDBRANCH   9  10
ENDBRANCH   1   9
TORSDOF 5
ENDMDL
MODEL 9
REMARK VINA RESULT:      -4.7      2.612      5.230
REMARK  Name = 
REMARK  6 active torsions:
REMARK  status: ('A' for Active; 'I' for Inactive)
REMARK    1  A    between atoms: C_2  and  C_3
REMARK    2  A    between atoms: C_2  and  C_4
REMARK    3  A    between atoms: C_2  and  C_12
REMARK    4  A    between atoms: C_4  and  C_5
REMARK    5  A    between atoms: C_10  and  O_11
REMARK    6  A    between atoms: C_12  and  O_13
REMARK                            x       y       z     vdW  Elec       q    Type
REMARK                         _______ _______ _______ _____ _____    ______ ____
ROOT
ATOM      1  C   UNL     1       9.797  -0.199  24.505  0.00  0.00    -0.005 A 
ATOM      2  C   UNL     1       9.053  -0.570  25.633  0.00  0.00    +0.120 A 
ATOM      3  C   UNL     1       8.629  -1.884  25.822  0.00  0.00    +0.045 A 
ATOM      4  C   UNL     1       8.962  -2.857  24.881  0.00  0.00    +0.004 A 
ATOM      5  C   UNL     1       9.723  -2.514  23.764  0.00  0.00    +0.000 A 
ATOM      6  C   UNL     1      10.136  -1.193  23.574  0.00  0.00    +0.007 A 
ENDROOT
BRANCH   2   7
ATOM      7  O   UNL     1       8.734   0.389  26.551  0.00  0.00    -0.506 OA
ATOM      8  H   UNL     1       9.548   0.682  26.992  0.00  0.00    +0.292 HD
ENDBRANCH   2   7
BRANCH   1   9
ATOM      9  C   UNL     1      10.217   1.236  24.282  0.00  0.00    +0.053 C 
BRANCH   9  10
ATOM     10  C   UNL     1       9.108   2.143  23.718  0.00  0.00    +0.099 C 
ATOM     11  C   UNL     1       9.247   3.620  24.084  0.00  0.00    +0.019 C 
BRANCH  10  12
ATOM     12  C   UNL     1       9.113   2.032  22.204  0.00  0.00    +0.308 C 
ATOM     13  O   UNL     1       8.151   1.719  21.520  0.00  0.00    -0.251 OA
BRANCH  12  14
ATOM     14  O   UNL     1      10.324   2.287  21.655  0.00  0.00    -0.480 OA
ATOM     15  H   UNL     1      11.016   2.503  22.306  0.00  0.00    +0.295 HD
ENDBRANCH  12  14
ENDBRANCH  10  12
ENDBRANCH   9  10
ENDBRANCH   1   9
TORSDOF 5
ENDMDL
