MODEL 1
REMARK VINA RESULT:      -6.3      0.000      0.000
REMARK  Name = 
REMARK  10 active torsions:
REMARK  status: ('A' for Active; 'I' for Inactive)
REMARK    1  A    between atoms: C_1  and  C_2
REMARK    2  A    between atoms: C_2  and  C_3
REMARK    3  A    between atoms: C_2  and  C_4
REMARK    4  A    between atoms: C_6  and  S_7
REMARK    5  A    between atoms: S_7  and  C_8
REMARK    6  A    between atoms: C_11  and  O_12
REMARK    7  A    between atoms: C_13  and  C_15
REMARK    8  A    between atoms: C_15  and  C_16
REMARK    9  A    between atoms: C_15  and  C_17
REMARK   10  A    between atoms: C_20  and  O_21
REMARK                            x       y       z     vdW  Elec       q    Type
REMARK                         _______ _______ _______ _____ _____    ______ ____
ROOT
ATOM      1  S   UNL     1       9.006  -3.205  24.250  0.00  0.00    -0.089 S 
ENDROOT
BRANCH   1   6
ATOM      2  C   UNL     1       8.305   0.695  23.202  0.00  0.00    -0.002 A 
ATOM      3  C   UNL     1       9.092   0.805  22.049  0.00  0.00    +0.120 A 
ATOM      4  C   UNL     1       9.814  -0.288  21.562  0.00  0.00    +0.047 A 
ATOM      5  C   UNL     1       9.782  -1.505  22.243  0.00  0.00    +0.018 A 
ATOM      6  C   UNL     1       9.017  -1.644  23.401  0.00  0.00    +0.013 A 
ATOM      7  C   UNL     1       8.260  -0.557  23.852  0.00  0.00    +0.022 A 
BRANCH   2   9
ATOM      8  C   UNL     1       6.286   1.353  24.480  0.00  0.00    +0.012 C 
ATOM      9  C   UNL     1       7.603   1.861  23.885  0.00  0.00    +0.016 C 
ATOM     10  C   UNL     1       8.402   2.634  24.938  0.00  0.00    +0.012 C 
ENDBRANCH   2   9
BRANCH   3  11
ATOM     11  O   UNL     1       9.193   2.001  21.401  0.00  0.00    -0.506 OA
ATOM     12  H   UNL     1      10.027   2.430  21.648  0.00  0.00    +0.292 HD
ENDBRANCH   3  11
ENDBRANCH   1   6
BRANCH   1  13
ATOM     13  C   UNL     1       7.615  -4.113  23.581  0.00  0.00    +0.013 A 
ATOM     14  C   UNL     1       6.739  -4.702  24.509  0.00  0.00    +0.022 A 
ATOM     15  C   UNL     1       5.570  -5.381  24.112  0.00  0.00    -0.002 A 
ATOM     16  C   UNL     1       5.337  -5.516  22.738  0.00  0.00    +0.120 A 
ATOM     17  C   UNL     1       6.192  -4.937  21.799  0.00  0.00    +0.047 A 
ATOM     18  C   UNL     1       7.315  -4.219  22.221  0.00  0.00    +0.018 A 
BRANCH  15  19
ATOM     19  C   UNL     1       4.588  -5.940  25.132  0.00  0.00    +0.016 C 
ATOM     20  C   UNL     1       3.426  -4.993  25.458  0.00  0.00    +0.012 C 
ATOM     21  C   UNL     1       5.300  -6.364  26.418  0.00  0.00    +0.012 C 
ENDBRANCH  15  19
BRANCH  16  22
ATOM     22  O   UNL     1       4.244  -6.223  22.319  0.00  0.00    -0.506 OA
ATOM     23  H   UNL     1       3.987  -6.849  23.015  0.00  0.00    +0.292 HD
ENDBRANCH  16  22
ENDBRANCH   1  13
TORSDOF 6
ENDMDL
MODEL 2
REMARK VINA RESULT:      -6.2      0.149      6.785
REMARK  Name = 
REMARK  10 active torsions:
REMARK  status: ('A' for Active; 'I' for Inactive)
REMARK    1  A    between atoms: C_1  and  C_2
REMARK    2  A    between atoms: C_2  and  C_3
REMARK    3  A    between atoms: C_2  and  C_4
REMARK    4  A    between atoms: C_6  and  S_7
REMARK    5  A    between atoms: S_7  and  C_8
REMARK    6  A    between atoms: C_11  and  O_12
REMARK    7  A    between atoms: C_13  and  C_15
REMARK    8  A    between atoms: C_15  and  C_16
REMARK    9  A    between atoms: C_15  and  C_17
REMARK   10  A    between atoms: C_20  and  O_21
REMARK                            x       y       z     vdW  Elec       q    Type
REMARK                         _______ _______ _______ _____ _____    ______ ____
ROOT
ATOM      1  S   UNL     1       9.042  -3.154  24.356  0.00  0.00    -0.089 S 
ENDROOT
BRANCH   1   6
ATOM      2  C   UNL     1       5.614  -5.391  24.140  0.00  0.00    -0.002 A 
ATOM      3  C   UNL     1       5.470  -5.521  22.754  0.00  0.00    +0.120 A 
ATOM      4  C   UNL     1       6.405  -4.967  21.877  0.00  0.00    +0.047 A 
ATOM      5  C   UNL     1       7.489  -4.245  22.376  0.00  0.00    +0.018 A 
ATOM      6  C   UNL     1       7.656  -4.088  23.752  0.00  0.00    +0.013 A 
ATOM      7  C   UNL     1       6.740  -4.688  24.623  0.00  0.00    +0.022 A 
BRANCH   2   9
ATOM      8  C   UNL     1       5.311  -6.377  26.394  0.00  0.00    +0.012 C 
ATOM      9  C   UNL     1       4.578  -5.834  25.164  0.00  0.00    +0.016 C 
ATOM     10  C   UNL     1       3.528  -4.800  25.582  0.00  0.00    +0.012 C 
ENDBRANCH   2   9
BRANCH   3  11
ATOM     11  O   UNL     1       4.384  -6.165  22.237  0.00  0.00    -0.506 OA
ATOM     12  H   UNL     1       3.588  -5.883  22.712  0.00  0.00    +0.292 HD
ENDBRANCH   3  11
ENDBRANCH   1   6
BRANCH   1  13
ATOM     13  C   UNL     1       9.078  -1.651  23.384  0.00  0.00    +0.013 A 
ATOM     14  C   UNL     1       8.340  -0.562  23.878  0.00  0.00    +0.022 A 
ATOM     15  C   UNL     1       8.344   0.697  23.244  0.00  0.00    -0.002 A 
ATOM     16  C   UNL     1       9.062   0.815  22.048  0.00  0.00    +0.120 A 
ATOM     17  C   UNL     1       9.805  -0.252  21.542  0.00  0.00    +0.047 A 
ATOM     18  C   UNL     1       9.829  -1.474  22.221  0.00  0.00    +0.018 A 
BRANCH  15  19
ATOM     19  C   UNL     1       7.607   1.890  23.837  0.00  0.00    +0.016 C 
ATOM     20  C   UNL     1       8.331   2.539  25.023  0.00  0.00    +0.012 C 
ATOM     21  C   UNL     1       6.175   1.522  24.230  0.00  0.00    +0.012 C 
ENDBRANCH  15  19
BRANCH  16  22
ATOM     22  O   UNL     1       9.036   2.005  21.376  0.00  0.00    -0.506 OA
ATOM     23  H   UNL     1       8.197   2.077  20.893  0.00  0.00    +0.292 HD
ENDBRANCH  16  22
ENDBRANCH   1  13
TORSDOF 6
ENDMDL
MODEL 3
REMARK VINA RESULT:      -6.2      1.936      2.389
REMARK  Name = 
REMARK  10 active torsions:
REMARK  status: ('A' for Active; 'I' for Inactive)
REMARK    1  A    between atoms: C_1  and  C_2
REMARK    2  A    between atoms: C_2  and  C_3
REMARK    3  A    between atoms: C_2  and  C_4
REMARK    4  A    between atoms: C_6  and  S_7
REMARK    5  A    between atoms: S_7  and  C_8
REMARK    6  A    between atoms: C_11  and  O_12
REMARK    7  A    between atoms: C_13  and  C_15
REMARK    8  A    between atoms: C_15  and  C_16
REMARK    9  A    between atoms: C_15  and  C_17
REMARK   10  A    between atoms: C_20  and  O_21
REMARK                            x       y       z     vdW  Elec       q    Type
REMARK                         _______ _______ _______ _____ _____    ______ ____
ROOT
ATOM      1  S   UNL     1       7.211  -3.123  22.348  0.00  0.00    -0.089 S 
ENDROOT
BRANCH   1   6
ATOM      2  C   UNL     1       8.177   0.787  23.112  0.00  0.00    -0.002 A 
ATOM      3  C   UNL     1       9.445   0.865  22.524  0.00  0.00    +0.120 A 
ATOM      4  C   UNL     1      10.008  -0.236  21.874  0.00  0.00    +0.047 A 
ATOM      5  C   UNL     1       9.319  -1.448  21.829  0.00  0.00    +0.018 A 
ATOM      6  C   UNL     1       8.058  -1.562  22.414  0.00  0.00    +0.013 A 
ATOM      7  C   UNL     1       7.483  -0.440  23.020  0.00  0.00    +0.022 A 
BRANCH   2   9
ATOM      8  C   UNL     1       6.023   1.758  23.861  0.00  0.00    +0.012 C 
ATOM      9  C   UNL     1       7.546   1.882  23.960  0.00  0.00    +0.016 C 
ATOM     10  C   UNL     1       7.980   1.963  25.427  0.00  0.00    +0.012 C 
ENDBRANCH   2   9
BRANCH   3  11
ATOM     11  O   UNL     1      10.169   2.019  22.611  0.00  0.00    -0.506 OA
ATOM     12  H   UNL     1      11.106   1.822  22.458  0.00  0.00    +0.292 HD
ENDBRANCH   3  11
ENDBRANCH   1   6
BRANCH   1  13
ATOM     13  C   UNL     1       7.520  -3.913  23.924  0.00  0.00    +0.013 A 
ATOM     14  C   UNL     1       6.439  -4.588  24.516  0.00  0.00    +0.022 A 
ATOM     15  C   UNL     1       6.572  -5.309  25.720  0.00  0.00    -0.002 A 
ATOM     16  C   UNL     1       7.817  -5.277  26.357  0.00  0.00    +0.120 A 
ATOM     17  C   UNL     1       8.906  -4.616  25.786  0.00  0.00    +0.047 A 
ATOM     18  C   UNL     1       8.762  -3.955  24.562  0.00  0.00    +0.018 A 
BRANCH  15  19
ATOM     19  C   UNL     1       5.413  -6.104  26.305  0.00  0.00    +0.016 C 
ATOM     20  C   UNL     1       4.585  -6.856  25.255  0.00  0.00    +0.012 C 
ATOM     21  C   UNL     1       4.503  -5.218  27.158  0.00  0.00    +0.012 C 
ENDBRANCH  15  19
BRANCH  16  22
ATOM     22  O   UNL     1       7.963  -5.915  27.558  0.00  0.00    -0.506 OA
ATOM     23  H   UNL     1       8.744  -6.491  27.516  0.00  0.00    +0.292 HD
ENDBRANCH  16  22
ENDBRANCH   1  13
TORSDOF 6
ENDMDL
MODEL 4
REMARK VINA RESULT:      -6.1      2.028      6.796
REMARK  Name = 
REMARK  10 active torsions:
REMARK  status: ('A' for Active; 'I' for Inactive)
REMARK    1  A    between atoms: C_1  and  C_2
REMARK    2  A    between atoms: C_2  and  C_3
REMARK    3  A    between atoms: C_2  and  C_4
REMARK    4  A    between atoms: C_6  and  S_7
REMARK    5  A    between atoms: S_7  and  C_8
REMARK    6  A    between atoms: C_11  and  O_12
REMARK    7  A    between atoms: C_13  and  C_15
REMARK    8  A    between atoms: C_15  and  C_16
REMARK    9  A    between atoms: C_15  and  C_17
REMARK   10  A    between atoms: C_20  and  O_21
REMARK                            x       y       z     vdW  Elec       q    Type
REMARK                         _______ _______ _______ _____ _____    ______ ____
ROOT
ATOM      1  S   UNL     1       7.583  -3.325  22.272  0.00  0.00    -0.089 S 
ENDROOT
BRANCH   1   6
ATOM      2  C   UNL     1       6.542  -5.218  25.756  0.00  0.00    -0.002 A 
ATOM      3  C   UNL     1       7.793  -5.344  26.372  0.00  0.00    +0.120 A 
ATOM      4  C   UNL     1       8.948  -4.844  25.768  0.00  0.00    +0.047 A 
ATOM      5  C   UNL     1       8.873  -4.233  24.516  0.00  0.00    +0.018 A 
ATOM      6  C   UNL     1       7.644  -4.101  23.870  0.00  0.00    +0.013 A 
ATOM      7  C   UNL     1       6.486  -4.562  24.507  0.00  0.00    +0.022 A 
BRANCH   2   9
ATOM      8  C   UNL     1       4.290  -4.737  26.673  0.00  0.00    +0.012 C 
ATOM      9  C   UNL     1       5.256  -5.854  26.267  0.00  0.00    +0.016 C 
ATOM     10  C   UNL     1       4.558  -6.853  25.339  0.00  0.00    +0.012 C 
ENDBRANCH   2   9
BRANCH   3  11
ATOM     11  O   UNL     1       7.904  -5.996  27.566  0.00  0.00    -0.506 OA
ATOM     12  H   UNL     1       7.909  -6.953  27.409  0.00  0.00    +0.292 HD
ENDBRANCH   3  11
ENDBRANCH   1   6
BRANCH   1  13
ATOM     13  C   UNL     1       8.329  -1.712  22.485  0.00  0.00    +0.013 A 
ATOM     14  C   UNL     1       7.983  -1.003  23.648  0.00  0.00    +0.022 A 
ATOM     15  C   UNL     1       8.556   0.244  23.966  0.00  0.00    -0.002 A 
ATOM     16  C   UNL     1       9.446   0.801  23.040  0.00  0.00    +0.120 A 
ATOM     17  C   UNL     1       9.807   0.114  21.880  0.00  0.00    +0.047 A 
ATOM     18  C   UNL     1       9.267  -1.149  21.616  0.00  0.00    +0.018 A 
BRANCH  15  19
ATOM     19  C   UNL     1       8.233   0.959  25.270  0.00  0.00    +0.016 C 
ATOM     20  C   UNL     1       8.063   0.017  26.469  0.00  0.00    +0.012 C 
ATOM     21  C   UNL     1       7.001   1.855  25.125  0.00  0.00    +0.012 C 
ENDBRANCH  15  19
BRANCH  16  22
ATOM     22  O   UNL     1       9.972   2.037  23.290  0.00  0.00    -0.506 OA
ATOM     23  H   UNL     1      10.377   2.036  24.172  0.00  0.00    +0.292 HD
ENDBRANCH  16  22
ENDBRANCH   1  13
TORSDOF 6
ENDMDL
MODEL 5
REMARK VINA RESULT:      -6.0      1.255      6.895
REMARK  Name = 
REMARK  10 active torsions:
REMARK  status: ('A' for Active; 'I' for Inactive)
REMARK    1  A    between atoms: C_1  and  C_2
REMARK    2  A    between atoms: C_2  and  C_3
REMARK    3  A    between atoms: C_2  and  C_4
REMARK    4  A    between atoms: C_6  and  S_7
REMARK    5  A    between atoms: S_7  and  C_8
REMARK    6  A    between atoms: C_11  and  O_12
REMARK    7  A    between atoms: C_13  and  C_15
REMARK    8  A    between atoms: C_15  and  C_16
REMARK    9  A    between atoms: C_15  and  C_17
REMARK   10  A    between atoms: C_20  and  O_21
REMARK                            x       y       z     vdW  Elec       q    Type
REMARK                         _______ _______ _______ _____ _____    ______ ____
ROOT
ATOM      1  S   UNL     1       8.447  -2.918  26.210  0.00  0.00    -0.089 S 
ENDROOT
BRANCH   1   6
ATOM      2  C   UNL     1       5.890  -4.996  23.773  0.00  0.00    -0.002 A 
ATOM      3  C   UNL     1       5.387  -5.948  24.667  0.00  0.00    +0.120 A 
ATOM      4  C   UNL     1       5.784  -5.960  26.006  0.00  0.00    +0.047 A 
ATOM      5  C   UNL     1       6.721  -5.034  26.465  0.00  0.00    +0.018 A 
ATOM      6  C   UNL     1       7.250  -4.079  25.597  0.00  0.00    +0.013 A 
ATOM      7  C   UNL     1       6.807  -4.045  24.270  0.00  0.00    +0.022 A 
BRANCH   2   9
ATOM      8  C   UNL     1       5.765  -3.557  21.758  0.00  0.00    +0.012 C 
ATOM      9  C   UNL     1       5.627  -4.993  22.273  0.00  0.00    +0.016 C 
ATOM     10  C   UNL     1       6.464  -5.949  21.418  0.00  0.00    +0.012 C 
ENDBRANCH   2   9
BRANCH   3  11
ATOM     11  O   UNL     1       4.520  -6.907  24.230  0.00  0.00    -0.506 OA
ATOM     12  H   UNL     1       4.494  -7.633  24.872  0.00  0.00    +0.292 HD
ENDBRANCH   3  11
ENDBRANCH   1   6
BRANCH   1  13
ATOM     13  C   UNL     1       8.946  -1.939  24.797  0.00  0.00    +0.013 A 
ATOM     14  C   UNL     1       8.404  -0.646  24.701  0.00  0.00    +0.022 A 
ATOM     15  C   UNL     1       8.771   0.248  23.676  0.00  0.00    -0.002 A 
ATOM     16  C   UNL     1       9.656  -0.220  22.697  0.00  0.00    +0.120 A 
ATOM     17  C   UNL     1      10.210  -1.499  22.774  0.00  0.00    +0.047 A 
ATOM     18  C   UNL     1       9.871  -2.347  23.834  0.00  0.00    +0.018 A 
BRANCH  15  19
ATOM     19  C   UNL     1       8.239   1.674  23.633  0.00  0.00    +0.016 C 
ATOM     20  C   UNL     1       8.382   2.428  24.960  0.00  0.00    +0.012 C 
ATOM     21  C   UNL     1       6.786   1.713  23.157  0.00  0.00    +0.012 C 
ENDBRANCH  15  19
BRANCH  16  22
ATOM     22  O   UNL     1       9.985   0.601  21.655  0.00  0.00    -0.506 OA
ATOM     23  H   UNL     1      10.693   1.203  21.939  0.00  0.00    +0.292 HD
ENDBRANCH  16  22
ENDBRANCH   1  13
TORSDOF 6
ENDMDL
MODEL 6
REMARK VINA RESULT:      -5.9      3.059      8.165
REMARK  Name = 
REMARK  10 active torsions:
REMARK  status: ('A' for Active; 'I' for Inactive)
REMARK    1  A    between atoms: C_1  and  C_2
REMARK    2  A    between atoms: C_2  and  C_3
REMARK    3  A    between atoms: C_2  and  C_4
REMARK    4  A    between atoms: C_6  and  S_7
REMARK    5  A    between atoms: S_7  and  C_8
REMARK    6  A    between atoms: C_11  and  O_12
REMARK    7  A    between atoms: C_13  and  C_15
REMARK    8  A    between atoms: C_15  and  C_16
REMARK    9  A    between atoms: C_15  and  C_17
REMARK   10  A    between atoms: C_20  and  O_21
REMARK                            x       y       z     vdW  Elec       q    Type
REMARK                         _______ _______ _______ _____ _____    ______ ____
ROOT
ATOM      1  S   UNL     1       7.371   1.783  25.541  0.00  0.00    -0.089 S 
ENDROOT
BRANCH   1   6
ATOM      2  C   UNL     1       8.343  -1.820  23.846  0.00  0.00    -0.002 A 
ATOM      3  C   UNL     1       9.732  -1.690  23.726  0.00  0.00    +0.120 A 
ATOM      4  C   UNL     1      10.390  -0.542  24.173  0.00  0.00    +0.047 A 
ATOM      5  C   UNL     1       9.659   0.513  24.722  0.00  0.00    +0.018 A 
ATOM      6  C   UNL     1       8.273   0.419  24.845  0.00  0.00    +0.013 A 
ATOM      7  C   UNL     1       7.631  -0.756  24.440  0.00  0.00    +0.022 A 
BRANCH   2   9
ATOM      8  C   UNL     1       7.378  -4.051  24.331  0.00  0.00    +0.012 C 
ATOM      9  C   UNL     1       7.527  -2.965  23.261  0.00  0.00    +0.016 C 
ATOM     10  C   UNL     1       6.161  -2.612  22.665  0.00  0.00    +0.012 C 
ENDBRANCH   2   9
BRANCH   3  11
ATOM     11  O   UNL     1      10.463  -2.678  23.133  0.00  0.00    -0.506 OA
ATOM     12  H   UNL     1      10.934  -2.313  22.369  0.00  0.00    +0.292 HD
ENDBRANCH   3  11
ENDBRANCH   1   6
BRANCH   1  13
ATOM     13  C   UNL     1       7.345   3.047  24.272  0.00  0.00    +0.013 A 
ATOM     14  C   UNL     1       8.277   4.091  24.401  0.00  0.00    +0.022 A 
ATOM     15  C   UNL     1       8.405   5.106  23.433  0.00  0.00    -0.002 A 
ATOM     16  C   UNL     1       7.516   5.084  22.352  0.00  0.00    +0.120 A 
ATOM     17  C   UNL     1       6.585   4.055  22.202  0.00  0.00    +0.047 A 
ATOM     18  C   UNL     1       6.516   3.028  23.149  0.00  0.00    +0.018 A 
BRANCH  15  19
ATOM     19  C   UNL     1       9.476   6.183  23.544  0.00  0.00    +0.016 C 
ATOM     20  C   UNL     1      10.905   5.632  23.606  0.00  0.00    +0.012 C 
ATOM     21  C   UNL     1       9.215   7.107  24.735  0.00  0.00    +0.012 C 
ENDBRANCH  15  19
BRANCH  16  22
ATOM     22  O   UNL     1       7.574   6.089  21.427  0.00  0.00    -0.506 OA
ATOM     23  H   UNL     1       7.711   5.701  20.547  0.00  0.00    +0.292 HD
ENDBRANCH  16  22
ENDBRANCH   1  13
TORSDOF 6
ENDMDL
MODEL 7
REMARK VINA RESULT:      -5.9      2.593      7.818
REMARK  Name = 
REMARK  10 active torsions:
REMARK  status: ('A' for Active; 'I' for Inactive)
REMARK    1  A    between atoms: C_1  and  C_2
REMARK    2  A    between atoms: C_2  and  C_3
REMARK    3  A    between atoms: C_2  and  C_4
REMARK    4  A    between atoms: C_6  and  S_7
REMARK    5  A    between atoms: S_7  and  C_8
REMARK    6  A    between atoms: C_11  and  O_12
REMARK    7  A    between atoms: C_13  and  C_15
REMARK    8  A    between atoms: C_15  and  C_16
REMARK    9  A    between atoms: C_15  and  C_17
REMARK   10  A    between atoms: C_20  and  O_21
REMARK                            x       y       z     vdW  Elec       q    Type
REMARK                         _______ _______ _______ _____ _____    ______ ____
ROOT
ATOM      1  S   UNL     1       7.519   0.116  25.569  0.00  0.00    -0.089 S 
ENDROOT
BRANCH   1   6
ATOM      2  C   UNL     1       7.978  -3.831  24.561  0.00  0.00    -0.002 A 
ATOM      3  C   UNL     1       7.513  -3.823  23.241  0.00  0.00    +0.120 A 
ATOM      4  C   UNL     1       7.085  -2.640  22.635  0.00  0.00    +0.047 A 
ATOM      5  C   UNL     1       7.089  -1.445  23.355  0.00  0.00    +0.018 A 
ATOM      6  C   UNL     1       7.536  -1.421  24.676  0.00  0.00    +0.013 A 
ATOM      7  C   UNL     1       8.008  -2.603  25.257  0.00  0.00    +0.022 A 
BRANCH   2   9
ATOM      8  C   UNL     1       9.852  -5.185  25.457  0.00  0.00    +0.012 C 
ATOM      9  C   UNL     1       8.327  -5.087  25.349  0.00  0.00    +0.016 C 
ATOM     10  C   UNL     1       7.683  -5.243  26.730  0.00  0.00    +0.012 C 
ENDBRANCH   2   9
BRANCH   3  11
ATOM     11  O   UNL     1       7.437  -4.988  22.536  0.00  0.00    -0.506 OA
ATOM     12  H   UNL     1       6.729  -4.919  21.877  0.00  0.00    +0.292 HD
ENDBRANCH   3  11
ENDBRANCH   1   6
BRANCH   1  13
ATOM     13  C   UNL     1       8.744   1.153  24.776  0.00  0.00    +0.013 A 
ATOM     14  C   UNL     1       8.373   2.484  24.518  0.00  0.00    +0.022 A 
ATOM     15  C   UNL     1       9.270   3.419  23.964  0.00  0.00    -0.002 A 
ATOM     16  C   UNL     1      10.543   2.960  23.607  0.00  0.00    +0.120 A 
ATOM     17  C   UNL     1      10.934   1.644  23.858  0.00  0.00    +0.047 A 
ATOM     18  C   UNL     1      10.043   0.750  24.461  0.00  0.00    +0.018 A 
BRANCH  15  19
ATOM     19  C   UNL     1       8.880   4.878  23.768  0.00  0.00    +0.016 C 
ATOM     20  C   UNL     1       8.749   5.665  25.077  0.00  0.00    +0.012 C 
ATOM     21  C   UNL     1       7.597   5.006  22.945  0.00  0.00    +0.012 C 
ENDBRANCH  15  19
BRANCH  16  22
ATOM     22  O   UNL     1      11.416   3.827  23.011  0.00  0.00    -0.506 OA
ATOM     23  H   UNL     1      12.310   3.658  23.351  0.00  0.00    +0.292 HD
ENDBRANCH  16  22
ENDBRANCH   1  13
TORSDOF 6
ENDMDL
MODEL 8
REMARK VINA RESULT:      -5.9      2.206      7.487
REMARK  Name = 
REMARK  10 active torsions:
REMARK  status: ('A' for Active; 'I' for Inactive)
REMARK    1  A    between atoms: C_1  and  C_2
REMARK    2  A    between atoms: C_2  and  C_3
REMARK    3  A    between atoms: C_2  and  C_4
REMARK    4  A    between atoms: C_6  and  S_7
REMARK    5  A    between atoms: S_7  and  C_8
REMARK    6  A    between atoms: C_11  and  O_12
REMARK    7  A    between atoms: C_13  and  C_15
REMARK    8  A    between atoms: C_15  and  C_16
REMARK    9  A    between atoms: C_15  and  C_17
REMARK   10  A    between atoms: C_20  and  O_21
REMARK                            x       y       z     vdW  Elec       q    Type
REMARK                         _______ _______ _______ _____ _____    ______ ____
ROOT
ATOM      1  S   UNL     1       6.349  -0.586  24.844  0.00  0.00    -0.089 S 
ENDROOT
BRANCH   1   6
ATOM      2  C   UNL     1       7.098  -4.612  24.657  0.00  0.00    -0.002 A 
ATOM      3  C   UNL     1       8.035  -4.755  25.688  0.00  0.00    +0.120 A 
ATOM      4  C   UNL     1       8.428  -3.661  26.461  0.00  0.00    +0.047 A 
ATOM      5  C   UNL     1       7.910  -2.393  26.193  0.00  0.00    +0.018 A 
ATOM      6  C   UNL     1       6.983  -2.215  25.166  0.00  0.00    +0.013 A 
ATOM      7  C   UNL     1       6.560  -3.327  24.430  0.00  0.00    +0.022 A 
BRANCH   2   9
ATOM      8  C   UNL     1       5.196  -5.884  23.703  0.00  0.00    +0.012 C 
ATOM      9  C   UNL     1       6.718  -5.711  23.674  0.00  0.00    +0.016 C 
ATOM     10  C   UNL     1       7.209  -5.554  22.232  0.00  0.00    +0.012 C 
ENDBRANCH   2   9
BRANCH   3  11
ATOM     11  O   UNL     1       8.606  -5.970  25.928  0.00  0.00    -0.506 OA
ATOM     12  H   UNL     1       9.569  -5.865  25.989  0.00  0.00    +0.292 HD
ENDBRANCH   3  11
ENDBRANCH   1   6
BRANCH   1  13
ATOM     13  C   UNL     1       7.570   0.216  23.810  0.00  0.00    +0.013 A 
ATOM     14  C   UNL     1       7.529   1.620  23.756  0.00  0.00    +0.022 A 
ATOM     15  C   UNL     1       8.478   2.372  23.036  0.00  0.00    -0.002 A 
ATOM     16  C   UNL     1       9.442   1.666  22.306  0.00  0.00    +0.120 A 
ATOM     17  C   UNL     1       9.504   0.273  22.348  0.00  0.00    +0.047 A 
ATOM     18  C   UNL     1       8.584  -0.447  23.116  0.00  0.00    +0.018 A 
BRANCH  15  19
ATOM     19  C   UNL     1       8.470   3.894  23.055  0.00  0.00    +0.016 C 
ATOM     20  C   UNL     1       9.207   4.503  24.255  0.00  0.00    +0.012 C 
ATOM     21  C   UNL     1       7.045   4.445  22.977  0.00  0.00    +0.012 C 
ENDBRANCH  15  19
BRANCH  16  22
ATOM     22  O   UNL     1      10.340   2.365  21.548  0.00  0.00    -0.506 OA
ATOM     23  H   UNL     1       9.899   3.145  21.176  0.00  0.00    +0.292 HD
ENDBRANCH  16  22
ENDBRANCH   1  13
TORSDOF 6
ENDMDL
MODEL 9
REMARK VINA RESULT:      -5.9      2.019      7.072
REMARK  Name = 
REMARK  10 active torsions:
REMARK  status: ('A' for Active; 'I' for Inactive)
REMARK    1  A    between atoms: C_1  and  C_2
REMARK    2  A    between atoms: C_2  and  C_3
REMARK    3  A    between atoms: C_2  and  C_4
REMARK    4  A    between atoms: C_6  and  S_7
REMARK    5  A    between atoms: S_7  and  C_8
REMARK    6  A    between atoms: C_11  and  O_12
REMARK    7  A    between atoms: C_13  and  C_15
REMARK    8  A    between atoms: C_15  and  C_16
REMARK    9  A    between atoms: C_15  and  C_17
REMARK   10  A    between atoms: C_20  and  O_21
REMARK                            x       y       z     vdW  Elec       q    Type
REMARK                         _______ _______ _______ _____ _____    ______ ____
ROOT
ATOM      1  S   UNL     1       9.335  -1.452  21.949  0.00  0.00    -0.089 S 
ENDROOT
BRANCH   1   6
ATOM      2  C   UNL     1       7.090  -4.486  23.549  0.00  0.00    -0.002 A 
ATOM      3  C   UNL     1       7.616  -4.550  24.845  0.00  0.00    +0.120 A 
ATOM      4  C   UNL     1       8.622  -3.674  25.258  0.00  0.00    +0.047 A 
ATOM      5  C   UNL     1       9.141  -2.735  24.366  0.00  0.00    +0.018 A 
ATOM      6  C   UNL     1       8.646  -2.653  23.065  0.00  0.00    +0.013 A 
ATOM      7  C   UNL     1       7.604  -3.503  22.677  0.00  0.00    +0.022 A 
BRANCH   2   9
ATOM      8  C   UNL     1       4.690  -4.898  23.084  0.00  0.00    +0.012 C 
ATOM      9  C   UNL     1       6.100  -5.486  22.967  0.00  0.00    +0.016 C 
ATOM     10  C   UNL     1       6.359  -5.968  21.537  0.00  0.00    +0.012 C 
ENDBRANCH   2   9
BRANCH   3  11
ATOM     11  O   UNL     1       7.173  -5.501  25.717  0.00  0.00    -0.506 OA
ATOM     12  H   UNL     1       6.796  -5.069  26.498  0.00  0.00    +0.292 HD
ENDBRANCH   3  11
ENDBRANCH   1   6
BRANCH   1  13
ATOM     13  C   UNL     1       9.296   0.107  22.828  0.00  0.00    +0.013 A 
ATOM     14  C   UNL     1       8.052   0.757  22.907  0.00  0.00    +0.022 A 
ATOM     15  C   UNL     1       7.875   1.954  23.630  0.00  0.00    -0.002 A 
ATOM     16  C   UNL     1       9.008   2.524  24.223  0.00  0.00    +0.120 A 
ATOM     17  C   UNL     1      10.252   1.894  24.160  0.00  0.00    +0.047 A 
ATOM     18  C   UNL     1      10.389   0.678  23.484  0.00  0.00    +0.018 A 
BRANCH  15  19
ATOM     19  C   UNL     1       6.505   2.601  23.776  0.00  0.00    +0.016 C 
ATOM     20  C   UNL     1       5.449   1.683  24.405  0.00  0.00    +0.012 C 
ATOM     21  C   UNL     1       6.001   3.146  22.439  0.00  0.00    +0.012 C 
ENDBRANCH  15  19
BRANCH  16  22
ATOM     22  O   UNL     1       8.882   3.716  24.880  0.00  0.00    -0.506 OA
ATOM     23  H   UNL     1       9.556   3.765  25.576  0.00  0.00    +0.292 HD
ENDBRANCH  16  22
ENDBRANCH   1  13
TORSDOF 6
ENDMDL
