MODEL 1
REMARK VINA RESULT:      -7.2      0.000      0.000
REMARK  Name = 
REMARK  8 active torsions:
REMARK  status: ('A' for Active; 'I' for Inactive)
REMARK    1  A    between atoms: N_1  and  S_2
REMARK    2  A    between atoms: S_2  and  O_5
REMARK    3  A    between atoms: O_5  and  C_6
REMARK    4  A    between atoms: C_9  and  C_10
REMARK    5  A    between atoms: C_10  and  N_11
REMARK    6  A    between atoms: N_11  and  N_12
REMARK    7  A    between atoms: N_11  and  C_17
REMARK    8  A    between atoms: C_20  and  C_23
REMARK                            x       y       z     vdW  Elec       q    Type
REMARK                         _______ _______ _______ _____ _____    ______ ____
ROOT
ATOM      1  C   UNL     1       8.833  -4.272  24.448  0.00  0.00    +0.165 C 
ENDROOT
BRANCH   1   5
ATOM      2  C   UNL     1       9.911  -0.069  24.287  0.00  0.00    +0.158 A 
ATOM      3  C   UNL     1      10.262  -0.929  23.245  0.00  0.00    +0.049 A 
ATOM      4  C   UNL     1       9.895  -2.280  23.281  0.00  0.00    +0.009 A 
ATOM      5  C   UNL     1       9.164  -2.792  24.362  0.00  0.00    -0.028 A 
ATOM      6  C   UNL     1       8.816  -1.909  25.395  0.00  0.00    +0.009 A 
ATOM      7  C   UNL     1       9.163  -0.556  25.350  0.00  0.00    +0.049 A 
BRANCH   2   8
ATOM      8  O   UNL     1      10.349   1.227  24.170  0.00  0.00    -0.334 OA
BRANCH   8   9
ATOM      9  S   UNL     1       9.514   2.340  23.325  0.00  0.00    +0.189 S 
ATOM     10  O   UNL     1       8.146   1.892  23.175  0.00  0.00    -0.119 OA
ATOM     11  O   UNL     1       9.831   3.673  23.782  0.00  0.00    -0.119 OA
BRANCH   9  12
ATOM     12  N   UNL     1      10.165   2.234  21.779  0.00  0.00    -0.174 NA
ATOM     13  H   UNL     1      11.178   2.344  21.827  0.00  0.00    +0.147 HD
ATOM     14  H   UNL     1       9.894   1.336  21.377  0.00  0.00    +0.147 HD
ENDBRANCH   9  12
ENDBRANCH   8   9
ENDBRANCH   2   8
ENDBRANCH   1   5
BRANCH   1  15
ATOM     15  N   UNL     1       7.392  -4.579  24.308  0.00  0.00    -0.233 N 
BRANCH  15  16
ATOM     16  C   UNL     1       6.734  -5.129  25.437  0.00  0.00    +0.051 A 
ATOM     17  C   UNL     1       7.262  -5.042  26.738  0.00  0.00    +0.026 A 
ATOM     18  C   UNL     1       6.599  -5.603  27.845  0.00  0.00    +0.021 A 
ATOM     19  C   UNL     1       5.389  -6.274  27.674  0.00  0.00    +0.052 A 
ATOM     20  C   UNL     1       4.858  -6.403  26.394  0.00  0.00    +0.021 A 
ATOM     21  C   UNL     1       5.533  -5.843  25.303  0.00  0.00    +0.026 A 
BRANCH  19  22
ATOM     22  C   UNL     1       4.697  -6.831  28.803  0.00  0.00    +0.099 C 
ATOM     23  N   UNL     1       4.135  -7.266  29.719  0.00  0.00    -0.191 NA
ENDBRANCH  19  22
ENDBRANCH  15  16
BRANCH  15  24
ATOM     24  N   UNL     1       6.939  -4.778  22.984  0.00  0.00    -0.233 N 
ATOM     25  C   UNL     1       6.129  -3.934  22.264  0.00  0.00    +0.244 A 
ATOM     26  N   UNL     1       5.866  -4.443  21.082  0.00  0.00    -0.137 NA
ATOM     27  N   UNL     1       6.519  -5.646  20.996  0.00  0.00    -0.137 NA
ATOM     28  C   UNL     1       7.142  -5.840  22.138  0.00  0.00    +0.244 A 
ENDBRANCH  15  24
ENDBRANCH   1  15
TORSDOF 8
ENDMDL
MODEL 2
REMARK VINA RESULT:      -7.1      5.035      8.237
REMARK  Name = 
REMARK  8 active torsions:
REMARK  status: ('A' for Active; 'I' for Inactive)
REMARK    1  A    between atoms: N_1  and  S_2
REMARK    2  A    between atoms: S_2  and  O_5
REMARK    3  A    between atoms: O_5  and  C_6
REMARK    4  A    between atoms: C_9  and  C_10
REMARK    5  A    between atoms: C_10  and  N_11
REMARK    6  A    between atoms: N_11  and  N_12
REMARK    7  A    between atoms: N_11  and  C_17
REMARK    8  A    between atoms: C_20  and  C_23
REMARK                            x       y       z     vdW  Elec       q    Type
REMARK                         _______ _______ _______ _____ _____    ______ ____
ROOT
ATOM      1  C   UNL     1       8.272  -2.949  22.453  0.00  0.00    +0.165 C 
ENDROOT
BRANCH   1   5
ATOM      2  C   UNL     1       4.748  -5.475  22.689  0.00  0.00    +0.158 A 
ATOM      3  C   UNL     1       4.696  -4.147  23.115  0.00  0.00    +0.049 A 
ATOM      4  C   UNL     1       5.823  -3.322  23.017  0.00  0.00    +0.009 A 
ATOM      5  C   UNL     1       7.024  -3.812  22.486  0.00  0.00    -0.028 A 
ATOM      6  C   UNL     1       7.053  -5.149  22.059  0.00  0.00    +0.009 A 
ATOM      7  C   UNL     1       5.923  -5.967  22.135  0.00  0.00    +0.049 A 
BRANCH   2   8
ATOM      8  O   UNL     1       3.601  -6.208  22.859  0.00  0.00    -0.334 OA
BRANCH   8   9
ATOM      9  S   UNL     1       3.250  -6.933  24.275  0.00  0.00    +0.189 S 
ATOM     10  O   UNL     1       4.474  -7.422  24.871  0.00  0.00    -0.119 OA
ATOM     11  O   UNL     1       2.297  -6.150  25.028  0.00  0.00    -0.119 OA
BRANCH   9  12
ATOM     12  N   UNL     1       2.420  -8.320  23.814  0.00  0.00    -0.174 NA
ATOM     13  H   UNL     1       1.878  -8.670  24.604  0.00  0.00    +0.147 HD
ATOM     14  H   UNL     1       1.831  -8.091  23.014  0.00  0.00    +0.147 HD
ENDBRANCH   9  12
ENDBRANCH   8   9
ENDBRANCH   2   8
ENDBRANCH   1   5
BRANCH   1  15
ATOM     15  N   UNL     1       8.586  -2.289  23.740  0.00  0.00    -0.233 N 
BRANCH  15  16
ATOM     16  C   UNL     1       9.181  -1.004  23.682  0.00  0.00    +0.051 A 
ATOM     17  C   UNL     1       9.570  -0.296  24.834  0.00  0.00    +0.026 A 
ATOM     18  C   UNL     1      10.151   0.983  24.757  0.00  0.00    +0.021 A 
ATOM     19  C   UNL     1      10.349   1.591  23.518  0.00  0.00    +0.052 A 
ATOM     20  C   UNL     1       9.945   0.929  22.363  0.00  0.00    +0.021 A 
ATOM     21  C   UNL     1       9.365  -0.341  22.458  0.00  0.00    +0.026 A 
BRANCH  19  22
ATOM     22  C   UNL     1      10.960   2.888  23.431  0.00  0.00    +0.099 C 
ATOM     23  N   UNL     1      11.459   3.932  23.346  0.00  0.00    -0.191 NA
ENDBRANCH  19  22
ENDBRANCH  15  16
BRANCH  15  24
ATOM     24  N   UNL     1       8.742  -3.157  24.845  0.00  0.00    -0.233 N 
ATOM     25  C   UNL     1       9.620  -4.208  24.938  0.00  0.00    +0.244 A 
ATOM     26  N   UNL     1       9.475  -4.834  26.083  0.00  0.00    -0.137 NA
ATOM     27  N   UNL     1       8.488  -4.186  26.783  0.00  0.00    -0.137 NA
ATOM     28  C   UNL     1       8.051  -3.201  26.031  0.00  0.00    +0.244 A 
ENDBRANCH  15  24
ENDBRANCH   1  15
TORSDOF 8
ENDMDL
MODEL 3
REMARK VINA RESULT:      -6.9      5.040      8.476
REMARK  Name = 
REMARK  8 active torsions:
REMARK  status: ('A' for Active; 'I' for Inactive)
REMARK    1  A    between atoms: N_1  and  S_2
REMARK    2  A    between atoms: S_2  and  O_5
REMARK    3  A    between atoms: O_5  and  C_6
REMARK    4  A    between atoms: C_9  and  C_10
REMARK    5  A    between atoms: C_10  and  N_11
REMARK    6  A    between atoms: N_11  and  N_12
REMARK    7  A    between atoms: N_11  and  C_17
REMARK    8  A    between atoms: C_20  and  C_23
REMARK                            x       y       z     vdW  Elec       q    Type
REMARK                         _______ _______ _______ _____ _____    ______ ____
ROOT
ATOM      1  C   UNL     1      10.139   2.221  22.284  0.00  0.00    +0.165 C 
ENDROOT
BRANCH   1   5
ATOM      2  C   UNL     1      10.094  -1.954  23.478  0.00  0.00    +0.158 A 
ATOM      3  C   UNL     1      10.354  -0.953  24.415  0.00  0.00    +0.049 A 
ATOM      4  C   UNL     1      10.345   0.396  24.040  0.00  0.00    +0.009 A 
ATOM      5  C   UNL     1      10.070   0.767  22.717  0.00  0.00    -0.028 A 
ATOM      6  C   UNL     1       9.805  -0.254  21.791  0.00  0.00    +0.009 A 
ATOM      7  C   UNL     1       9.792  -1.600  22.169  0.00  0.00    +0.049 A 
BRANCH   2   8
ATOM      8  O   UNL     1      10.160  -3.244  23.940  0.00  0.00    -0.334 OA
BRANCH   8   9
ATOM      9  S   UNL     1       8.830  -4.051  24.421  0.00  0.00    +0.189 S 
ATOM     10  O   UNL     1       8.396  -3.527  25.698  0.00  0.00    -0.119 OA
ATOM     11  O   UNL     1       7.912  -4.227  23.319  0.00  0.00    -0.119 OA
BRANCH   9  12
ATOM     12  N   UNL     1       9.406  -5.591  24.770  0.00  0.00    -0.174 NA
ATOM     13  H   UNL     1       9.757  -5.615  25.727  0.00  0.00    +0.147 HD
ATOM     14  H   UNL     1       8.649  -6.258  24.621  0.00  0.00    +0.147 HD
ENDBRANCH   9  12
ENDBRANCH   8   9
ENDBRANCH   2   8
ENDBRANCH   1   5
BRANCH   1  15
ATOM     15  N   UNL     1       9.526   3.167  23.243  0.00  0.00    -0.233 N 
BRANCH  15  16
ATOM     16  C   UNL     1       8.115   3.137  23.372  0.00  0.00    +0.051 A 
ATOM     17  C   UNL     1       7.471   2.841  24.587  0.00  0.00    +0.026 A 
ATOM     18  C   UNL     1       6.068   2.807  24.693  0.00  0.00    +0.021 A 
ATOM     19  C   UNL     1       5.273   3.061  23.576  0.00  0.00    +0.052 A 
ATOM     20  C   UNL     1       5.882   3.326  22.353  0.00  0.00    +0.021 A 
ATOM     21  C   UNL     1       7.279   3.352  22.265  0.00  0.00    +0.026 A 
BRANCH  19  22
ATOM     22  C   UNL     1       3.840   3.048  23.682  0.00  0.00    +0.099 C 
ATOM     23  N   UNL     1       2.684   3.053  23.768  0.00  0.00    -0.191 NA
ENDBRANCH  19  22
ENDBRANCH  15  16
BRANCH  15  24
ATOM     24  N   UNL     1      10.300   4.311  23.546  0.00  0.00    -0.233 N 
ATOM     25  C   UNL     1      11.661   4.433  23.411  0.00  0.00    +0.244 A 
ATOM     26  N   UNL     1      12.062   5.614  23.823  0.00  0.00    -0.137 NA
ATOM     27  N   UNL     1      10.951   6.308  24.231  0.00  0.00    -0.137 NA
ATOM     28  C   UNL     1       9.912   5.517  24.075  0.00  0.00    +0.244 A 
ENDBRANCH  15  24
ENDBRANCH   1  15
TORSDOF 8
ENDMDL
MODEL 4
REMARK VINA RESULT:      -6.8      4.189      7.763
REMARK  Name = 
REMARK  8 active torsions:
REMARK  status: ('A' for Active; 'I' for Inactive)
REMARK    1  A    between atoms: N_1  and  S_2
REMARK    2  A    between atoms: S_2  and  O_5
REMARK    3  A    between atoms: O_5  and  C_6
REMARK    4  A    between atoms: C_9  and  C_10
REMARK    5  A    between atoms: C_10  and  N_11
REMARK    6  A    between atoms: N_11  and  N_12
REMARK    7  A    between atoms: N_11  and  C_17
REMARK    8  A    between atoms: C_20  and  C_23
REMARK                            x       y       z     vdW  Elec       q    Type
REMARK                         _______ _______ _______ _____ _____    ______ ____
ROOT
ATOM      1  C   UNL     1       9.958  -2.961  23.937  0.00  0.00    +0.165 C 
ENDROOT
BRANCH   1   5
ATOM      2  C   UNL     1       7.512  -4.710  27.069  0.00  0.00    +0.158 A 
ATOM      3  C   UNL     1       8.410  -5.499  26.349  0.00  0.00    +0.049 A 
ATOM      4  C   UNL     1       9.218  -4.934  25.356  0.00  0.00    +0.009 A 
ATOM      5  C   UNL     1       9.145  -3.565  25.068  0.00  0.00    -0.028 A 
ATOM      6  C   UNL     1       8.239  -2.788  25.807  0.00  0.00    +0.009 A 
ATOM      7  C   UNL     1       7.448  -3.346  26.815  0.00  0.00    +0.049 A 
BRANCH   2   8
ATOM      8  O   UNL     1       6.742  -5.366  27.996  0.00  0.00    -0.334 OA
BRANCH   8   9
ATOM      9  S   UNL     1       5.387  -6.165  27.573  0.00  0.00    +0.189 S 
ATOM     10  O   UNL     1       4.236  -5.426  28.044  0.00  0.00    -0.119 OA
ATOM     11  O   UNL     1       5.480  -6.644  26.213  0.00  0.00    -0.119 OA
BRANCH   9  12
ATOM     12  N   UNL     1       5.425  -7.545  28.532  0.00  0.00    -0.174 NA
ATOM     13  H   UNL     1       4.472  -7.832  28.755  0.00  0.00    +0.147 HD
ATOM     14  H   UNL     1       5.939  -8.270  28.032  0.00  0.00    +0.147 HD
ENDBRANCH   9  12
ENDBRANCH   8   9
ENDBRANCH   2   8
ENDBRANCH   1   5
BRANCH   1  15
ATOM     15  N   UNL     1       9.206  -2.004  23.095  0.00  0.00    -0.233 N 
BRANCH  15  16
ATOM     16  C   UNL     1       9.603  -0.644  23.147  0.00  0.00    +0.051 A 
ATOM     17  C   UNL     1       9.597   0.191  22.015  0.00  0.00    +0.026 A 
ATOM     18  C   UNL     1      10.003   1.536  22.083  0.00  0.00    +0.021 A 
ATOM     19  C   UNL     1      10.435   2.079  23.293  0.00  0.00    +0.052 A 
ATOM     20  C   UNL     1      10.481   1.268  24.424  0.00  0.00    +0.021 A 
ATOM     21  C   UNL     1      10.078  -0.069  24.337  0.00  0.00    +0.026 A 
BRANCH  19  22
ATOM     22  C   UNL     1      10.831   3.457  23.375  0.00  0.00    +0.099 C 
ATOM     23  N   UNL     1      11.140   4.572  23.453  0.00  0.00    -0.191 NA
ENDBRANCH  19  22
ENDBRANCH  15  16
BRANCH  15  24
ATOM     24  N   UNL     1       7.901  -2.409  22.733  0.00  0.00    -0.233 N 
ATOM     25  C   UNL     1       7.557  -3.578  22.101  0.00  0.00    +0.244 A 
ATOM     26  N   UNL     1       6.264  -3.618  21.875  0.00  0.00    -0.137 NA
ATOM     27  N   UNL     1       5.722  -2.461  22.374  0.00  0.00    -0.137 NA
ATOM     28  C   UNL     1       6.708  -1.745  22.869  0.00  0.00    +0.244 A 
ENDBRANCH  15  24
ENDBRANCH   1  15
TORSDOF 8
ENDMDL
MODEL 5
REMARK VINA RESULT:      -6.5      1.205      1.593
REMARK  Name = 
REMARK  8 active torsions:
REMARK  status: ('A' for Active; 'I' for Inactive)
REMARK    1  A    between atoms: N_1  and  S_2
REMARK    2  A    between atoms: S_2  and  O_5
REMARK    3  A    between atoms: O_5  and  C_6
REMARK    4  A    between atoms: C_9  and  C_10
REMARK    5  A    between atoms: C_10  and  N_11
REMARK    6  A    between atoms: N_11  and  N_12
REMARK    7  A    between atoms: N_11  and  C_17
REMARK    8  A    between atoms: C_20  and  C_23
REMARK                            x       y       z     vdW  Elec       q    Type
REMARK                         _______ _______ _______ _____ _____    ______ ____
ROOT
ATOM      1  C   UNL     1       8.700  -3.459  23.823  0.00  0.00    +0.165 C 
ENDROOT
BRANCH   1   5
ATOM      2  C   UNL     1       8.674   0.846  24.391  0.00  0.00    +0.158 A 
ATOM      3  C   UNL     1       7.722   0.234  23.574  0.00  0.00    +0.049 A 
ATOM      4  C   UNL     1       7.711  -1.156  23.408  0.00  0.00    +0.009 A 
ATOM      5  C   UNL     1       8.654  -1.961  24.062  0.00  0.00    -0.028 A 
ATOM      6  C   UNL     1       9.598  -1.326  24.884  0.00  0.00    +0.009 A 
ATOM      7  C   UNL     1       9.596   0.059  25.068  0.00  0.00    +0.049 A 
BRANCH   2   8
ATOM      8  O   UNL     1       8.619   2.215  24.459  0.00  0.00    -0.334 OA
BRANCH   8   9
ATOM      9  S   UNL     1       9.446   3.158  23.421  0.00  0.00    +0.189 S 
ATOM     10  O   UNL     1       9.734   4.424  24.059  0.00  0.00    -0.119 OA
ATOM     11  O   UNL     1      10.471   2.396  22.745  0.00  0.00    -0.119 OA
BRANCH   9  12
ATOM     12  N   UNL     1       8.315   3.529  22.235  0.00  0.00    -0.174 NA
ATOM     13  H   UNL     1       8.721   4.186  21.569  0.00  0.00    +0.147 HD
ATOM     14  H   UNL     1       8.020   2.660  21.789  0.00  0.00    +0.147 HD
ENDBRANCH   9  12
ENDBRANCH   8   9
ENDBRANCH   2   8
ENDBRANCH   1   5
BRANCH   1  15
ATOM     15  N   UNL     1       7.381  -4.126  23.905  0.00  0.00    -0.233 N 
BRANCH  15  16
ATOM     16  C   UNL     1       7.010  -4.674  25.159  0.00  0.00    +0.051 A 
ATOM     17  C   UNL     1       7.954  -5.048  26.132  0.00  0.00    +0.026 A 
ATOM     18  C   UNL     1       7.567  -5.599  27.367  0.00  0.00    +0.021 A 
ATOM     19  C   UNL     1       6.218  -5.799  27.656  0.00  0.00    +0.052 A 
ATOM     20  C   UNL     1       5.262  -5.468  26.699  0.00  0.00    +0.021 A 
ATOM     21  C   UNL     1       5.665  -4.925  25.474  0.00  0.00    +0.026 A 
BRANCH  19  22
ATOM     22  C   UNL     1       5.814  -6.343  28.922  0.00  0.00    +0.099 C 
ATOM     23  N   UNL     1       5.486  -6.767  29.951  0.00  0.00    -0.191 NA
ENDBRANCH  19  22
ENDBRANCH  15  16
BRANCH  15  24
ATOM     24  N   UNL     1       6.860  -4.596  22.678  0.00  0.00    -0.233 N 
ATOM     25  C   UNL     1       7.102  -5.821  22.106  0.00  0.00    +0.244 A 
ATOM     26  N   UNL     1       6.497  -5.916  20.944  0.00  0.00    -0.137 NA
ATOM     27  N   UNL     1       5.824  -4.739  20.732  0.00  0.00    -0.137 NA
ATOM     28  C   UNL     1       6.060  -3.958  21.763  0.00  0.00    +0.244 A 
ENDBRANCH  15  24
ENDBRANCH   1  15
TORSDOF 8
ENDMDL
MODEL 6
REMARK VINA RESULT:      -6.4      2.798      3.381
REMARK  Name = 
REMARK  8 active torsions:
REMARK  status: ('A' for Active; 'I' for Inactive)
REMARK    1  A    between atoms: N_1  and  S_2
REMARK    2  A    between atoms: S_2  and  O_5
REMARK    3  A    between atoms: O_5  and  C_6
REMARK    4  A    between atoms: C_9  and  C_10
REMARK    5  A    between atoms: C_10  and  N_11
REMARK    6  A    between atoms: N_11  and  N_12
REMARK    7  A    between atoms: N_11  and  C_17
REMARK    8  A    between atoms: C_20  and  C_23
REMARK                            x       y       z     vdW  Elec       q    Type
REMARK                         _______ _______ _______ _____ _____    ______ ____
ROOT
ATOM      1  C   UNL     1       9.250  -2.610  22.972  0.00  0.00    +0.165 C 
ENDROOT
BRANCH   1   5
ATOM      2  C   UNL     1      10.253   1.615  23.002  0.00  0.00    +0.158 A 
ATOM      3  C   UNL     1      10.533   0.814  24.110  0.00  0.00    +0.049 A 
ATOM      4  C   UNL     1      10.234  -0.554  24.095  0.00  0.00    +0.009 A 
ATOM      5  C   UNL     1       9.652  -1.146  22.965  0.00  0.00    -0.028 A 
ATOM      6  C   UNL     1       9.384  -0.324  21.860  0.00  0.00    +0.009 A 
ATOM      7  C   UNL     1       9.702   1.037  21.865  0.00  0.00    +0.049 A 
BRANCH   2   8
ATOM      8  O   UNL     1      10.553   2.947  23.131  0.00  0.00    -0.334 OA
BRANCH   8   9
ATOM      9  S   UNL     1       9.480   4.012  23.738  0.00  0.00    +0.189 S 
ATOM     10  O   UNL     1       8.784   3.400  24.849  0.00  0.00    -0.119 OA
ATOM     11  O   UNL     1      10.067   5.328  23.840  0.00  0.00    -0.119 OA
BRANCH   9  12
ATOM     12  N   UNL     1       8.319   4.136  22.529  0.00  0.00    -0.174 NA
ATOM     13  H   UNL     1       7.388   4.113  22.946  0.00  0.00    +0.147 HD
ATOM     14  H   UNL     1       8.487   4.998  22.009  0.00  0.00    +0.147 HD
ENDBRANCH   9  12
ENDBRANCH   8   9
ENDBRANCH   2   8
ENDBRANCH   1   5
BRANCH   1  15
ATOM     15  N   UNL     1       7.796  -2.838  23.130  0.00  0.00    -0.233 N 
BRANCH  15  16
ATOM     16  C   UNL     1       7.170  -2.265  24.266  0.00  0.00    +0.051 A 
ATOM     17  C   UNL     1       7.345  -2.775  25.565  0.00  0.00    +0.026 A 
ATOM     18  C   UNL     1       6.708  -2.199  26.680  0.00  0.00    +0.021 A 
ATOM     19  C   UNL     1       5.869  -1.097  26.518  0.00  0.00    +0.052 A 
ATOM     20  C   UNL     1       5.652  -0.590  25.240  0.00  0.00    +0.021 A 
ATOM     21  C   UNL     1       6.291  -1.178  24.142  0.00  0.00    +0.026 A 
BRANCH  19  22
ATOM     22  C   UNL     1       5.232  -0.491  27.653  0.00  0.00    +0.099 C 
ATOM     23  N   UNL     1       4.712  -0.017  28.575  0.00  0.00    -0.191 NA
ENDBRANCH  19  22
ENDBRANCH  15  16
BRANCH  15  24
ATOM     24  N   UNL     1       7.284  -3.974  22.463  0.00  0.00    -0.233 N 
ATOM     25  C   UNL     1       6.320  -3.978  21.486  0.00  0.00    +0.244 A 
ATOM     26  N   UNL     1       6.045  -5.208  21.112  0.00  0.00    -0.137 NA
ATOM     27  N   UNL     1       6.847  -6.048  21.842  0.00  0.00    -0.137 NA
ATOM     28  C   UNL     1       7.568  -5.303  22.652  0.00  0.00    +0.244 A 
ENDBRANCH  15  24
ENDBRANCH   1  15
TORSDOF 8
ENDMDL
MODEL 7
REMARK VINA RESULT:      -6.4      1.962      4.777
REMARK  Name = 
REMARK  8 active torsions:
REMARK  status: ('A' for Active; 'I' for Inactive)
REMARK    1  A    between atoms: N_1  and  S_2
REMARK    2  A    between atoms: S_2  and  O_5
REMARK    3  A    between atoms: O_5  and  C_6
REMARK    4  A    between atoms: C_9  and  C_10
REMARK    5  A    between atoms: C_10  and  N_11
REMARK    6  A    between atoms: N_11  and  N_12
REMARK    7  A    between atoms: N_11  and  C_17
REMARK    8  A    between atoms: C_20  and  C_23
REMARK                            x       y       z     vdW  Elec       q    Type
REMARK                         _______ _______ _______ _____ _____    ______ ____
ROOT
ATOM      1  C   UNL     1       5.791  -2.391  26.814  0.00  0.00    +0.165 C 
ENDROOT
BRANCH   1   5
ATOM      2  C   UNL     1       7.906   0.620  24.508  0.00  0.00    +0.158 A 
ATOM      3  C   UNL     1       6.614   0.232  24.149  0.00  0.00    +0.049 A 
ATOM      4  C   UNL     1       5.919  -0.720  24.904  0.00  0.00    +0.009 A 
ATOM      5  C   UNL     1       6.506  -1.299  26.038  0.00  0.00    -0.028 A 
ATOM      6  C   UNL     1       7.803  -0.891  26.385  0.00  0.00    +0.009 A 
ATOM      7  C   UNL     1       8.489   0.076  25.645  0.00  0.00    +0.049 A 
BRANCH   2   8
ATOM      8  O   UNL     1       8.512   1.533  23.683  0.00  0.00    -0.334 OA
BRANCH   8   9
ATOM      9  S   UNL     1      10.008   1.289  23.087  0.00  0.00    +0.189 S 
ATOM     10  O   UNL     1      10.972   1.927  23.956  0.00  0.00    -0.119 OA
ATOM     11  O   UNL     1      10.166  -0.079  22.649  0.00  0.00    -0.119 OA
BRANCH   9  12
ATOM     12  N   UNL     1      10.030   2.210  21.681  0.00  0.00    -0.174 NA
ATOM     13  H   UNL     1      10.995   2.380  21.400  0.00  0.00    +0.147 HD
ATOM     14  H   UNL     1       9.501   1.715  20.964  0.00  0.00    +0.147 HD
ENDBRANCH   9  12
ENDBRANCH   8   9
ENDBRANCH   2   8
ENDBRANCH   1   5
BRANCH   1  15
ATOM     15  N   UNL     1       6.293  -3.756  26.539  0.00  0.00    -0.233 N 
BRANCH  15  16
ATOM     16  C   UNL     1       6.264  -4.199  25.193  0.00  0.00    +0.051 A 
ATOM     17  C   UNL     1       7.434  -4.436  24.448  0.00  0.00    +0.026 A 
ATOM     18  C   UNL     1       7.385  -4.866  23.109  0.00  0.00    +0.021 A 
ATOM     19  C   UNL     1       6.157  -5.062  22.478  0.00  0.00    +0.052 A 
ATOM     20  C   UNL     1       4.983  -4.805  23.180  0.00  0.00    +0.021 A 
ATOM     21  C   UNL     1       5.050  -4.373  24.510  0.00  0.00    +0.026 A 
BRANCH  19  22
ATOM     22  C   UNL     1       6.100  -5.521  21.118  0.00  0.00    +0.099 C 
ATOM     23  N   UNL     1       6.044  -5.903  20.024  0.00  0.00    -0.191 NA
ENDBRANCH  19  22
ENDBRANCH  15  16
BRANCH  15  24
ATOM     24  N   UNL     1       6.270  -4.644  27.639  0.00  0.00    -0.233 N 
ATOM     25  C   UNL     1       7.016  -5.789  27.777  0.00  0.00    +0.244 A 
ATOM     26  N   UNL     1       6.719  -6.402  28.900  0.00  0.00    -0.137 NA
ATOM     27  N   UNL     1       5.764  -5.651  29.539  0.00  0.00    -0.137 NA
ATOM     28  C   UNL     1       5.496  -4.617  28.772  0.00  0.00    +0.244 A 
ENDBRANCH  15  24
ENDBRANCH   1  15
TORSDOF 8
ENDMDL
MODEL 8
REMARK VINA RESULT:      -6.3      2.481      3.598
REMARK  Name = 
REMARK  8 active torsions:
REMARK  status: ('A' for Active; 'I' for Inactive)
REMARK    1  A    between atoms: N_1  and  S_2
REMARK    2  A    between atoms: S_2  and  O_5
REMARK    3  A    between atoms: O_5  and  C_6
REMARK    4  A    between atoms: C_9  and  C_10
REMARK    5  A    between atoms: C_10  and  N_11
REMARK    6  A    between atoms: N_11  and  N_12
REMARK    7  A    between atoms: N_11  and  C_17
REMARK    8  A    between atoms: C_20  and  C_23
REMARK                            x       y       z     vdW  Elec       q    Type
REMARK                         _______ _______ _______ _____ _____    ______ ____
ROOT
ATOM      1  C   UNL     1       7.882  -3.544  22.451  0.00  0.00    +0.165 C 
ENDROOT
BRANCH   1   5
ATOM      2  C   UNL     1       9.324   0.332  23.774  0.00  0.00    +0.158 A 
ATOM      3  C   UNL     1      10.223  -0.697  23.489  0.00  0.00    +0.049 A 
ATOM      4  C   UNL     1       9.763  -1.940  23.037  0.00  0.00    +0.009 A 
ATOM      5  C   UNL     1       8.393  -2.174  22.860  0.00  0.00    -0.028 A 
ATOM      6  C   UNL     1       7.507  -1.124  23.148  0.00  0.00    +0.009 A 
ATOM      7  C   UNL     1       7.965   0.125  23.577  0.00  0.00    +0.049 A 
BRANCH   2   8
ATOM      8  O   UNL     1       9.874   1.499  24.242  0.00  0.00    -0.334 OA
BRANCH   8   9
ATOM      9  S   UNL     1      10.013   2.819  23.299  0.00  0.00    +0.189 S 
ATOM     10  O   UNL     1       8.782   3.577  23.364  0.00  0.00    -0.119 OA
ATOM     11  O   UNL     1      11.303   3.444  23.480  0.00  0.00    -0.119 OA
BRANCH   9  12
ATOM     12  N   UNL     1      10.040   2.190  21.740  0.00  0.00    -0.174 NA
ATOM     13  H   UNL     1      10.553   2.823  21.126  0.00  0.00    +0.147 HD
ATOM     14  H   UNL     1      10.461   1.262  21.775  0.00  0.00    +0.147 HD
ENDBRANCH   9  12
ENDBRANCH   8   9
ENDBRANCH   2   8
ENDBRANCH   1   5
BRANCH   1  15
ATOM     15  N   UNL     1       7.304  -4.332  23.563  0.00  0.00    -0.233 N 
BRANCH  15  16
ATOM     16  C   UNL     1       5.904  -4.549  23.544  0.00  0.00    +0.051 A 
ATOM     17  C   UNL     1       4.990  -3.649  24.122  0.00  0.00    +0.026 A 
ATOM     18  C   UNL     1       3.603  -3.886  24.102  0.00  0.00    +0.021 A 
ATOM     19  C   UNL     1       3.096  -5.041  23.507  0.00  0.00    +0.052 A 
ATOM     20  C   UNL     1       3.978  -5.965  22.955  0.00  0.00    +0.021 A 
ATOM     21  C   UNL     1       5.355  -5.715  22.987  0.00  0.00    +0.026 A 
BRANCH  19  22
ATOM     22  C   UNL     1       1.680  -5.280  23.465  0.00  0.00    +0.099 C 
ATOM     23  N   UNL     1       0.537  -5.470  23.415  0.00  0.00    -0.191 NA
ENDBRANCH  19  22
ENDBRANCH  15  16
BRANCH  15  24
ATOM     24  N   UNL     1       8.068  -4.353  24.752  0.00  0.00    -0.233 N 
ATOM     25  C   UNL     1       9.183  -5.119  24.991  0.00  0.00    +0.244 A 
ATOM     26  N   UNL     1       9.622  -4.928  26.214  0.00  0.00    -0.137 NA
ATOM     27  N   UNL     1       8.797  -4.007  26.809  0.00  0.00    -0.137 NA
ATOM     28  C   UNL     1       7.869  -3.684  25.934  0.00  0.00    +0.244 A 
ENDBRANCH  15  24
ENDBRANCH   1  15
TORSDOF 8
ENDMDL
MODEL 9
REMARK VINA RESULT:      -6.3      2.470      3.566
REMARK  Name = 
REMARK  8 active torsions:
REMARK  status: ('A' for Active; 'I' for Inactive)
REMARK    1  A    between atoms: N_1  and  S_2
REMARK    2  A    between atoms: S_2  and  O_5
REMARK    3  A    between atoms: O_5  and  C_6
REMARK    4  A    between atoms: C_9  and  C_10
REMARK    5  A    between atoms: C_10  and  N_11
REMARK    6  A    between atoms: N_11  and  N_12
REMARK    7  A    between atoms: N_11  and  C_17
REMARK    8  A    between atoms: C_20  and  C_23
REMARK                            x       y       z     vdW  Elec       q    Type
REMARK                         _______ _______ _______ _____ _____    ______ ____
ROOT
ATOM      1  C   UNL     1       5.925  -2.798  25.897  0.00  0.00    +0.165 C 
ENDROOT
BRANCH   1   5
ATOM      2  C   UNL     1       7.920   0.734  24.348  0.00  0.00    +0.158 A 
ATOM      3  C   UNL     1       7.037   0.010  23.544  0.00  0.00    +0.049 A 
ATOM      4  C   UNL     1       6.372  -1.114  24.048  0.00  0.00    +0.009 A 
ATOM      5  C   UNL     1       6.578  -1.533  25.370  0.00  0.00    -0.028 A 
ATOM      6  C   UNL     1       7.464  -0.788  26.162  0.00  0.00    +0.009 A 
ATOM      7  C   UNL     1       8.111   0.348  25.668  0.00  0.00    +0.049 A 
BRANCH   2   8
ATOM      8  O   UNL     1       8.544   1.798  23.749  0.00  0.00    -0.334 OA
BRANCH   8   9
ATOM      9  S   UNL     1      10.031   1.663  23.098  0.00  0.00    +0.189 S 
ATOM     10  O   UNL     1      10.873   2.718  23.618  0.00  0.00    -0.119 OA
ATOM     11  O   UNL     1      10.460   0.283  23.087  0.00  0.00    -0.119 OA
BRANCH   9  12
ATOM     12  N   UNL     1       9.795   2.067  21.484  0.00  0.00    -0.174 NA
ATOM     13  H   UNL     1       9.698   3.078  21.396  0.00  0.00    +0.147 HD
ATOM     14  H   UNL     1      10.582   1.707  20.944  0.00  0.00    +0.147 HD
ENDBRANCH   9  12
ENDBRANCH   8   9
ENDBRANCH   2   8
ENDBRANCH   1   5
BRANCH   1  15
ATOM     15  N   UNL     1       6.355  -4.034  25.207  0.00  0.00    -0.233 N 
BRANCH  15  16
ATOM     16  C   UNL     1       5.348  -4.975  24.875  0.00  0.00    +0.051 A 
ATOM     17  C   UNL     1       5.167  -6.174  25.589  0.00  0.00    +0.026 A 
ATOM     18  C   UNL     1       4.168  -7.101  25.240  0.00  0.00    +0.021 A 
ATOM     19  C   UNL     1       3.328  -6.853  24.155  0.00  0.00    +0.052 A 
ATOM     20  C   UNL     1       3.504  -5.690  23.410  0.00  0.00    +0.021 A 
ATOM     21  C   UNL     1       4.506  -4.781  23.769  0.00  0.00    +0.026 A 
BRANCH  19  22
ATOM     22  C   UNL     1       2.293  -7.785  23.805  0.00  0.00    +0.099 C 
ATOM     23  N   UNL     1       1.447  -8.526  23.521  0.00  0.00    -0.191 NA
ENDBRANCH  19  22
ENDBRANCH  15  16
BRANCH  15  24
ATOM     24  N   UNL     1       7.710  -4.393  25.394  0.00  0.00    -0.233 N 
ATOM     25  C   UNL     1       8.639  -4.609  24.406  0.00  0.00    +0.244 A 
ATOM     26  N   UNL     1       9.790  -4.971  24.925  0.00  0.00    -0.137 NA
ATOM     27  N   UNL     1       9.640  -4.987  26.289  0.00  0.00    -0.137 NA
ATOM     28  C   UNL     1       8.395  -4.656  26.553  0.00  0.00    +0.244 A 
ENDBRANCH  15  24
ENDBRANCH   1  15
TORSDOF 8
ENDMDL
