MODEL 1
REMARK VINA RESULT:      -6.1      0.000      0.000
REMARK  Name = 
REMARK  7 active torsions:
REMARK  status: ('A' for Active; 'I' for Inactive)
REMARK    1  A    between atoms: C_1  and  C_2
REMARK    2  A    between atoms: C_2  and  C_3
REMARK    3  A    between atoms: C_2  and  C_4
REMARK    4  A    between atoms: C_2  and  C_5
REMARK    5  A    between atoms: C_5  and  O_6
REMARK    6  A    between atoms: C_5  and  C_7
REMARK    7  A    between atoms: C_8  and  C_9
REMARK                            x       y       z     vdW  Elec       q    Type
REMARK                         _______ _______ _______ _____ _____    ______ ____
ROOT
ATOM      1  C   UNL     1       9.893  -0.757  23.546  0.00  0.00    +0.005 C 
ATOM      2  C   UNL     1       8.945  -1.422  24.228  0.00  0.00    +0.006 C 
ENDROOT
BRANCH   2   3
ATOM      3  C   UNL     1       8.380  -2.697  23.758  0.00  0.00    -0.022 A 
ATOM      4  C   UNL     1       8.764  -3.906  24.379  0.00  0.00    +0.012 A 
ATOM      5  C   UNL     1       8.252  -5.136  23.946  0.00  0.00    +0.050 A 
ATOM      6  C   UNL     1       7.366  -5.127  22.889  0.00  0.00    +0.166 A 
ATOM      7  O   UNL     1       6.760  -6.215  22.341  0.00  0.00    -0.453 OA
ATOM      8  C   UNL     1       5.959  -5.590  21.315  0.00  0.00    +0.466 C 
ATOM      9  O   UNL     1       6.131  -4.160  21.243  0.00  0.00    -0.453 OA
ATOM     10  C   UNL     1       7.005  -3.960  22.264  0.00  0.00    +0.167 A 
ATOM     11  C   UNL     1       7.503  -2.739  22.663  0.00  0.00    +0.057 A 
ENDBRANCH   2   3
BRANCH   1  12
ATOM     12  C   UNL     1      10.579   0.497  24.012  0.00  0.00    +0.143 C 
BRANCH  12  14
ATOM     13  C   UNL     1       9.615   1.562  21.926  0.00  0.00    +0.013 C 
ATOM     14  C   UNL     1       9.993   1.812  23.401  0.00  0.00    -0.008 C 
ATOM     15  C   UNL     1       8.720   2.235  24.161  0.00  0.00    +0.013 C 
ATOM     16  C   UNL     1      11.000   2.979  23.435  0.00  0.00    +0.013 C 
ENDBRANCH  12  14
BRANCH  12  17
ATOM     17  O   UNL     1      10.493   0.528  25.436  0.00  0.00    -0.387 OA
ATOM     18  H   UNL     1      10.267   1.433  25.704  0.00  0.00    +0.210 HD
ENDBRANCH  12  17
ENDBRANCH   1  12
TORSDOF 4
ENDMDL
MODEL 2
REMARK VINA RESULT:      -5.9      1.581      6.901
REMARK  Name = 
REMARK  7 active torsions:
REMARK  status: ('A' for Active; 'I' for Inactive)
REMARK    1  A    between atoms: C_1  and  C_2
REMARK    2  A    between atoms: C_2  and  C_3
REMARK    3  A    between atoms: C_2  and  C_4
REMARK    4  A    between atoms: C_2  and  C_5
REMARK    5  A    between atoms: C_5  and  O_6
REMARK    6  A    between atoms: C_5  and  C_7
REMARK    7  A    between atoms: C_8  and  C_9
REMARK                            x       y       z     vdW  Elec       q    Type
REMARK                         _______ _______ _______ _____ _____    ______ ____
ROOT
ATOM      1  C   UNL     1       7.919  -3.656  22.955  0.00  0.00    +0.005 C 
ATOM      2  C   UNL     1       8.630  -2.823  23.734  0.00  0.00    +0.006 C 
ENDROOT
BRANCH   2   3
ATOM      3  C   UNL     1       9.074  -1.497  23.275  0.00  0.00    -0.022 A 
ATOM      4  C   UNL     1       9.042  -1.184  21.898  0.00  0.00    +0.012 A 
ATOM      5  C   UNL     1       9.470   0.066  21.431  0.00  0.00    +0.050 A 
ATOM      6  C   UNL     1       9.927   0.977  22.359  0.00  0.00    +0.166 A 
ATOM      7  O   UNL     1      10.370   2.236  22.097  0.00  0.00    -0.453 OA
ATOM      8  C   UNL     1      10.688   2.695  23.429  0.00  0.00    +0.466 C 
ATOM      9  O   UNL     1      10.469   1.697  24.447  0.00  0.00    -0.453 OA
ATOM     10  C   UNL     1       9.983   0.674  23.696  0.00  0.00    +0.167 A 
ATOM     11  C   UNL     1       9.581  -0.552  24.180  0.00  0.00    +0.057 A 
ENDBRANCH   2   3
BRANCH   1  12
ATOM     12  C   UNL     1       7.353  -4.980  23.390  0.00  0.00    +0.143 C 
BRANCH  12  14
ATOM     13  C   UNL     1       5.128  -3.937  22.779  0.00  0.00    +0.013 C 
ATOM     14  C   UNL     1       5.910  -5.264  22.859  0.00  0.00    -0.008 C 
ATOM     15  C   UNL     1       5.969  -5.877  21.446  0.00  0.00    +0.013 C 
ATOM     16  C   UNL     1       5.120  -6.217  23.779  0.00  0.00    +0.013 C 
ENDBRANCH  12  14
BRANCH  12  17
ATOM     17  O   UNL     1       8.254  -5.995  22.951  0.00  0.00    -0.387 OA
ATOM     18  H   UNL     1       8.957  -5.570  22.434  0.00  0.00    +0.210 HD
ENDBRANCH  12  17
ENDBRANCH   1  12
TORSDOF 4
ENDMDL
MODEL 3
REMARK VINA RESULT:      -5.9      2.086      2.489
REMARK  Name = 
REMARK  7 active torsions:
REMARK  status: ('A' for Active; 'I' for Inactive)
REMARK    1  A    between atoms: C_1  and  C_2
REMARK    2  A    between atoms: C_2  and  C_3
REMARK    3  A    between atoms: C_2  and  C_4
REMARK    4  A    between atoms: C_2  and  C_5
REMARK    5  A    between atoms: C_5  and  O_6
REMARK    6  A    between atoms: C_5  and  C_7
REMARK    7  A    between atoms: C_8  and  C_9
REMARK                            x       y       z     vdW  Elec       q    Type
REMARK                         _______ _______ _______ _____ _____    ______ ____
ROOT
ATOM      1  C   UNL     1       9.484  -1.392  24.422  0.00  0.00    +0.005 C 
ATOM      2  C   UNL     1       9.500  -2.710  24.158  0.00  0.00    +0.006 C 
ENDROOT
BRANCH   2   3
ATOM      3  C   UNL     1       8.603  -3.662  24.834  0.00  0.00    -0.022 A 
ATOM      4  C   UNL     1       8.920  -4.127  26.130  0.00  0.00    +0.012 A 
ATOM      5  C   UNL     1       8.091  -5.042  26.792  0.00  0.00    +0.050 A 
ATOM      6  C   UNL     1       6.960  -5.477  26.136  0.00  0.00    +0.166 A 
ATOM      7  O   UNL     1       6.037  -6.351  26.621  0.00  0.00    -0.453 OA
ATOM      8  C   UNL     1       5.107  -6.402  25.518  0.00  0.00    +0.466 C 
ATOM      9  O   UNL     1       5.508  -5.598  24.390  0.00  0.00    -0.453 OA
ATOM     10  C   UNL     1       6.656  -5.050  24.868  0.00  0.00    +0.167 A 
ATOM     11  C   UNL     1       7.460  -4.161  24.189  0.00  0.00    +0.057 A 
ENDBRANCH   2   3
BRANCH   1  12
ATOM     12  C   UNL     1      10.302  -0.354  23.704  0.00  0.00    +0.143 C 
BRANCH  12  14
ATOM     13  C   UNL     1       9.417  -0.323  21.331  0.00  0.00    +0.013 C 
ATOM     14  C   UNL     1       9.498   0.475  22.649  0.00  0.00    -0.008 C 
ATOM     15  C   UNL     1       8.063   0.732  23.150  0.00  0.00    +0.013 C 
ATOM     16  C   UNL     1      10.162   1.831  22.335  0.00  0.00    +0.013 C 
ENDBRANCH  12  14
BRANCH  12  17
ATOM     17  O   UNL     1      10.863   0.507  24.693  0.00  0.00    -0.387 OA
ATOM     18  H   UNL     1      11.416   1.164  24.241  0.00  0.00    +0.210 HD
ENDBRANCH  12  17
ENDBRANCH   1  12
TORSDOF 4
ENDMDL
MODEL 4
REMARK VINA RESULT:      -5.9      2.551      6.622
REMARK  Name = 
REMARK  7 active torsions:
REMARK  status: ('A' for Active; 'I' for Inactive)
REMARK    1  A    between atoms: C_1  and  C_2
REMARK    2  A    between atoms: C_2  and  C_3
REMARK    3  A    between atoms: C_2  and  C_4
REMARK    4  A    between atoms: C_2  and  C_5
REMARK    5  A    between atoms: C_5  and  O_6
REMARK    6  A    between atoms: C_5  and  C_7
REMARK    7  A    between atoms: C_8  and  C_9
REMARK                            x       y       z     vdW  Elec       q    Type
REMARK                         _______ _______ _______ _____ _____    ______ ____
ROOT
ATOM      1  C   UNL     1       8.703  -3.138  25.692  0.00  0.00    +0.005 C 
ATOM      2  C   UNL     1       9.248  -3.073  24.465  0.00  0.00    +0.006 C 
ENDROOT
BRANCH   2   3
ATOM      3  C   UNL     1       9.503  -1.795  23.779  0.00  0.00    -0.022 A 
ATOM      4  C   UNL     1       9.492  -1.741  22.368  0.00  0.00    +0.012 A 
ATOM      5  C   UNL     1       9.743  -0.541  21.689  0.00  0.00    +0.050 A 
ATOM      6  C   UNL     1      10.006   0.583  22.444  0.00  0.00    +0.166 A 
ATOM      7  O   UNL     1      10.261   1.830  21.965  0.00  0.00    -0.453 OA
ATOM      8  C   UNL     1      10.436   2.562  23.196  0.00  0.00    +0.466 C 
ATOM      9  O   UNL     1      10.325   1.740  24.375  0.00  0.00    -0.453 OA
ATOM     10  C   UNL     1      10.042   0.535  23.815  0.00  0.00    +0.167 A 
ATOM     11  C   UNL     1       9.812  -0.634  24.506  0.00  0.00    +0.057 A 
ENDBRANCH   2   3
BRANCH   1  12
ATOM     12  C   UNL     1       8.503  -4.398  26.486  0.00  0.00    +0.143 C 
BRANCH  12  14
ATOM     13  C   UNL     1       6.893  -5.742  27.906  0.00  0.00    +0.013 C 
ATOM     14  C   UNL     1       7.004  -4.788  26.700  0.00  0.00    -0.008 C 
ATOM     15  C   UNL     1       6.161  -3.531  26.996  0.00  0.00    +0.013 C 
ATOM     16  C   UNL     1       6.402  -5.508  25.476  0.00  0.00    +0.013 C 
ENDBRANCH  12  14
BRANCH  12  17
ATOM     17  O   UNL     1       9.199  -5.444  25.811  0.00  0.00    -0.387 OA
ATOM     18  H   UNL     1       9.053  -6.269  26.303  0.00  0.00    +0.210 HD
ENDBRANCH  12  17
ENDBRANCH   1  12
TORSDOF 4
ENDMDL
MODEL 5
REMARK VINA RESULT:      -5.9      2.253      2.995
REMARK  Name = 
REMARK  7 active torsions:
REMARK  status: ('A' for Active; 'I' for Inactive)
REMARK    1  A    between atoms: C_1  and  C_2
REMARK    2  A    between atoms: C_2  and  C_3
REMARK    3  A    between atoms: C_2  and  C_4
REMARK    4  A    between atoms: C_2  and  C_5
REMARK    5  A    between atoms: C_5  and  O_6
REMARK    6  A    between atoms: C_5  and  C_7
REMARK    7  A    between atoms: C_8  and  C_9
REMARK                            x       y       z     vdW  Elec       q    Type
REMARK                         _______ _______ _______ _____ _____    ______ ____
ROOT
ATOM      1  C   UNL     1       8.233  -2.137  22.252  0.00  0.00    +0.005 C 
ATOM      2  C   UNL     1       8.495  -3.249  22.961  0.00  0.00    +0.006 C 
ENDROOT
BRANCH   2   3
ATOM      3  C   UNL     1       7.477  -4.279  23.223  0.00  0.00    -0.022 A 
ATOM      4  C   UNL     1       6.978  -5.059  22.157  0.00  0.00    +0.012 A 
ATOM      5  C   UNL     1       6.000  -6.039  22.375  0.00  0.00    +0.050 A 
ATOM      6  C   UNL     1       5.537  -6.211  23.663  0.00  0.00    +0.166 A 
ATOM      7  O   UNL     1       4.603  -7.114  24.066  0.00  0.00    -0.453 OA
ATOM      8  C   UNL     1       4.552  -6.836  25.482  0.00  0.00    +0.466 C 
ATOM      9  O   UNL     1       5.417  -5.756  25.887  0.00  0.00    -0.453 OA
ATOM     10  C   UNL     1       5.999  -5.441  24.700  0.00  0.00    +0.167 A 
ATOM     11  C   UNL     1       6.951  -4.463  24.511  0.00  0.00    +0.057 A 
ENDBRANCH   2   3
BRANCH   1  12
ATOM     12  C   UNL     1       9.245  -1.094  21.867  0.00  0.00    +0.143 C 
BRANCH  12  14
ATOM     13  C   UNL     1       9.741   1.387  21.965  0.00  0.00    +0.013 C 
ATOM     14  C   UNL     1       9.226   0.180  22.774  0.00  0.00    -0.008 C 
ATOM     15  C   UNL     1       7.788   0.486  23.238  0.00  0.00    +0.013 C 
ATOM     16  C   UNL     1      10.125   0.032  24.019  0.00  0.00    +0.013 C 
ENDBRANCH  12  14
BRANCH  12  17
ATOM     17  O   UNL     1      10.530  -1.712  21.903  0.00  0.00    -0.387 OA
ATOM     18  H   UNL     1      10.965  -1.550  21.050  0.00  0.00    +0.210 HD
ENDBRANCH  12  17
ENDBRANCH   1  12
TORSDOF 4
ENDMDL
MODEL 6
REMARK VINA RESULT:      -5.8      2.692      3.647
REMARK  Name = 
REMARK  7 active torsions:
REMARK  status: ('A' for Active; 'I' for Inactive)
REMARK    1  A    between atoms: C_1  and  C_2
REMARK    2  A    between atoms: C_2  and  C_3
REMARK    3  A    between atoms: C_2  and  C_4
REMARK    4  A    between atoms: C_2  and  C_5
REMARK    5  A    between atoms: C_5  and  O_6
REMARK    6  A    between atoms: C_5  and  C_7
REMARK    7  A    between atoms: C_8  and  C_9
REMARK                            x       y       z     vdW  Elec       q    Type
REMARK                         _______ _______ _______ _____ _____    ______ ____
ROOT
ATOM      1  C   UNL     1       8.735  -2.144  23.278  0.00  0.00    +0.005 C 
ATOM      2  C   UNL     1       7.859  -3.114  22.965  0.00  0.00    +0.006 C 
ENDROOT
BRANCH   2   3
ATOM      3  C   UNL     1       7.279  -4.013  23.977  0.00  0.00    -0.022 A 
ATOM      4  C   UNL     1       6.251  -4.910  23.613  0.00  0.00    +0.012 A 
ATOM      5  C   UNL     1       5.673  -5.768  24.557  0.00  0.00    +0.050 A 
ATOM      6  C   UNL     1       6.137  -5.704  25.854  0.00  0.00    +0.166 A 
ATOM      7  O   UNL     1       5.707  -6.462  26.899  0.00  0.00    -0.453 OA
ATOM      8  C   UNL     1       6.552  -5.965  27.959  0.00  0.00    +0.466 C 
ATOM      9  O   UNL     1       7.433  -4.903  27.542  0.00  0.00    -0.453 OA
ATOM     10  C   UNL     1       7.119  -4.820  26.223  0.00  0.00    +0.167 A 
ATOM     11  C   UNL     1       7.696  -3.956  25.317  0.00  0.00    +0.057 A 
ENDBRANCH   2   3
BRANCH   1  12
ATOM     12  C   UNL     1       9.292  -1.134  22.314  0.00  0.00    +0.143 C 
BRANCH  12  14
ATOM     13  C   UNL     1      10.659   0.245  23.940  0.00  0.00    +0.013 C 
ATOM     14  C   UNL     1       9.496   0.290  22.928  0.00  0.00    -0.008 C 
ATOM     15  C   UNL     1       9.855   1.304  21.823  0.00  0.00    +0.013 C 
ATOM     16  C   UNL     1       8.245   0.796  23.674  0.00  0.00    +0.013 C 
ENDBRANCH  12  14
BRANCH  12  17
ATOM     17  O   UNL     1      10.529  -1.647  21.823  0.00  0.00    -0.387 OA
ATOM     18  H   UNL     1      10.368  -2.542  21.482  0.00  0.00    +0.210 HD
ENDBRANCH  12  17
ENDBRANCH   1  12
TORSDOF 4
ENDMDL
MODEL 7
REMARK VINA RESULT:      -5.7      1.987      2.901
REMARK  Name = 
REMARK  7 active torsions:
REMARK  status: ('A' for Active; 'I' for Inactive)
REMARK    1  A    between atoms: C_1  and  C_2
REMARK    2  A    between atoms: C_2  and  C_3
REMARK    3  A    between atoms: C_2  and  C_4
REMARK    4  A    between atoms: C_2  and  C_5
REMARK    5  A    between atoms: C_5  and  O_6
REMARK    6  A    between atoms: C_5  and  C_7
REMARK    7  A    between atoms: C_8  and  C_9
REMARK                            x       y       z     vdW  Elec       q    Type
REMARK                         _______ _______ _______ _____ _____    ______ ____
ROOT
ATOM      1  C   UNL     1       8.570   0.799  22.777  0.00  0.00    +0.005 C 
ATOM      2  C   UNL     1       9.300  -0.288  22.475  0.00  0.00    +0.006 C 
ENDROOT
BRANCH   2   3
ATOM      3  C   UNL     1       8.914  -1.643  22.901  0.00  0.00    -0.022 A 
ATOM      4  C   UNL     1       7.720  -2.219  22.414  0.00  0.00    +0.012 A 
ATOM      5  C   UNL     1       7.322  -3.502  22.811  0.00  0.00    +0.050 A 
ATOM      6  C   UNL     1       8.131  -4.182  23.697  0.00  0.00    +0.166 A 
ATOM      7  O   UNL     1       7.914  -5.433  24.184  0.00  0.00    -0.453 OA
ATOM      8  C   UNL     1       9.076  -5.601  25.025  0.00  0.00    +0.466 C 
ATOM      9  O   UNL     1       9.934  -4.443  25.057  0.00  0.00    -0.453 OA
ATOM     10  C   UNL     1       9.281  -3.622  24.194  0.00  0.00    +0.167 A 
ATOM     11  C   UNL     1       9.688  -2.357  23.829  0.00  0.00    +0.057 A 
ENDBRANCH   2   3
BRANCH   1  12
ATOM     12  C   UNL     1       8.853   2.195  22.296  0.00  0.00    +0.143 C 
BRANCH  12  14
ATOM     13  C   UNL     1       8.332   4.498  23.214  0.00  0.00    +0.013 C 
ATOM     14  C   UNL     1       9.158   3.216  23.442  0.00  0.00    -0.008 C 
ATOM     15  C   UNL     1       8.763   2.621  24.808  0.00  0.00    +0.013 C 
ATOM     16  C   UNL     1      10.646   3.620  23.490  0.00  0.00    +0.013 C 
ENDBRANCH  12  14
BRANCH  12  17
ATOM     17  O   UNL     1       9.951   2.121  21.389  0.00  0.00    -0.387 OA
ATOM     18  H   UNL     1      10.525   1.390  21.671  0.00  0.00    +0.210 HD
ENDBRANCH  12  17
ENDBRANCH   1  12
TORSDOF 4
ENDMDL
MODEL 8
REMARK VINA RESULT:      -5.7      1.136      1.578
REMARK  Name = 
REMARK  7 active torsions:
REMARK  status: ('A' for Active; 'I' for Inactive)
REMARK    1  A    between atoms: C_1  and  C_2
REMARK    2  A    between atoms: C_2  and  C_3
REMARK    3  A    between atoms: C_2  and  C_4
REMARK    4  A    between atoms: C_2  and  C_5
REMARK    5  A    between atoms: C_5  and  O_6
REMARK    6  A    between atoms: C_5  and  C_7
REMARK    7  A    between atoms: C_8  and  C_9
REMARK                            x       y       z     vdW  Elec       q    Type
REMARK                         _______ _______ _______ _____ _____    ______ ____
ROOT
ATOM      1  C   UNL     1       8.029  -0.312  23.731  0.00  0.00    +0.005 C 
ATOM      2  C   UNL     1       8.399  -1.478  24.287  0.00  0.00    +0.006 C 
ENDROOT
BRANCH   2   3
ATOM      3  C   UNL     1       7.996  -2.782  23.733  0.00  0.00    -0.022 A 
ATOM      4  C   UNL     1       8.484  -3.973  24.314  0.00  0.00    +0.012 A 
ATOM      5  C   UNL     1       8.126  -5.226  23.801  0.00  0.00    +0.050 A 
ATOM      6  C   UNL     1       7.287  -5.258  22.708  0.00  0.00    +0.166 A 
ATOM      7  O   UNL     1       6.825  -6.375  22.083  0.00  0.00    -0.453 OA
ATOM      8  C   UNL     1       6.003  -5.787  21.051  0.00  0.00    +0.466 C 
ATOM      9  O   UNL     1       6.021  -4.346  21.054  0.00  0.00    -0.453 OA
ATOM     10  C   UNL     1       6.826  -4.106  22.122  0.00  0.00    +0.167 A 
ATOM     11  C   UNL     1       7.173  -2.861  22.599  0.00  0.00    +0.057 A 
ENDBRANCH   2   3
BRANCH   1  12
ATOM     12  C   UNL     1       8.481   1.048  24.186  0.00  0.00    +0.143 C 
BRANCH  12  14
ATOM     13  C   UNL     1       9.948   3.043  23.656  0.00  0.00    +0.013 C 
ATOM     14  C   UNL     1       9.845   1.506  23.573  0.00  0.00    -0.008 C 
ATOM     15  C   UNL     1      11.019   0.899  24.366  0.00  0.00    +0.013 C 
ATOM     16  C   UNL     1       9.990   1.106  22.091  0.00  0.00    +0.013 C 
ENDBRANCH  12  14
BRANCH  12  17
ATOM     17  O   UNL     1       7.449   1.975  23.854  0.00  0.00    -0.387 OA
ATOM     18  H   UNL     1       6.634   1.690  24.300  0.00  0.00    +0.210 HD
ENDBRANCH  12  17
ENDBRANCH   1  12
TORSDOF 4
ENDMDL
MODEL 9
REMARK VINA RESULT:      -5.6      2.727      3.343
REMARK  Name = 
REMARK  7 active torsions:
REMARK  status: ('A' for Active; 'I' for Inactive)
REMARK    1  A    between atoms: C_1  and  C_2
REMARK    2  A    between atoms: C_2  and  C_3
REMARK    3  A    between atoms: C_2  and  C_4
REMARK    4  A    between atoms: C_2  and  C_5
REMARK    5  A    between atoms: C_5  and  O_6
REMARK    6  A    between atoms: C_5  and  C_7
REMARK    7  A    between atoms: C_8  and  C_9
REMARK                            x       y       z     vdW  Elec       q    Type
REMARK                         _______ _______ _______ _____ _____    ______ ____
ROOT
ATOM      1  C   UNL     1       8.570  -1.284  23.277  0.00  0.00    +0.005 C 
ATOM      2  C   UNL     1       8.646  -2.626  23.248  0.00  0.00    +0.006 C 
ENDROOT
BRANCH   2   3
ATOM      3  C   UNL     1       8.388  -3.458  24.435  0.00  0.00    -0.022 A 
ATOM      4  C   UNL     1       9.417  -4.268  24.962  0.00  0.00    +0.012 A 
ATOM      5  C   UNL     1       9.196  -5.079  26.083  0.00  0.00    +0.050 A 
ATOM      6  C   UNL     1       7.940  -5.064  26.651  0.00  0.00    +0.166 A 
ATOM      7  O   UNL     1       7.544  -5.772  27.742  0.00  0.00    -0.453 OA
ATOM      8  C   UNL     1       6.171  -5.341  27.861  0.00  0.00    +0.466 C 
ATOM      9  O   UNL     1       5.765  -4.425  26.824  0.00  0.00    -0.453 OA
ATOM     10  C   UNL     1       6.927  -4.298  26.132  0.00  0.00    +0.167 A 
ATOM     11  C   UNL     1       7.114  -3.502  25.023  0.00  0.00    +0.057 A 
ENDBRANCH   2   3
BRANCH   1  12
ATOM     12  C   UNL     1       8.727  -0.381  22.086  0.00  0.00    +0.143 C 
BRANCH  12  14
ATOM     13  C   UNL     1       7.739   1.915  21.673  0.00  0.00    +0.013 C 
ATOM     14  C   UNL     1       8.826   1.138  22.444  0.00  0.00    -0.008 C 
ATOM     15  C   UNL     1       8.593   1.349  23.954  0.00  0.00    +0.013 C 
ATOM     16  C   UNL     1      10.193   1.746  22.066  0.00  0.00    +0.013 C 
ENDBRANCH  12  14
BRANCH  12  17
ATOM     17  O   UNL     1       9.892  -0.803  21.379  0.00  0.00    -0.387 OA
ATOM     18  H   UNL     1      10.614  -0.902  22.021  0.00  0.00    +0.210 HD
ENDBRANCH  12  17
ENDBRANCH   1  12
TORSDOF 4
ENDMDL
