MODEL 1
REMARK VINA RESULT:      -4.3      0.000      0.000
REMARK  Name = 
REMARK  5 active torsions:
REMARK  status: ('A' for Active; 'I' for Inactive)
REMARK    1  A    between atoms: O_1  and  C_2
REMARK    2  A    between atoms: C_2  and  C_3
REMARK    3  A    between atoms: C_6  and  O_8
REMARK    4  A    between atoms: C_9  and  O_11
REMARK    5  A    between atoms: C_12  and  O_14
REMARK                            x       y       z     vdW  Elec       q    Type
REMARK                         _______ _______ _______ _____ _____    ______ ____
ROOT
ATOM      1  C   UNL     1       9.669   1.140  23.549  0.00  0.00    +0.178 C 
ATOM      2  C   UNL     1       9.992   0.907  22.068  0.00  0.00    +0.179 C 
ATOM      3  C   UNL     1       9.258  -0.388  21.714  0.00  0.00    +0.201 C 
ATOM      4  C   UNL     1       8.474  -0.726  22.987  0.00  0.00    +0.279 C 
ATOM      5  O   UNL     1       8.409   0.466  23.765  0.00  0.00    -0.341 OA
ENDROOT
BRANCH   2   6
ATOM      6  O   UNL     1       9.439   1.973  21.272  0.00  0.00    -0.386 OA
ATOM      7  H   UNL     1       8.487   2.035  21.465  0.00  0.00    +0.210 HD
ENDBRANCH   2   6
BRANCH   3   8
ATOM      8  O   UNL     1      10.168  -1.436  21.379  0.00  0.00    -0.384 OA
ATOM      9  H   UNL     1       9.627  -2.223  21.182  0.00  0.00    +0.210 HD
ENDBRANCH   3   8
BRANCH   4  10
ATOM     10  O   UNL     1       7.173  -1.202  22.707  0.00  0.00    -0.365 OA
ATOM     11  H   UNL     1       6.582  -0.440  22.822  0.00  0.00    +0.213 HD
ENDBRANCH   4  10
BRANCH   1  12
ATOM     12  C   UNL     1      10.733   0.576  24.500  0.00  0.00    +0.190 C 
BRANCH  12  13
ATOM     13  O   UNL     1      10.193   0.379  25.799  0.00  0.00    -0.392 OA
ATOM     14  H   UNL     1       9.962   1.258  26.150  0.00  0.00    +0.210 HD
ENDBRANCH  12  13
ENDBRANCH   1  12
TORSDOF 5
ENDMDL
MODEL 2
REMARK VINA RESULT:      -4.2      0.930      3.281
REMARK  Name = 
REMARK  5 active torsions:
REMARK  status: ('A' for Active; 'I' for Inactive)
REMARK    1  A    between atoms: O_1  and  C_2
REMARK    2  A    between atoms: C_2  and  C_3
REMARK    3  A    between atoms: C_6  and  O_8
REMARK    4  A    between atoms: C_9  and  O_11
REMARK    5  A    between atoms: C_12  and  O_14
REMARK                            x       y       z     vdW  Elec       q    Type
REMARK                         _______ _______ _______ _____ _____    ______ ____
ROOT
ATOM      1  C   UNL     1       8.486  -0.814  22.992  0.00  0.00    +0.178 C 
ATOM      2  C   UNL     1       9.249  -0.437  21.716  0.00  0.00    +0.179 C 
ATOM      3  C   UNL     1      10.020   0.831  22.090  0.00  0.00    +0.201 C 
ATOM      4  C   UNL     1       9.731   1.010  23.584  0.00  0.00    +0.279 C 
ATOM      5  O   UNL     1       9.261  -0.245  24.071  0.00  0.00    -0.341 OA
ENDROOT
BRANCH   2   6
ATOM      6  O   UNL     1      10.203  -1.468  21.394  0.00  0.00    -0.386 OA
ATOM      7  H   UNL     1       9.974  -1.831  20.520  0.00  0.00    +0.210 HD
ENDBRANCH   2   6
BRANCH   3   8
ATOM      8  O   UNL     1       9.569   1.961  21.342  0.00  0.00    -0.384 OA
ATOM      9  H   UNL     1       9.369   2.662  21.990  0.00  0.00    +0.210 HD
ENDBRANCH   3   8
BRANCH   4  10
ATOM     10  O   UNL     1      10.875   1.419  24.308  0.00  0.00    -0.365 OA
ATOM     11  H   UNL     1      11.386   1.979  23.701  0.00  0.00    +0.213 HD
ENDBRANCH   4  10
BRANCH   1  12
ATOM     12  C   UNL     1       7.055  -0.261  23.030  0.00  0.00    +0.190 C 
BRANCH  12  13
ATOM     13  O   UNL     1       6.107  -1.318  23.023  0.00  0.00    -0.392 OA
ATOM     14  H   UNL     1       5.664  -1.301  22.156  0.00  0.00    +0.210 HD
ENDBRANCH  12  13
ENDBRANCH   1  12
TORSDOF 5
ENDMDL
MODEL 3
REMARK VINA RESULT:      -4.2      4.660      5.646
REMARK  Name = 
REMARK  5 active torsions:
REMARK  status: ('A' for Active; 'I' for Inactive)
REMARK    1  A    between atoms: O_1  and  C_2
REMARK    2  A    between atoms: C_2  and  C_3
REMARK    3  A    between atoms: C_6  and  O_8
REMARK    4  A    between atoms: C_9  and  O_11
REMARK    5  A    between atoms: C_12  and  O_14
REMARK                            x       y       z     vdW  Elec       q    Type
REMARK                         _______ _______ _______ _____ _____    ______ ____
ROOT
ATOM      1  C   UNL     1       7.795  -3.419  24.927  0.00  0.00    +0.178 C 
ATOM      2  C   UNL     1       8.515  -4.564  24.206  0.00  0.00    +0.179 C 
ATOM      3  C   UNL     1       9.005  -5.479  25.330  0.00  0.00    +0.201 C 
ATOM      4  C   UNL     1       8.421  -4.848  26.598  0.00  0.00    +0.279 C 
ATOM      5  O   UNL     1       7.364  -3.984  26.186  0.00  0.00    -0.341 OA
ENDROOT
BRANCH   2   6
ATOM      6  O   UNL     1       7.577  -5.301  23.398  0.00  0.00    -0.386 OA
ATOM      7  H   UNL     1       6.729  -4.823  23.405  0.00  0.00    +0.210 HD
ENDBRANCH   2   6
BRANCH   3   8
ATOM      8  O   UNL     1      10.431  -5.524  25.390  0.00  0.00    -0.384 OA
ATOM      9  H   UNL     1      10.736  -4.602  25.486  0.00  0.00    +0.210 HD
ENDBRANCH   3   8
BRANCH   4  10
ATOM     10  O   UNL     1       7.936  -5.816  27.507  0.00  0.00    -0.365 OA
ATOM     11  H   UNL     1       8.161  -6.678  27.121  0.00  0.00    +0.213 HD
ENDBRANCH   4  10
BRANCH   1  12
ATOM     12  C   UNL     1       8.693  -2.200  25.183  0.00  0.00    +0.190 C 
BRANCH  12  13
ATOM     13  O   UNL     1       9.758  -2.155  24.245  0.00  0.00    -0.392 OA
ATOM     14  H   UNL     1       9.367  -2.269  23.360  0.00  0.00    +0.210 HD
ENDBRANCH  12  13
ENDBRANCH   1  12
TORSDOF 5
ENDMDL
MODEL 4
REMARK VINA RESULT:      -4.1      1.334      2.255
REMARK  Name = 
REMARK  5 active torsions:
REMARK  status: ('A' for Active; 'I' for Inactive)
REMARK    1  A    between atoms: O_1  and  C_2
REMARK    2  A    between atoms: C_2  and  C_3
REMARK    3  A    between atoms: C_6  and  O_8
REMARK    4  A    between atoms: C_9  and  O_11
REMARK    5  A    between atoms: C_12  and  O_14
REMARK                            x       y       z     vdW  Elec       q    Type
REMARK                         _______ _______ _______ _____ _____    ______ ____
ROOT
ATOM      1  C   UNL     1       8.333   0.373  23.940  0.00  0.00    +0.178 C 
ATOM      2  C   UNL     1       7.866   1.324  22.832  0.00  0.00    +0.179 C 
ATOM      3  C   UNL     1       8.802   1.035  21.657  0.00  0.00    +0.201 C 
ATOM      4  C   UNL     1       9.652  -0.143  22.145  0.00  0.00    +0.279 C 
ATOM      5  O   UNL     1       8.960  -0.728  23.246  0.00  0.00    -0.341 OA
ENDROOT
BRANCH   2   6
ATOM      6  O   UNL     1       6.522   0.989  22.433  0.00  0.00    -0.386 OA
ATOM      7  H   UNL     1       6.282   1.546  21.672  0.00  0.00    +0.210 HD
ENDBRANCH   2   6
BRANCH   3   8
ATOM      8  O   UNL     1       9.621   2.163  21.345  0.00  0.00    -0.384 OA
ATOM      9  H   UNL     1       9.225   2.587  20.562  0.00  0.00    +0.210 HD
ENDBRANCH   3   8
BRANCH   4  10
ATOM     10  O   UNL     1       9.870  -1.106  21.134  0.00  0.00    -0.365 OA
ATOM     11  H   UNL     1      10.668  -0.818  20.661  0.00  0.00    +0.213 HD
ENDBRANCH   4  10
BRANCH   1  12
ATOM     12  C   UNL     1       9.335   1.015  24.910  0.00  0.00    +0.190 C 
BRANCH  12  13
ATOM     13  O   UNL     1       9.825   0.056  25.835  0.00  0.00    -0.392 OA
ATOM     14  H   UNL     1       9.171  -0.011  26.554  0.00  0.00    +0.210 HD
ENDBRANCH  12  13
ENDBRANCH   1  12
TORSDOF 5
ENDMDL
MODEL 5
REMARK VINA RESULT:      -4.1      4.225      5.561
REMARK  Name = 
REMARK  5 active torsions:
REMARK  status: ('A' for Active; 'I' for Inactive)
REMARK    1  A    between atoms: O_1  and  C_2
REMARK    2  A    between atoms: C_2  and  C_3
REMARK    3  A    between atoms: C_6  and  O_8
REMARK    4  A    between atoms: C_9  and  O_11
REMARK    5  A    between atoms: C_12  and  O_14
REMARK                            x       y       z     vdW  Elec       q    Type
REMARK                         _______ _______ _______ _____ _____    ______ ____
ROOT
ATOM      1  C   UNL     1       8.743  -5.103  25.149  0.00  0.00    +0.178 C 
ATOM      2  C   UNL     1       7.672  -4.701  24.127  0.00  0.00    +0.179 C 
ATOM      3  C   UNL     1       8.142  -3.347  23.592  0.00  0.00    +0.201 C 
ATOM      4  C   UNL     1       9.506  -3.140  24.261  0.00  0.00    +0.279 C 
ATOM      5  O   UNL     1       9.940  -4.416  24.724  0.00  0.00    -0.341 OA
ENDROOT
BRANCH   2   6
ATOM      6  O   UNL     1       7.660  -5.640  23.035  0.00  0.00    -0.386 OA
ATOM      7  H   UNL     1       8.525  -5.599  22.589  0.00  0.00    +0.210 HD
ENDBRANCH   2   6
BRANCH   3   8
ATOM      8  O   UNL     1       7.237  -2.298  23.940  0.00  0.00    -0.384 OA
ATOM      9  H   UNL     1       7.735  -1.463  23.865  0.00  0.00    +0.210 HD
ENDBRANCH   3   8
BRANCH   4  10
ATOM     10  O   UNL     1      10.460  -2.586  23.377  0.00  0.00    -0.365 OA
ATOM     11  H   UNL     1      10.023  -1.828  22.956  0.00  0.00    +0.213 HD
ENDBRANCH   4  10
BRANCH   1  12
ATOM     12  C   UNL     1       8.392  -4.699  26.588  0.00  0.00    +0.190 C 
BRANCH  12  13
ATOM     13  O   UNL     1       8.050  -5.839  27.361  0.00  0.00    -0.392 OA
ATOM     14  H   UNL     1       7.645  -5.516  28.186  0.00  0.00    +0.210 HD
ENDBRANCH  12  13
ENDBRANCH   1  12
TORSDOF 5
ENDMDL
MODEL 6
REMARK VINA RESULT:      -4.1      4.815      5.874
REMARK  Name = 
REMARK  5 active torsions:
REMARK  status: ('A' for Active; 'I' for Inactive)
REMARK    1  A    between atoms: O_1  and  C_2
REMARK    2  A    between atoms: C_2  and  C_3
REMARK    3  A    between atoms: C_6  and  O_8
REMARK    4  A    between atoms: C_9  and  O_11
REMARK    5  A    between atoms: C_12  and  O_14
REMARK                            x       y       z     vdW  Elec       q    Type
REMARK                         _______ _______ _______ _____ _____    ______ ____
ROOT
ATOM      1  C   UNL     1       8.626  -4.479  26.511  0.00  0.00    +0.178 C 
ATOM      2  C   UNL     1       9.017  -5.299  25.276  0.00  0.00    +0.179 C 
ATOM      3  C   UNL     1       8.427  -4.524  24.097  0.00  0.00    +0.201 C 
ATOM      4  C   UNL     1       7.850  -3.258  24.741  0.00  0.00    +0.279 C 
ATOM      5  O   UNL     1       8.459  -3.129  26.024  0.00  0.00    -0.341 OA
ENDROOT
BRANCH   2   6
ATOM      6  O   UNL     1      10.451  -5.317  25.134  0.00  0.00    -0.386 OA
ATOM      7  H   UNL     1      10.757  -6.233  25.255  0.00  0.00    +0.210 HD
ENDBRANCH   2   6
BRANCH   3   8
ATOM      8  O   UNL     1       7.406  -5.271  23.432  0.00  0.00    -0.384 OA
ATOM      9  H   UNL     1       7.297  -6.101  23.933  0.00  0.00    +0.210 HD
ENDBRANCH   3   8
BRANCH   4  10
ATOM     10  O   UNL     1       8.090  -2.102  23.964  0.00  0.00    -0.365 OA
ATOM     11  H   UNL     1       7.254  -1.910  23.509  0.00  0.00    +0.213 HD
ENDBRANCH   4  10
BRANCH   1  12
ATOM     12  C   UNL     1       7.328  -4.959  27.175  0.00  0.00    +0.190 C 
BRANCH  12  13
ATOM     13  O   UNL     1       7.544  -6.169  27.886  0.00  0.00    -0.392 OA
ATOM     14  H   UNL     1       7.429  -5.970  28.832  0.00  0.00    +0.210 HD
ENDBRANCH  12  13
ENDBRANCH   1  12
TORSDOF 5
ENDMDL
MODEL 7
REMARK VINA RESULT:      -4.1      1.450      2.869
REMARK  Name = 
REMARK  5 active torsions:
REMARK  status: ('A' for Active; 'I' for Inactive)
REMARK    1  A    between atoms: O_1  and  C_2
REMARK    2  A    between atoms: C_2  and  C_3
REMARK    3  A    between atoms: C_6  and  O_8
REMARK    4  A    between atoms: C_9  and  O_11
REMARK    5  A    between atoms: C_12  and  O_14
REMARK                            x       y       z     vdW  Elec       q    Type
REMARK                         _______ _______ _______ _____ _____    ______ ____
ROOT
ATOM      1  C   UNL     1      10.467   0.203  22.907  0.00  0.00    +0.178 C 
ATOM      2  C   UNL     1       9.534   1.079  22.061  0.00  0.00    +0.179 C 
ATOM      3  C   UNL     1       8.415   1.487  23.022  0.00  0.00    +0.201 C 
ATOM      4  C   UNL     1       8.860   0.912  24.371  0.00  0.00    +0.279 C 
ATOM      5  O   UNL     1      10.256   0.641  24.268  0.00  0.00    -0.341 OA
ENDROOT
BRANCH   2   6
ATOM      6  O   UNL     1      10.227   2.271  21.643  0.00  0.00    -0.386 OA
ATOM      7  H   UNL     1       9.784   3.038  22.045  0.00  0.00    +0.210 HD
ENDBRANCH   2   6
BRANCH   3   8
ATOM      8  O   UNL     1       7.155   0.943  22.625  0.00  0.00    -0.384 OA
ATOM      9  H   UNL     1       6.531   1.692  22.576  0.00  0.00    +0.210 HD
ENDBRANCH   3   8
BRANCH   4  10
ATOM     10  O   UNL     1       8.610   1.799  25.443  0.00  0.00    -0.365 OA
ATOM     11  H   UNL     1       8.294   2.623  25.037  0.00  0.00    +0.213 HD
ENDBRANCH   4  10
BRANCH   1  12
ATOM     12  C   UNL     1      10.165  -1.297  22.788  0.00  0.00    +0.190 C 
BRANCH  12  13
ATOM     13  O   UNL     1       9.966  -1.665  21.431  0.00  0.00    -0.392 OA
ATOM     14  H   UNL     1       9.145  -2.186  21.392  0.00  0.00    +0.210 HD
ENDBRANCH  12  13
ENDBRANCH   1  12
TORSDOF 5
ENDMDL
MODEL 8
REMARK VINA RESULT:      -4.1      1.437      3.196
REMARK  Name = 
REMARK  5 active torsions:
REMARK  status: ('A' for Active; 'I' for Inactive)
REMARK    1  A    between atoms: O_1  and  C_2
REMARK    2  A    between atoms: C_2  and  C_3
REMARK    3  A    between atoms: C_6  and  O_8
REMARK    4  A    between atoms: C_9  and  O_11
REMARK    5  A    between atoms: C_12  and  O_14
REMARK                            x       y       z     vdW  Elec       q    Type
REMARK                         _______ _______ _______ _____ _____    ______ ____
ROOT
ATOM      1  C   UNL     1       8.836  -0.926  22.178  0.00  0.00    +0.178 C 
ATOM      2  C   UNL     1       8.060  -0.107  23.216  0.00  0.00    +0.179 C 
ATOM      3  C   UNL     1       8.814   1.221  23.300  0.00  0.00    +0.201 C 
ATOM      4  C   UNL     1       9.890   1.103  22.215  0.00  0.00    +0.279 C 
ATOM      5  O   UNL     1       9.482   0.056  21.337  0.00  0.00    -0.341 OA
ENDROOT
BRANCH   2   6
ATOM      6  O   UNL     1       6.728   0.158  22.734  0.00  0.00    -0.386 OA
ATOM      7  H   UNL     1       6.208   0.531  23.468  0.00  0.00    +0.210 HD
ENDBRANCH   2   6
BRANCH   3   8
ATOM      8  O   UNL     1       9.404   1.413  24.587  0.00  0.00    -0.384 OA
ATOM      9  H   UNL     1       9.117   0.663  25.140  0.00  0.00    +0.210 HD
ENDBRANCH   3   8
BRANCH   4  10
ATOM     10  O   UNL     1      10.064   2.307  21.495  0.00  0.00    -0.365 OA
ATOM     11  H   UNL     1       9.879   3.022  22.126  0.00  0.00    +0.213 HD
ENDBRANCH   4  10
BRANCH   1  12
ATOM     12  C   UNL     1       9.889  -1.855  22.799  0.00  0.00    +0.190 C 
BRANCH  12  13
ATOM     13  O   UNL     1       9.845  -1.788  24.217  0.00  0.00    -0.392 OA
ATOM     14  H   UNL     1       9.725  -2.698  24.544  0.00  0.00    +0.210 HD
ENDBRANCH  12  13
ENDBRANCH   1  12
TORSDOF 5
ENDMDL
MODEL 9
REMARK VINA RESULT:      -4.1      2.207      3.805
REMARK  Name = 
REMARK  5 active torsions:
REMARK  status: ('A' for Active; 'I' for Inactive)
REMARK    1  A    between atoms: O_1  and  C_2
REMARK    2  A    between atoms: C_2  and  C_3
REMARK    3  A    between atoms: C_6  and  O_8
REMARK    4  A    between atoms: C_9  and  O_11
REMARK    5  A    between atoms: C_12  and  O_14
REMARK                            x       y       z     vdW  Elec       q    Type
REMARK                         _______ _______ _______ _____ _____    ______ ____
ROOT
ATOM      1  C   UNL     1       7.876  -2.333  22.364  0.00  0.00    +0.178 C 
ATOM      2  C   UNL     1       9.088  -1.398  22.459  0.00  0.00    +0.179 C 
ATOM      3  C   UNL     1       9.847  -1.879  23.697  0.00  0.00    +0.201 C 
ATOM      4  C   UNL     1       9.075  -3.127  24.141  0.00  0.00    +0.279 C 
ATOM      5  O   UNL     1       8.289  -3.548  23.028  0.00  0.00    -0.341 OA
ENDROOT
BRANCH   2   6
ATOM      6  O   UNL     1       9.937  -1.578  21.309  0.00  0.00    -0.386 OA
ATOM      7  H   UNL     1      10.825  -1.249  21.533  0.00  0.00    +0.210 HD
ENDBRANCH   2   6
BRANCH   3   8
ATOM      8  O   UNL     1       9.857  -0.890  24.728  0.00  0.00    -0.384 OA
ATOM      9  H   UNL     1       9.027  -0.385  24.638  0.00  0.00    +0.210 HD
ENDBRANCH   3   8
BRANCH   4  10
ATOM     10  O   UNL     1       9.932  -4.170  24.559  0.00  0.00    -0.365 OA
ATOM     11  H   UNL     1       9.479  -4.605  25.300  0.00  0.00    +0.213 HD
ENDBRANCH   4  10
BRANCH   1  12
ATOM     12  C   UNL     1       6.618  -1.770  23.040  0.00  0.00    +0.190 C 
BRANCH  12  13
ATOM     13  O   UNL     1       6.551  -0.360  22.885  0.00  0.00    -0.392 OA
ATOM     14  H   UNL     1       6.408   0.020  23.770  0.00  0.00    +0.210 HD
ENDBRANCH  12  13
ENDBRANCH   1  12
TORSDOF 5
ENDMDL
