MODEL 1
REMARK VINA RESULT:      -6.7      0.000      0.000
REMARK  Name = 
REMARK  22 active torsions:
REMARK  status: ('A' for Active; 'I' for Inactive)
REMARK    1  A    between atoms: N_1  and  C_2
REMARK    2  A    between atoms: C_2  and  C_3
REMARK    3  A    between atoms: C_6  and  O_8
REMARK    4  A    between atoms: O_8  and  C_9
REMARK    5  A    between atoms: C_11  and  C_13
REMARK    6  A    between atoms: C_13  and  O_14
REMARK    7  A    between atoms: C_16  and  O_18
REMARK    8  A    between atoms: O_18  and  C_19
REMARK    9  A    between atoms: C_21  and  O_23
REMARK   10  A    between atoms: C_24  and  N_26
REMARK   11  A    between atoms: C_28  and  N_30
REMARK   12  A    between atoms: C_31  and  O_33
REMARK   13  A    between atoms: O_33  and  C_34
REMARK   14  A    between atoms: C_37  and  C_39
REMARK   15  A    between atoms: C_39  and  N_40
REMARK   16  A    between atoms: C_41  and  O_43
REMARK   17  A    between atoms: C_44  and  O_46
REMARK   18  A    between atoms: C_47  and  N_49
REMARK   19  A    between atoms: C_50  and  O_52
REMARK   20  A    between atoms: C_53  and  N_55
REMARK   21  A    between atoms: C_56  and  O_58
REMARK   22  A    between atoms: C_59  and  O_61
REMARK                            x       y       z     vdW  Elec       q    Type
REMARK                         _______ _______ _______ _____ _____    ______ ____
ROOT
ATOM      1  C   UNL     1       4.319  -2.213  26.968  0.00  0.00    +0.182 C 
ATOM      2  C   UNL     1       5.306  -3.061  27.811  0.00  0.00    +0.169 C 
ATOM      3  C   UNL     1       4.672  -4.388  28.300  0.00  0.00    +0.084 C 
ATOM      4  C   UNL     1       3.372  -4.104  29.041  0.00  0.00    +0.042 C 
ATOM      5  C   UNL     1       2.322  -3.548  28.089  0.00  0.00    +0.084 C 
ATOM      6  C   UNL     1       2.809  -2.334  27.288  0.00  0.00    +0.163 C 
ENDROOT
BRANCH   3   7
ATOM      7  N   UNL     1       5.584  -5.115  29.209  0.00  0.00    -0.325 NA
ATOM      8  H   UNL     1       6.487  -4.647  29.238  0.00  0.00    +0.119 HD
ATOM      9  H   UNL     1       5.216  -5.062  30.160  0.00  0.00    +0.119 HD
ENDBRANCH   3   7
BRANCH   5  10
ATOM     10  N   UNL     1       1.130  -3.180  28.890  0.00  0.00    -0.325 NA
ATOM     11  H   UNL     1       0.675  -2.360  28.476  0.00  0.00    +0.119 HD
ATOM     12  H   UNL     1       0.438  -3.926  28.838  0.00  0.00    +0.119 HD
ENDBRANCH   5  10
BRANCH   6  13
ATOM     13  O   UNL     1       2.079  -2.264  26.048  0.00  0.00    -0.388 OA
ATOM     14  H   UNL     1       1.184  -1.942  26.243  0.00  0.00    +0.210 HD
ENDBRANCH   6  13
BRANCH   2  15
ATOM     15  O   UNL     1       6.503  -3.392  27.067  0.00  0.00    -0.342 OA
BRANCH  15  16
ATOM     16  C   UNL     1       6.370  -4.474  26.137  0.00  0.00    +0.270 C 
ATOM     17  C   UNL     1       7.617  -5.396  26.216  0.00  0.00    +0.139 C 
ATOM     18  C   UNL     1       8.844  -4.633  25.688  0.00  0.00    +0.167 C 
ATOM     19  C   UNL     1       8.561  -4.108  24.272  0.00  0.00    +0.175 C 
ATOM     20  C   UNL     1       7.277  -3.264  24.277  0.00  0.00    +0.166 C 
ATOM     21  O   UNL     1       6.164  -3.999  24.804  0.00  0.00    -0.343 OA
BRANCH  17  22
ATOM     22  N   UNL     1       7.865  -5.936  27.574  0.00  0.00    -0.321 NA
ATOM     23  H   UNL     1       8.757  -6.439  27.535  0.00  0.00    +0.119 HD
ATOM     24  H   UNL     1       8.025  -5.146  28.202  0.00  0.00    +0.119 HD
ENDBRANCH  17  22
BRANCH  19  25
ATOM     25  O   UNL     1       9.695  -3.362  23.809  0.00  0.00    -0.387 OA
ATOM     26  H   UNL     1      10.413  -3.988  23.603  0.00  0.00    +0.210 HD
ENDBRANCH  19  25
BRANCH  18  27
ATOM     27  O   UNL     1       9.989  -5.502  25.662  0.00  0.00    -0.387 OA
ATOM     28  H   UNL     1      10.769  -4.920  25.726  0.00  0.00    +0.210 HD
ENDBRANCH  18  27
BRANCH  20  29
ATOM     29  C   UNL     1       6.888  -2.732  22.879  0.00  0.00    +0.112 C 
BRANCH  29  30
ATOM     30  N   UNL     1       6.136  -1.473  22.892  0.00  0.00    -0.328 NA
ATOM     31  H   UNL     1       6.065  -1.139  23.854  0.00  0.00    +0.118 HD
ATOM     32  H   UNL     1       6.676  -0.752  22.406  0.00  0.00    +0.118 HD
ENDBRANCH  29  30
ENDBRANCH  20  29
ENDBRANCH  15  16
ENDBRANCH   2  15
BRANCH   1  33
ATOM     33  O   UNL     1       4.710  -0.807  26.907  0.00  0.00    -0.340 OA
BRANCH  33  36
ATOM     34  C   UNL     1       6.307   1.883  25.942  0.00  0.00    +0.186 C 
ATOM     35  C   UNL     1       5.087   1.106  25.404  0.00  0.00    +0.202 C 
ATOM     36  C   UNL     1       5.408  -0.366  25.728  0.00  0.00    +0.282 C 
ATOM     37  O   UNL     1       6.820  -0.422  25.925  0.00  0.00    -0.341 OA
ATOM     38  C   UNL     1       7.198   0.806  26.566  0.00  0.00    +0.178 C 
BRANCH  35  39
ATOM     39  O   UNL     1       4.903   1.277  23.988  0.00  0.00    -0.384 OA
ATOM     40  H   UNL     1       4.064   0.827  23.748  0.00  0.00    +0.210 HD
ENDBRANCH  35  39
BRANCH  38  41
ATOM     41  C   UNL     1       7.125   0.727  28.095  0.00  0.00    +0.190 C 
BRANCH  41  42
ATOM     42  O   UNL     1       7.535   1.943  28.707  0.00  0.00    -0.392 OA
ATOM     43  H   UNL     1       8.283   1.740  29.295  0.00  0.00    +0.210 HD
ENDBRANCH  41  42
ENDBRANCH  38  41
BRANCH  34  44
ATOM     44  O   UNL     1       7.164   2.431  24.947  0.00  0.00    -0.341 OA
BRANCH  44  49
ATOM     45  C   UNL     1       9.255   0.363  22.797  0.00  0.00    +0.166 C 
ATOM     46  C   UNL     1      10.463   1.313  22.655  0.00  0.00    +0.175 C 
ATOM     47  C   UNL     1      10.725   2.017  23.997  0.00  0.00    +0.167 C 
ATOM     48  C   UNL     1       9.450   2.674  24.538  0.00  0.00    +0.139 C 
ATOM     49  C   UNL     1       8.269   1.656  24.519  0.00  0.00    +0.270 C 
ATOM     50  O   UNL     1       8.084   1.106  23.214  0.00  0.00    -0.343 OA
BRANCH  48  51
ATOM     51  N   UNL     1       9.106   3.906  23.761  0.00  0.00    -0.321 NA
ATOM     52  H   UNL     1       8.097   4.056  23.894  0.00  0.00    +0.119 HD
ATOM     53  H   UNL     1       9.517   4.682  24.296  0.00  0.00    +0.119 HD
ENDBRANCH  48  51
BRANCH  47  54
ATOM     54  O   UNL     1      11.289   1.099  24.946  0.00  0.00    -0.387 OA
ATOM     55  H   UNL     1      11.641   1.574  25.715  0.00  0.00    +0.210 HD
ENDBRANCH  47  54
BRANCH  46  56
ATOM     56  O   UNL     1      10.209   2.260  21.607  0.00  0.00    -0.387 OA
ATOM     57  H   UNL     1       9.384   2.733  21.822  0.00  0.00    +0.210 HD
ENDBRANCH  46  56
BRANCH  45  58
ATOM     58  C   UNL     1       8.969  -0.353  21.465  0.00  0.00    +0.112 C 
BRANCH  58  59
ATOM     59  N   UNL     1       9.809  -1.548  21.306  0.00  0.00    -0.328 NA
ATOM     60  H   UNL     1      10.378  -1.415  20.467  0.00  0.00    +0.118 HD
ATOM     61  H   UNL     1      10.463  -1.594  22.085  0.00  0.00    +0.118 HD
ENDBRANCH  58  59
ENDBRANCH  45  58
ENDBRANCH  44  49
ENDBRANCH  34  44
ENDBRANCH  33  36
ENDBRANCH   1  33
TORSDOF 22
ENDMDL
MODEL 2
REMARK VINA RESULT:      -6.5      2.961      8.779
REMARK  Name = 
REMARK  22 active torsions:
REMARK  status: ('A' for Active; 'I' for Inactive)
REMARK    1  A    between atoms: N_1  and  C_2
REMARK    2  A    between atoms: C_2  and  C_3
REMARK    3  A    between atoms: C_6  and  O_8
REMARK    4  A    between atoms: O_8  and  C_9
REMARK    5  A    between atoms: C_11  and  C_13
REMARK    6  A    between atoms: C_13  and  O_14
REMARK    7  A    between atoms: C_16  and  O_18
REMARK    8  A    between atoms: O_18  and  C_19
REMARK    9  A    between atoms: C_21  and  O_23
REMARK   10  A    between atoms: C_24  and  N_26
REMARK   11  A    between atoms: C_28  and  N_30
REMARK   12  A    between atoms: C_31  and  O_33
REMARK   13  A    between atoms: O_33  and  C_34
REMARK   14  A    between atoms: C_37  and  C_39
REMARK   15  A    between atoms: C_39  and  N_40
REMARK   16  A    between atoms: C_41  and  O_43
REMARK   17  A    between atoms: C_44  and  O_46
REMARK   18  A    between atoms: C_47  and  N_49
REMARK   19  A    between atoms: C_50  and  O_52
REMARK   20  A    between atoms: C_53  and  N_55
REMARK   21  A    between atoms: C_56  and  O_58
REMARK   22  A    between atoms: C_59  and  O_61
REMARK                            x       y       z     vdW  Elec       q    Type
REMARK                         _______ _______ _______ _____ _____    ______ ____
ROOT
ATOM      1  C   UNL     1       9.856   3.444  23.752  0.00  0.00    +0.182 C 
ATOM      2  C   UNL     1       9.271   4.646  24.538  0.00  0.00    +0.169 C 
ATOM      3  C   UNL     1       9.890   5.996  24.096  0.00  0.00    +0.084 C 
ATOM      4  C   UNL     1      11.409   5.927  24.187  0.00  0.00    +0.042 C 
ATOM      5  C   UNL     1      11.964   4.942  23.168  0.00  0.00    +0.084 C 
ATOM      6  C   UNL     1      11.316   3.553  23.250  0.00  0.00    +0.163 C 
ENDROOT
BRANCH   3   7
ATOM      7  N   UNL     1       9.417   7.108  24.948  0.00  0.00    -0.325 NA
ATOM      8  H   UNL     1       9.113   7.884  24.364  0.00  0.00    +0.119 HD
ATOM      9  H   UNL     1       8.586   6.805  25.458  0.00  0.00    +0.119 HD
ENDBRANCH   3   7
BRANCH   5  10
ATOM     10  N   UNL     1      13.425   4.831  23.390  0.00  0.00    -0.325 NA
ATOM     11  H   UNL     1      13.689   5.361  24.227  0.00  0.00    +0.119 HD
ATOM     12  H   UNL     1      13.669   3.864  23.598  0.00  0.00    +0.119 HD
ENDBRANCH   5  10
BRANCH   6  13
ATOM     13  O   UNL     1      11.398   2.919  21.959  0.00  0.00    -0.388 OA
ATOM     14  H   UNL     1      12.317   2.979  21.652  0.00  0.00    +0.210 HD
ENDBRANCH   6  13
BRANCH   2  15
ATOM     15  O   UNL     1       7.835   4.746  24.378  0.00  0.00    -0.342 OA
BRANCH  15  16
ATOM     16  C   UNL     1       7.280   3.976  23.305  0.00  0.00    +0.270 C 
ATOM     17  C   UNL     1       6.641   4.920  22.251  0.00  0.00    +0.139 C 
ATOM     18  C   UNL     1       5.405   5.600  22.866  0.00  0.00    +0.167 C 
ATOM     19  C   UNL     1       4.436   4.534  23.399  0.00  0.00    +0.175 C 
ATOM     20  C   UNL     1       5.170   3.608  24.380  0.00  0.00    +0.166 C 
ATOM     21  O   UNL     1       6.331   3.018  23.781  0.00  0.00    -0.343 OA
BRANCH  17  22
ATOM     22  N   UNL     1       7.588   5.922  21.706  0.00  0.00    -0.321 NA
ATOM     23  H   UNL     1       8.461   5.821  22.234  0.00  0.00    +0.119 HD
ATOM     24  H   UNL     1       7.817   5.651  20.748  0.00  0.00    +0.119 HD
ENDBRANCH  17  22
BRANCH  19  25
ATOM     25  O   UNL     1       3.310   5.181  24.007  0.00  0.00    -0.387 OA
ATOM     26  H   UNL     1       3.443   5.191  24.972  0.00  0.00    +0.210 HD
ENDBRANCH  19  25
BRANCH  18  27
ATOM     27  O   UNL     1       4.743   6.403  21.874  0.00  0.00    -0.387 OA
ATOM     28  H   UNL     1       3.851   6.021  21.771  0.00  0.00    +0.210 HD
ENDBRANCH  18  27
BRANCH  20  29
ATOM     29  C   UNL     1       4.280   2.471  24.932  0.00  0.00    +0.112 C 
BRANCH  29  30
ATOM     30  N   UNL     1       4.837   1.124  24.771  0.00  0.00    -0.328 NA
ATOM     31  H   UNL     1       4.860   0.892  23.776  0.00  0.00    +0.118 HD
ATOM     32  H   UNL     1       5.819   1.129  25.059  0.00  0.00    +0.118 HD
ENDBRANCH  29  30
ENDBRANCH  20  29
ENDBRANCH  15  16
ENDBRANCH   2  15
BRANCH   1  33
ATOM     33  O   UNL     1       9.656   2.176  24.449  0.00  0.00    -0.340 OA
BRANCH  33  36
ATOM     34  C   UNL     1       9.423  -1.062  24.874  0.00  0.00    +0.186 C 
ATOM     35  C   UNL     1      10.222  -0.158  23.912  0.00  0.00    +0.202 C 
ATOM     36  C   UNL     1       9.285   1.037  23.653  0.00  0.00    +0.282 C 
ATOM     37  O   UNL     1       7.975   0.584  23.995  0.00  0.00    -0.341 OA
ATOM     38  C   UNL     1       8.123  -0.294  25.122  0.00  0.00    +0.178 C 
BRANCH  35  39
ATOM     39  O   UNL     1      10.545  -0.817  22.675  0.00  0.00    -0.384 OA
ATOM     40  H   UNL     1      11.457  -1.169  22.763  0.00  0.00    +0.210 HD
ENDBRANCH  35  39
BRANCH  38  41
ATOM     41  C   UNL     1       8.064   0.444  26.464  0.00  0.00    +0.190 C 
BRANCH  41  42
ATOM     42  O   UNL     1       7.514   1.747  26.327  0.00  0.00    -0.392 OA
ATOM     43  H   UNL     1       8.219   2.332  25.999  0.00  0.00    +0.210 HD
ENDBRANCH  41  42
ENDBRANCH  38  41
BRANCH  34  44
ATOM     44  O   UNL     1       8.943  -2.277  24.309  0.00  0.00    -0.341 OA
BRANCH  44  49
ATOM     45  C   UNL     1       5.629  -3.761  24.589  0.00  0.00    +0.166 C 
ATOM     46  C   UNL     1       6.039  -5.174  25.054  0.00  0.00    +0.175 C 
ATOM     47  C   UNL     1       7.220  -5.070  26.034  0.00  0.00    +0.167 C 
ATOM     48  C   UNL     1       8.359  -4.230  25.445  0.00  0.00    +0.139 C 
ATOM     49  C   UNL     1       7.805  -2.880  24.896  0.00  0.00    +0.270 C 
ATOM     50  O   UNL     1       6.751  -3.099  23.958  0.00  0.00    -0.343 OA
BRANCH  48  51
ATOM     51  N   UNL     1       9.087  -4.983  24.376  0.00  0.00    -0.321 NA
ATOM     52  H   UNL     1       9.156  -5.955  24.706  0.00  0.00    +0.119 HD
ATOM     53  H   UNL     1       8.416  -5.061  23.601  0.00  0.00    +0.119 HD
ENDBRANCH  48  51
BRANCH  47  54
ATOM     54  O   UNL     1       6.781  -4.550  27.299  0.00  0.00    -0.387 OA
ATOM     55  H   UNL     1       7.431  -4.743  27.993  0.00  0.00    +0.210 HD
ENDBRANCH  47  54
BRANCH  46  56
ATOM     56  O   UNL     1       6.374  -5.977  23.913  0.00  0.00    -0.387 OA
ATOM     57  H   UNL     1       6.622  -5.377  23.185  0.00  0.00    +0.210 HD
ENDBRANCH  46  56
BRANCH  45  58
ATOM     58  C   UNL     1       4.448  -3.836  23.603  0.00  0.00    +0.112 C 
BRANCH  58  59
ATOM     59  N   UNL     1       4.907  -4.105  22.234  0.00  0.00    -0.328 NA
ATOM     60  H   UNL     1       5.048  -5.114  22.149  0.00  0.00    +0.118 HD
ATOM     61  H   UNL     1       4.157  -3.870  21.586  0.00  0.00    +0.118 HD
ENDBRANCH  58  59
ENDBRANCH  45  58
ENDBRANCH  44  49
ENDBRANCH  34  44
ENDBRANCH  33  36
ENDBRANCH   1  33
TORSDOF 22
ENDMDL
MODEL 3
REMARK VINA RESULT:      -6.4      2.771      5.369
REMARK  Name = 
REMARK  22 active torsions:
REMARK  status: ('A' for Active; 'I' for Inactive)
REMARK    1  A    between atoms: N_1  and  C_2
REMARK    2  A    between atoms: C_2  and  C_3
REMARK    3  A    between atoms: C_6  and  O_8
REMARK    4  A    between atoms: O_8  and  C_9
REMARK    5  A    between atoms: C_11  and  C_13
REMARK    6  A    between atoms: C_13  and  O_14
REMARK    7  A    between atoms: C_16  and  O_18
REMARK    8  A    between atoms: O_18  and  C_19
REMARK    9  A    between atoms: C_21  and  O_23
REMARK   10  A    between atoms: C_24  and  N_26
REMARK   11  A    between atoms: C_28  and  N_30
REMARK   12  A    between atoms: C_31  and  O_33
REMARK   13  A    between atoms: O_33  and  C_34
REMARK   14  A    between atoms: C_37  and  C_39
REMARK   15  A    between atoms: C_39  and  N_40
REMARK   16  A    between atoms: C_41  and  O_43
REMARK   17  A    between atoms: C_44  and  O_46
REMARK   18  A    between atoms: C_47  and  N_49
REMARK   19  A    between atoms: C_50  and  O_52
REMARK   20  A    between atoms: C_53  and  N_55
REMARK   21  A    between atoms: C_56  and  O_58
REMARK   22  A    between atoms: C_59  and  O_61
REMARK                            x       y       z     vdW  Elec       q    Type
REMARK                         _______ _______ _______ _____ _____    ______ ____
ROOT
ATOM      1  C   UNL     1       6.788  -5.360  24.332  0.00  0.00    +0.182 C 
ATOM      2  C   UNL     1       5.323  -5.329  24.838  0.00  0.00    +0.169 C 
ATOM      3  C   UNL     1       4.362  -6.109  23.906  0.00  0.00    +0.084 C 
ATOM      4  C   UNL     1       4.493  -5.597  22.477  0.00  0.00    +0.042 C 
ATOM      5  C   UNL     1       5.868  -5.928  21.912  0.00  0.00    +0.084 C 
ATOM      6  C   UNL     1       7.022  -5.453  22.804  0.00  0.00    +0.163 C 
ENDROOT
BRANCH   3   7
ATOM      7  N   UNL     1       2.955  -5.954  24.334  0.00  0.00    -0.325 NA
ATOM      8  H   UNL     1       2.670  -4.981  24.237  0.00  0.00    +0.119 HD
ATOM      9  H   UNL     1       2.355  -6.481  23.699  0.00  0.00    +0.119 HD
ENDBRANCH   3   7
BRANCH   5  10
ATOM     10  N   UNL     1       5.973  -5.300  20.574  0.00  0.00    -0.325 NA
ATOM     11  H   UNL     1       5.751  -5.990  19.849  0.00  0.00    +0.119 HD
ATOM     12  H   UNL     1       5.264  -4.574  20.478  0.00  0.00    +0.119 HD
ENDBRANCH   5  10
BRANCH   6  13
ATOM     13  O   UNL     1       8.170  -6.292  22.574  0.00  0.00    -0.388 OA
ATOM     14  H   UNL     1       8.771  -6.193  23.330  0.00  0.00    +0.210 HD
ENDBRANCH   6  13
BRANCH   2  15
ATOM     15  O   UNL     1       5.200  -5.892  26.167  0.00  0.00    -0.342 OA
BRANCH  15  16
ATOM     16  C   UNL     1       5.300  -4.953  27.245  0.00  0.00    +0.270 C 
ATOM     17  C   UNL     1       6.274  -5.492  28.328  0.00  0.00    +0.139 C 
ATOM     18  C   UNL     1       5.648  -6.727  28.999  0.00  0.00    +0.167 C 
ATOM     19  C   UNL     1       4.258  -6.372  29.549  0.00  0.00    +0.175 C 
ATOM     20  C   UNL     1       3.389  -5.785  28.427  0.00  0.00    +0.166 C 
ATOM     21  O   UNL     1       4.019  -4.657  27.805  0.00  0.00    -0.343 OA
BRANCH  17  22
ATOM     22  N   UNL     1       7.627  -5.795  27.805  0.00  0.00    -0.321 NA
ATOM     23  H   UNL     1       7.956  -6.631  28.299  0.00  0.00    +0.119 HD
ATOM     24  H   UNL     1       7.531  -6.078  26.828  0.00  0.00    +0.119 HD
ENDBRANCH  17  22
BRANCH  19  25
ATOM     25  O   UNL     1       3.668  -7.540  30.134  0.00  0.00    -0.387 OA
ATOM     26  H   UNL     1       4.154  -7.757  30.950  0.00  0.00    +0.210 HD
ENDBRANCH  19  25
BRANCH  18  27
ATOM     27  O   UNL     1       6.490  -7.182  30.072  0.00  0.00    -0.387 OA
ATOM     28  H   UNL     1       5.908  -7.678  30.678  0.00  0.00    +0.210 HD
ENDBRANCH  18  27
BRANCH  20  29
ATOM     29  C   UNL     1       1.983  -5.354  28.902  0.00  0.00    +0.112 C 
BRANCH  29  30
ATOM     30  N   UNL     1       1.034  -6.458  29.086  0.00  0.00    -0.328 NA
ATOM     31  H   UNL     1       0.176  -6.247  28.574  0.00  0.00    +0.118 HD
ATOM     32  H   UNL     1       1.405  -7.299  28.638  0.00  0.00    +0.118 HD
ENDBRANCH  29  30
ENDBRANCH  20  29
ENDBRANCH  15  16
ENDBRANCH   2  15
BRANCH   1  33
ATOM     33  O   UNL     1       7.593  -4.281  24.900  0.00  0.00    -0.340 OA
BRANCH  33  36
ATOM     34  C   UNL     1       8.485  -1.137  25.102  0.00  0.00    +0.186 C 
ATOM     35  C   UNL     1       7.767  -2.115  26.056  0.00  0.00    +0.202 C 
ATOM     36  C   UNL     1       6.942  -3.016  25.118  0.00  0.00    +0.282 C 
ATOM     37  O   UNL     1       6.817  -2.292  23.895  0.00  0.00    -0.341 OA
ATOM     38  C   UNL     1       8.052  -1.585  23.705  0.00  0.00    +0.178 C 
BRANCH  35  39
ATOM     39  O   UNL     1       6.904  -1.443  26.990  0.00  0.00    -0.384 OA
ATOM     40  H   UNL     1       5.991  -1.759  26.821  0.00  0.00    +0.210 HD
ENDBRANCH  35  39
BRANCH  38  41
ATOM     41  C   UNL     1       9.099  -2.407  22.945  0.00  0.00    +0.190 C 
BRANCH  41  42
ATOM     42  O   UNL     1      10.116  -2.896  23.810  0.00  0.00    -0.392 OA
ATOM     43  H   UNL     1      10.626  -3.563  23.318  0.00  0.00    +0.210 HD
ENDBRANCH  41  42
ENDBRANCH  38  41
BRANCH  34  44
ATOM     44  O   UNL     1       8.013   0.205  25.140  0.00  0.00    -0.341 OA
BRANCH  44  49
ATOM     45  C   UNL     1       6.310   2.339  22.729  0.00  0.00    +0.166 C 
ATOM     46  C   UNL     1       7.469   3.304  22.404  0.00  0.00    +0.175 C 
ATOM     47  C   UNL     1       8.792   2.520  22.350  0.00  0.00    +0.167 C 
ATOM     48  C   UNL     1       8.990   1.677  23.615  0.00  0.00    +0.139 C 
ATOM     49  C   UNL     1       7.710   0.839  23.911  0.00  0.00    +0.270 C 
ATOM     50  O   UNL     1       6.554   1.674  23.991  0.00  0.00    -0.343 OA
BRANCH  48  51
ATOM     51  N   UNL     1       9.348   2.538  24.786  0.00  0.00    -0.321 NA
ATOM     52  H   UNL     1       9.870   1.935  25.435  0.00  0.00    +0.119 HD
ATOM     53  H   UNL     1      10.079   3.171  24.437  0.00  0.00    +0.119 HD
ENDBRANCH  48  51
BRANCH  47  54
ATOM     54  O   UNL     1       8.850   1.712  21.164  0.00  0.00    -0.387 OA
ATOM     55  H   UNL     1       9.709   1.810  20.725  0.00  0.00    +0.210 HD
ENDBRANCH  47  54
BRANCH  46  56
ATOM     56  O   UNL     1       7.518   4.345  23.390  0.00  0.00    -0.387 OA
ATOM     57  H   UNL     1       7.033   4.037  24.178  0.00  0.00    +0.210 HD
ENDBRANCH  46  56
BRANCH  45  58
ATOM     58  C   UNL     1       4.973   3.100  22.792  0.00  0.00    +0.112 C 
BRANCH  58  59
ATOM     59  N   UNL     1       5.042   4.370  22.058  0.00  0.00    -0.328 NA
ATOM     60  H   UNL     1       4.255   4.392  21.405  0.00  0.00    +0.118 HD
ATOM     61  H   UNL     1       4.885   5.135  22.712  0.00  0.00    +0.118 HD
ENDBRANCH  58  59
ENDBRANCH  45  58
ENDBRANCH  44  49
ENDBRANCH  34  44
ENDBRANCH  33  36
ENDBRANCH   1  33
TORSDOF 22
ENDMDL
MODEL 4
REMARK VINA RESULT:      -6.3      2.779      5.373
REMARK  Name = 
REMARK  22 active torsions:
REMARK  status: ('A' for Active; 'I' for Inactive)
REMARK    1  A    between atoms: N_1  and  C_2
REMARK    2  A    between atoms: C_2  and  C_3
REMARK    3  A    between atoms: C_6  and  O_8
REMARK    4  A    between atoms: O_8  and  C_9
REMARK    5  A    between atoms: C_11  and  C_13
REMARK    6  A    between atoms: C_13  and  O_14
REMARK    7  A    between atoms: C_16  and  O_18
REMARK    8  A    between atoms: O_18  and  C_19
REMARK    9  A    between atoms: C_21  and  O_23
REMARK   10  A    between atoms: C_24  and  N_26
REMARK   11  A    between atoms: C_28  and  N_30
REMARK   12  A    between atoms: C_31  and  O_33
REMARK   13  A    between atoms: O_33  and  C_34
REMARK   14  A    between atoms: C_37  and  C_39
REMARK   15  A    between atoms: C_39  and  N_40
REMARK   16  A    between atoms: C_41  and  O_43
REMARK   17  A    between atoms: C_44  and  O_46
REMARK   18  A    between atoms: C_47  and  N_49
REMARK   19  A    between atoms: C_50  and  O_52
REMARK   20  A    between atoms: C_53  and  N_55
REMARK   21  A    between atoms: C_56  and  O_58
REMARK   22  A    between atoms: C_59  and  O_61
REMARK                            x       y       z     vdW  Elec       q    Type
REMARK                         _______ _______ _______ _____ _____    ______ ____
ROOT
ATOM      1  C   UNL     1       6.900  -5.335  24.134  0.00  0.00    +0.182 C 
ATOM      2  C   UNL     1       5.442  -5.300  24.659  0.00  0.00    +0.169 C 
ATOM      3  C   UNL     1       4.476  -6.122  23.769  0.00  0.00    +0.084 C 
ATOM      4  C   UNL     1       4.582  -5.661  22.321  0.00  0.00    +0.042 C 
ATOM      5  C   UNL     1       5.953  -5.999  21.749  0.00  0.00    +0.084 C 
ATOM      6  C   UNL     1       7.114  -5.481  22.607  0.00  0.00    +0.163 C 
ENDROOT
BRANCH   3   7
ATOM      7  N   UNL     1       3.074  -5.965  24.211  0.00  0.00    -0.325 NA
ATOM      8  H   UNL     1       2.951  -6.395  25.126  0.00  0.00    +0.119 HD
ATOM      9  H   UNL     1       2.877  -4.973  24.345  0.00  0.00    +0.119 HD
ENDBRANCH   3   7
BRANCH   5  10
ATOM     10  N   UNL     1       6.033  -5.419  20.387  0.00  0.00    -0.325 NA
ATOM     11  H   UNL     1       6.905  -4.888  20.288  0.00  0.00    +0.119 HD
ATOM     12  H   UNL     1       6.094  -6.167  19.698  0.00  0.00    +0.119 HD
ENDBRANCH   5  10
BRANCH   6  13
ATOM     13  O   UNL     1       8.268  -6.316  22.392  0.00  0.00    -0.388 OA
ATOM     14  H   UNL     1       8.690  -6.037  21.564  0.00  0.00    +0.210 HD
ENDBRANCH   6  13
BRANCH   2  15
ATOM     15  O   UNL     1       5.343  -5.815  26.009  0.00  0.00    -0.342 OA
BRANCH  15  16
ATOM     16  C   UNL     1       5.449  -4.837  27.051  0.00  0.00    +0.270 C 
ATOM     17  C   UNL     1       6.435  -5.332  28.143  0.00  0.00    +0.139 C 
ATOM     18  C   UNL     1       5.821  -6.544  28.866  0.00  0.00    +0.167 C 
ATOM     19  C   UNL     1       4.434  -6.175  29.415  0.00  0.00    +0.175 C 
ATOM     20  C   UNL     1       3.552  -5.633  28.280  0.00  0.00    +0.166 C 
ATOM     21  O   UNL     1       4.172  -4.526  27.612  0.00  0.00    -0.343 OA
BRANCH  17  22
ATOM     22  N   UNL     1       7.785  -5.649  27.619  0.00  0.00    -0.321 NA
ATOM     23  H   UNL     1       7.708  -5.669  26.597  0.00  0.00    +0.119 HD
ATOM     24  H   UNL     1       8.398  -4.859  27.831  0.00  0.00    +0.119 HD
ENDBRANCH  17  22
BRANCH  19  25
ATOM     25  O   UNL     1       3.855  -7.323  30.047  0.00  0.00    -0.387 OA
ATOM     26  H   UNL     1       4.533  -8.020  30.105  0.00  0.00    +0.210 HD
ENDBRANCH  19  25
BRANCH  18  27
ATOM     27  O   UNL     1       6.674  -6.956  29.946  0.00  0.00    -0.387 OA
ATOM     28  H   UNL     1       7.441  -7.395  29.530  0.00  0.00    +0.210 HD
ENDBRANCH  18  27
BRANCH  20  29
ATOM     29  C   UNL     1       2.149  -5.190  28.752  0.00  0.00    +0.112 C 
BRANCH  29  30
ATOM     30  N   UNL     1       2.024  -4.994  30.201  0.00  0.00    -0.328 NA
ATOM     31  H   UNL     1       1.307  -4.289  30.380  0.00  0.00    +0.118 HD
ATOM     32  H   UNL     1       1.660  -5.850  30.627  0.00  0.00    +0.118 HD
ENDBRANCH  29  30
ENDBRANCH  20  29
ENDBRANCH  15  16
ENDBRANCH   2  15
BRANCH   1  33
ATOM     33  O   UNL     1       7.701  -4.228  24.651  0.00  0.00    -0.340 OA
BRANCH  33  36
ATOM     34  C   UNL     1       7.695  -0.994  24.138  0.00  0.00    +0.186 C 
ATOM     35  C   UNL     1       7.257  -2.216  23.304  0.00  0.00    +0.202 C 
ATOM     36  C   UNL     1       8.265  -3.316  23.691  0.00  0.00    +0.282 C 
ATOM     37  O   UNL     1       9.392  -2.634  24.240  0.00  0.00    -0.341 OA
ATOM     38  C   UNL     1       8.879  -1.503  24.963  0.00  0.00    +0.178 C 
BRANCH  35  39
ATOM     39  O   UNL     1       7.309  -1.966  21.888  0.00  0.00    -0.384 OA
ATOM     40  H   UNL     1       6.863  -1.107  21.728  0.00  0.00    +0.210 HD
ENDBRANCH  35  39
BRANCH  38  41
ATOM     41  C   UNL     1       8.546  -1.831  26.423  0.00  0.00    +0.190 C 
BRANCH  41  42
ATOM     42  O   UNL     1       7.145  -1.810  26.662  0.00  0.00    -0.392 OA
ATOM     43  H   UNL     1       6.698  -1.916  25.804  0.00  0.00    +0.210 HD
ENDBRANCH  41  42
ENDBRANCH  38  41
BRANCH  34  44
ATOM     44  O   UNL     1       8.288   0.066  23.397  0.00  0.00    -0.341 OA
BRANCH  44  49
ATOM     45  C   UNL     1       7.647   3.497  24.439  0.00  0.00    +0.166 C 
ATOM     46  C   UNL     1       7.923   4.209  23.098  0.00  0.00    +0.175 C 
ATOM     47  C   UNL     1       7.382   3.353  21.940  0.00  0.00    +0.167 C 
ATOM     48  C   UNL     1       7.900   1.913  22.023  0.00  0.00    +0.139 C 
ATOM     49  C   UNL     1       7.679   1.342  23.457  0.00  0.00    +0.270 C 
ATOM     50  O   UNL     1       8.267   2.189  24.446  0.00  0.00    -0.343 OA
BRANCH  48  51
ATOM     51  N   UNL     1       9.344   1.836  21.635  0.00  0.00    -0.321 NA
ATOM     52  H   UNL     1       9.672   0.908  21.934  0.00  0.00    +0.119 HD
ATOM     53  H   UNL     1       9.340   1.749  20.611  0.00  0.00    +0.119 HD
ENDBRANCH  48  51
BRANCH  47  54
ATOM     54  O   UNL     1       5.947   3.397  21.910  0.00  0.00    -0.387 OA
ATOM     55  H   UNL     1       5.592   3.592  22.792  0.00  0.00    +0.210 HD
ENDBRANCH  47  54
BRANCH  46  56
ATOM     56  O   UNL     1       9.332   4.445  22.961  0.00  0.00    -0.387 OA
ATOM     57  H   UNL     1       9.497   5.390  23.133  0.00  0.00    +0.210 HD
ENDBRANCH  46  56
BRANCH  45  58
ATOM     58  C   UNL     1       8.182   4.332  25.616  0.00  0.00    +0.112 C 
BRANCH  58  59
ATOM     59  N   UNL     1       7.701   3.815  26.904  0.00  0.00    -0.328 NA
ATOM     60  H   UNL     1       7.581   2.804  26.806  0.00  0.00    +0.118 HD
ATOM     61  H   UNL     1       8.433   3.944  27.602  0.00  0.00    +0.118 HD
ENDBRANCH  58  59
ENDBRANCH  45  58
ENDBRANCH  44  49
ENDBRANCH  34  44
ENDBRANCH  33  36
ENDBRANCH   1  33
TORSDOF 22
ENDMDL
MODEL 5
REMARK VINA RESULT:      -6.3      1.815      2.724
REMARK  Name = 
REMARK  22 active torsions:
REMARK  status: ('A' for Active; 'I' for Inactive)
REMARK    1  A    between atoms: N_1  and  C_2
REMARK    2  A    between atoms: C_2  and  C_3
REMARK    3  A    between atoms: C_6  and  O_8
REMARK    4  A    between atoms: O_8  and  C_9
REMARK    5  A    between atoms: C_11  and  C_13
REMARK    6  A    between atoms: C_13  and  O_14
REMARK    7  A    between atoms: C_16  and  O_18
REMARK    8  A    between atoms: O_18  and  C_19
REMARK    9  A    between atoms: C_21  and  O_23
REMARK   10  A    between atoms: C_24  and  N_26
REMARK   11  A    between atoms: C_28  and  N_30
REMARK   12  A    between atoms: C_31  and  O_33
REMARK   13  A    between atoms: O_33  and  C_34
REMARK   14  A    between atoms: C_37  and  C_39
REMARK   15  A    between atoms: C_39  and  N_40
REMARK   16  A    between atoms: C_41  and  O_43
REMARK   17  A    between atoms: C_44  and  O_46
REMARK   18  A    between atoms: C_47  and  N_49
REMARK   19  A    between atoms: C_50  and  O_52
REMARK   20  A    between atoms: C_53  and  N_55
REMARK   21  A    between atoms: C_56  and  O_58
REMARK   22  A    between atoms: C_59  and  O_61
REMARK                            x       y       z     vdW  Elec       q    Type
REMARK                         _______ _______ _______ _____ _____    ______ ____
ROOT
ATOM      1  C   UNL     1       4.577  -2.173  26.708  0.00  0.00    +0.182 C 
ATOM      2  C   UNL     1       5.568  -3.003  27.564  0.00  0.00    +0.169 C 
ATOM      3  C   UNL     1       4.956  -4.346  28.035  0.00  0.00    +0.084 C 
ATOM      4  C   UNL     1       3.637  -4.094  28.755  0.00  0.00    +0.042 C 
ATOM      5  C   UNL     1       2.592  -3.558  27.787  0.00  0.00    +0.084 C 
ATOM      6  C   UNL     1       3.065  -2.329  27.000  0.00  0.00    +0.163 C 
ENDROOT
BRANCH   3   7
ATOM      7  N   UNL     1       5.868  -5.057  28.957  0.00  0.00    -0.325 NA
ATOM      8  H   UNL     1       6.113  -4.450  29.736  0.00  0.00    +0.119 HD
ATOM      9  H   UNL     1       5.371  -5.847  29.371  0.00  0.00    +0.119 HD
ENDBRANCH   3   7
BRANCH   5  10
ATOM     10  N   UNL     1       1.378  -3.220  28.569  0.00  0.00    -0.325 NA
ATOM     11  H   UNL     1       0.541  -3.475  28.036  0.00  0.00    +0.119 HD
ATOM     12  H   UNL     1       1.343  -3.791  29.413  0.00  0.00    +0.119 HD
ENDBRANCH   5  10
BRANCH   6  13
ATOM     13  O   UNL     1       2.355  -2.269  25.748  0.00  0.00    -0.388 OA
ATOM     14  H   UNL     1       1.865  -1.432  25.720  0.00  0.00    +0.210 HD
ENDBRANCH   6  13
BRANCH   2  15
ATOM     15  O   UNL     1       6.785  -3.304  26.839  0.00  0.00    -0.342 OA
BRANCH  15  16
ATOM     16  C   UNL     1       6.649  -4.255  25.776  0.00  0.00    +0.270 C 
ATOM     17  C   UNL     1       7.826  -5.267  25.817  0.00  0.00    +0.139 C 
ATOM     18  C   UNL     1       9.133  -4.537  25.465  0.00  0.00    +0.167 C 
ATOM     19  C   UNL     1       8.984  -3.828  24.110  0.00  0.00    +0.175 C 
ATOM     20  C   UNL     1       7.760  -2.901  24.139  0.00  0.00    +0.166 C 
ATOM     21  O   UNL     1       6.568  -3.612  24.502  0.00  0.00    -0.343 OA
BRANCH  17  22
ATOM     22  N   UNL     1       7.943  -5.981  27.111  0.00  0.00    -0.321 NA
ATOM     23  H   UNL     1       8.794  -5.635  27.564  0.00  0.00    +0.119 HD
ATOM     24  H   UNL     1       7.173  -5.676  27.710  0.00  0.00    +0.119 HD
ENDBRANCH  17  22
BRANCH  19  25
ATOM     25  O   UNL     1      10.193  -3.116  23.814  0.00  0.00    -0.387 OA
ATOM     26  H   UNL     1      10.800  -3.718  23.347  0.00  0.00    +0.210 HD
ENDBRANCH  19  25
BRANCH  18  27
ATOM     27  O   UNL     1      10.219  -5.476  25.402  0.00  0.00    -0.387 OA
ATOM     28  H   UNL     1      10.260  -5.778  24.475  0.00  0.00    +0.210 HD
ENDBRANCH  18  27
BRANCH  20  29
ATOM     29  C   UNL     1       7.505  -2.180  22.796  0.00  0.00    +0.112 C 
BRANCH  29  30
ATOM     30  N   UNL     1       7.712  -0.728  22.833  0.00  0.00    -0.328 NA
ATOM     31  H   UNL     1       8.253  -0.449  22.012  0.00  0.00    +0.118 HD
ATOM     32  H   UNL     1       6.811  -0.256  22.723  0.00  0.00    +0.118 HD
ENDBRANCH  29  30
ENDBRANCH  20  29
ENDBRANCH  15  16
ENDBRANCH   2  15
BRANCH   1  33
ATOM     33  O   UNL     1       4.938  -0.758  26.660  0.00  0.00    -0.340 OA
BRANCH  33  36
ATOM     34  C   UNL     1       6.533   1.965  25.786  0.00  0.00    +0.186 C 
ATOM     35  C   UNL     1       5.387   1.142  25.161  0.00  0.00    +0.202 C 
ATOM     36  C   UNL     1       5.721  -0.314  25.537  0.00  0.00    +0.282 C 
ATOM     37  O   UNL     1       7.112  -0.323  25.854  0.00  0.00    -0.341 OA
ATOM     38  C   UNL     1       7.397   0.926  26.504  0.00  0.00    +0.178 C 
BRANCH  35  39
ATOM     39  O   UNL     1       5.319   1.286  23.731  0.00  0.00    -0.384 OA
ATOM     40  H   UNL     1       6.140   1.743  23.446  0.00  0.00    +0.210 HD
ENDBRANCH  35  39
BRANCH  38  41
ATOM     41  C   UNL     1       7.196   0.867  28.022  0.00  0.00    +0.190 C 
BRANCH  41  42
ATOM     42  O   UNL     1       7.568   2.086  28.652  0.00  0.00    -0.392 OA
ATOM     43  H   UNL     1       7.650   2.764  27.957  0.00  0.00    +0.210 HD
ENDBRANCH  41  42
ENDBRANCH  38  41
BRANCH  34  44
ATOM     44  O   UNL     1       7.455   2.524  24.859  0.00  0.00    -0.341 OA
BRANCH  44  49
ATOM     45  C   UNL     1       9.261   5.669  24.511  0.00  0.00    +0.166 C 
ATOM     46  C   UNL     1       8.262   6.418  23.605  0.00  0.00    +0.175 C 
ATOM     47  C   UNL     1       6.824   6.085  24.038  0.00  0.00    +0.167 C 
ATOM     48  C   UNL     1       6.606   4.570  24.122  0.00  0.00    +0.139 C 
ATOM     49  C   UNL     1       7.743   3.907  24.958  0.00  0.00    +0.270 C 
ATOM     50  O   UNL     1       9.029   4.242  24.435  0.00  0.00    -0.343 OA
BRANCH  48  51
ATOM     51  N   UNL     1       6.521   3.961  22.757  0.00  0.00    -0.321 NA
ATOM     52  H   UNL     1       6.527   4.745  22.092  0.00  0.00    +0.119 HD
ATOM     53  H   UNL     1       7.441   3.531  22.600  0.00  0.00    +0.119 HD
ENDBRANCH  48  51
BRANCH  47  54
ATOM     54  O   UNL     1       6.509   6.733  25.280  0.00  0.00    -0.387 OA
ATOM     55  H   UNL     1       5.618   7.116  25.251  0.00  0.00    +0.210 HD
ENDBRANCH  47  54
BRANCH  46  56
ATOM     56  O   UNL     1       8.493   6.059  22.235  0.00  0.00    -0.387 OA
ATOM     57  H   UNL     1       9.160   5.347  22.219  0.00  0.00    +0.210 HD
ENDBRANCH  46  56
BRANCH  45  58
ATOM     58  C   UNL     1      10.710   5.983  24.096  0.00  0.00    +0.112 C 
BRANCH  58  59
ATOM     59  N   UNL     1      11.194   5.042  23.078  0.00  0.00    -0.328 NA
ATOM     60  H   UNL     1      10.461   4.950  22.370  0.00  0.00    +0.118 HD
ATOM     61  H   UNL     1      11.993   5.458  22.602  0.00  0.00    +0.118 HD
ENDBRANCH  58  59
ENDBRANCH  45  58
ENDBRANCH  44  49
ENDBRANCH  34  44
ENDBRANCH  33  36
ENDBRANCH   1  33
TORSDOF 22
ENDMDL
MODEL 6
REMARK VINA RESULT:      -6.3      2.693      5.176
REMARK  Name = 
REMARK  22 active torsions:
REMARK  status: ('A' for Active; 'I' for Inactive)
REMARK    1  A    between atoms: N_1  and  C_2
REMARK    2  A    between atoms: C_2  and  C_3
REMARK    3  A    between atoms: C_6  and  O_8
REMARK    4  A    between atoms: O_8  and  C_9
REMARK    5  A    between atoms: C_11  and  C_13
REMARK    6  A    between atoms: C_13  and  O_14
REMARK    7  A    between atoms: C_16  and  O_18
REMARK    8  A    between atoms: O_18  and  C_19
REMARK    9  A    between atoms: C_21  and  O_23
REMARK   10  A    between atoms: C_24  and  N_26
REMARK   11  A    between atoms: C_28  and  N_30
REMARK   12  A    between atoms: C_31  and  O_33
REMARK   13  A    between atoms: O_33  and  C_34
REMARK   14  A    between atoms: C_37  and  C_39
REMARK   15  A    between atoms: C_39  and  N_40
REMARK   16  A    between atoms: C_41  and  O_43
REMARK   17  A    between atoms: C_44  and  O_46
REMARK   18  A    between atoms: C_47  and  N_49
REMARK   19  A    between atoms: C_50  and  O_52
REMARK   20  A    between atoms: C_53  and  N_55
REMARK   21  A    between atoms: C_56  and  O_58
REMARK   22  A    between atoms: C_59  and  O_61
REMARK                            x       y       z     vdW  Elec       q    Type
REMARK                         _______ _______ _______ _____ _____    ______ ____
ROOT
ATOM      1  C   UNL     1       6.722  -5.225  24.361  0.00  0.00    +0.182 C 
ATOM      2  C   UNL     1       5.252  -5.370  24.836  0.00  0.00    +0.169 C 
ATOM      3  C   UNL     1       4.421  -6.288  23.905  0.00  0.00    +0.084 C 
ATOM      4  C   UNL     1       4.521  -5.798  22.466  0.00  0.00    +0.042 C 
ATOM      5  C   UNL     1       5.939  -5.963  21.939  0.00  0.00    +0.084 C 
ATOM      6  C   UNL     1       7.002  -5.324  22.842  0.00  0.00    +0.163 C 
ENDROOT
BRANCH   3   7
ATOM      7  N   UNL     1       2.996  -6.304  24.300  0.00  0.00    -0.325 NA
ATOM      8  H   UNL     1       2.425  -6.614  23.516  0.00  0.00    +0.119 HD
ATOM      9  H   UNL     1       2.863  -7.003  25.031  0.00  0.00    +0.119 HD
ENDBRANCH   3   7
BRANCH   5  10
ATOM     10  N   UNL     1       5.996  -5.359  20.587  0.00  0.00    -0.325 NA
ATOM     11  H   UNL     1       6.875  -4.843  20.474  0.00  0.00    +0.119 HD
ATOM     12  H   UNL     1       6.025  -6.095  19.882  0.00  0.00    +0.119 HD
ENDBRANCH   5  10
BRANCH   6  13
ATOM     13  O   UNL     1       8.253  -6.014  22.658  0.00  0.00    -0.388 OA
ATOM     14  H   UNL     1       8.423  -6.080  21.705  0.00  0.00    +0.210 HD
ENDBRANCH   6  13
BRANCH   2  15
ATOM     15  O   UNL     1       5.171  -5.913  26.177  0.00  0.00    -0.342 OA
BRANCH  15  16
ATOM     16  C   UNL     1       5.254  -4.951  27.236  0.00  0.00    +0.270 C 
ATOM     17  C   UNL     1       6.241  -5.449  28.326  0.00  0.00    +0.139 C 
ATOM     18  C   UNL     1       5.643  -6.683  29.023  0.00  0.00    +0.167 C 
ATOM     19  C   UNL     1       4.247  -6.346  29.570  0.00  0.00    +0.175 C 
ATOM     20  C   UNL     1       3.363  -5.799  28.439  0.00  0.00    +0.166 C 
ATOM     21  O   UNL     1       3.968  -4.671  27.794  0.00  0.00    -0.343 OA
BRANCH  17  22
ATOM     22  N   UNL     1       7.599  -5.734  27.805  0.00  0.00    -0.321 NA
ATOM     23  H   UNL     1       7.536  -6.610  27.278  0.00  0.00    +0.119 HD
ATOM     24  H   UNL     1       7.828  -5.017  27.114  0.00  0.00    +0.119 HD
ENDBRANCH  17  22
BRANCH  19  25
ATOM     25  O   UNL     1       3.683  -7.515  30.179  0.00  0.00    -0.387 OA
ATOM     26  H   UNL     1       2.943  -7.240  30.749  0.00  0.00    +0.210 HD
ENDBRANCH  19  25
BRANCH  18  27
ATOM     27  O   UNL     1       6.497  -7.099  30.102  0.00  0.00    -0.387 OA
ATOM     28  H   UNL     1       5.901  -7.379  30.823  0.00  0.00    +0.210 HD
ENDBRANCH  18  27
BRANCH  20  29
ATOM     29  C   UNL     1       1.950  -5.388  28.910  0.00  0.00    +0.112 C 
BRANCH  29  30
ATOM     30  N   UNL     1       1.853  -5.052  30.335  0.00  0.00    -0.328 NA
ATOM     31  H   UNL     1       2.670  -4.499  30.601  0.00  0.00    +0.118 HD
ATOM     32  H   UNL     1       1.057  -4.427  30.481  0.00  0.00    +0.118 HD
ENDBRANCH  29  30
ENDBRANCH  20  29
ENDBRANCH  15  16
ENDBRANCH   2  15
BRANCH   1  33
ATOM     33  O   UNL     1       7.368  -4.039  24.917  0.00  0.00    -0.340 OA
BRANCH  33  36
ATOM     34  C   UNL     1       7.811  -0.812  25.251  0.00  0.00    +0.186 C 
ATOM     35  C   UNL     1       7.203  -1.913  26.145  0.00  0.00    +0.202 C 
ATOM     36  C   UNL     1       6.542  -2.884  25.149  0.00  0.00    +0.282 C 
ATOM     37  O   UNL     1       6.360  -2.140  23.945  0.00  0.00    -0.341 OA
ATOM     38  C   UNL     1       7.492  -1.264  23.824  0.00  0.00    +0.178 C 
BRANCH  35  39
ATOM     39  O   UNL     1       6.225  -1.398  27.066  0.00  0.00    -0.384 OA
ATOM     40  H   UNL     1       6.301  -1.922  27.893  0.00  0.00    +0.210 HD
ENDBRANCH  35  39
BRANCH  38  41
ATOM     41  C   UNL     1       8.668  -1.908  23.081  0.00  0.00    +0.190 C 
BRANCH  41  42
ATOM     42  O   UNL     1       9.761  -1.011  22.943  0.00  0.00    -0.392 OA
ATOM     43  H   UNL     1      10.038  -1.023  22.010  0.00  0.00    +0.210 HD
ENDBRANCH  41  42
ENDBRANCH  38  41
BRANCH  34  44
ATOM     44  O   UNL     1       7.158   0.451  25.312  0.00  0.00    -0.341 OA
BRANCH  44  49
ATOM     45  C   UNL     1       9.611   2.839  24.068  0.00  0.00    +0.166 C 
ATOM     46  C   UNL     1       8.669   4.032  23.805  0.00  0.00    +0.175 C 
ATOM     47  C   UNL     1       7.612   4.110  24.920  0.00  0.00    +0.167 C 
ATOM     48  C   UNL     1       6.906   2.763  25.111  0.00  0.00    +0.139 C 
ATOM     49  C   UNL     1       7.956   1.617  25.242  0.00  0.00    +0.270 C 
ATOM     50  O   UNL     1       8.851   1.608  24.129  0.00  0.00    -0.343 OA
BRANCH  48  51
ATOM     51  N   UNL     1       5.954   2.489  23.989  0.00  0.00    -0.321 NA
ATOM     52  H   UNL     1       5.575   1.547  24.158  0.00  0.00    +0.119 HD
ATOM     53  H   UNL     1       5.142   3.090  24.176  0.00  0.00    +0.119 HD
ENDBRANCH  48  51
BRANCH  47  54
ATOM     54  O   UNL     1       8.204   4.573  26.144  0.00  0.00    -0.387 OA
ATOM     55  H   UNL     1       7.768   4.168  26.910  0.00  0.00    +0.210 HD
ENDBRANCH  47  54
BRANCH  46  56
ATOM     56  O   UNL     1       8.059   3.887  22.514  0.00  0.00    -0.387 OA
ATOM     57  H   UNL     1       8.738   3.557  21.896  0.00  0.00    +0.210 HD
ENDBRANCH  46  56
BRANCH  45  58
ATOM     58  C   UNL     1      10.678   2.737  22.964  0.00  0.00    +0.112 C 
BRANCH  58  59
ATOM     59  N   UNL     1      10.167   2.023  21.786  0.00  0.00    -0.328 NA
ATOM     60  H   UNL     1      10.919   1.421  21.441  0.00  0.00    +0.118 HD
ATOM     61  H   UNL     1       9.420   1.397  22.082  0.00  0.00    +0.118 HD
ENDBRANCH  58  59
ENDBRANCH  45  58
ENDBRANCH  44  49
ENDBRANCH  34  44
ENDBRANCH  33  36
ENDBRANCH   1  33
TORSDOF 22
ENDMDL
MODEL 7
REMARK VINA RESULT:      -6.3      3.159      8.575
REMARK  Name = 
REMARK  22 active torsions:
REMARK  status: ('A' for Active; 'I' for Inactive)
REMARK    1  A    between atoms: N_1  and  C_2
REMARK    2  A    between atoms: C_2  and  C_3
REMARK    3  A    between atoms: C_6  and  O_8
REMARK    4  A    between atoms: O_8  and  C_9
REMARK    5  A    between atoms: C_11  and  C_13
REMARK    6  A    between atoms: C_13  and  O_14
REMARK    7  A    between atoms: C_16  and  O_18
REMARK    8  A    between atoms: O_18  and  C_19
REMARK    9  A    between atoms: C_21  and  O_23
REMARK   10  A    between atoms: C_24  and  N_26
REMARK   11  A    between atoms: C_28  and  N_30
REMARK   12  A    between atoms: C_31  and  O_33
REMARK   13  A    between atoms: O_33  and  C_34
REMARK   14  A    between atoms: C_37  and  C_39
REMARK   15  A    between atoms: C_39  and  N_40
REMARK   16  A    between atoms: C_41  and  O_43
REMARK   17  A    between atoms: C_44  and  O_46
REMARK   18  A    between atoms: C_47  and  N_49
REMARK   19  A    between atoms: C_50  and  O_52
REMARK   20  A    between atoms: C_53  and  N_55
REMARK   21  A    between atoms: C_56  and  O_58
REMARK   22  A    between atoms: C_59  and  O_61
REMARK                            x       y       z     vdW  Elec       q    Type
REMARK                         _______ _______ _______ _____ _____    ______ ____
ROOT
ATOM      1  C   UNL     1       9.704   4.039  23.530  0.00  0.00    +0.182 C 
ATOM      2  C   UNL     1       8.639   4.862  24.301  0.00  0.00    +0.169 C 
ATOM      3  C   UNL     1       8.998   6.368  24.372  0.00  0.00    +0.084 C 
ATOM      4  C   UNL     1      10.397   6.543  24.949  0.00  0.00    +0.042 C 
ATOM      5  C   UNL     1      11.445   5.982  23.997  0.00  0.00    +0.084 C 
ATOM      6  C   UNL     1      11.170   4.532  23.577  0.00  0.00    +0.163 C 
ENDROOT
BRANCH   3   7
ATOM      7  N   UNL     1       8.041   7.108  25.223  0.00  0.00    -0.325 NA
ATOM      8  H   UNL     1       8.170   6.843  26.197  0.00  0.00    +0.119 HD
ATOM      9  H   UNL     1       8.259   8.104  25.178  0.00  0.00    +0.119 HD
ENDBRANCH   3   7
BRANCH   5  10
ATOM     10  N   UNL     1      12.764   6.072  24.668  0.00  0.00    -0.325 NA
ATOM     11  H   UNL     1      12.675   6.612  25.535  0.00  0.00    +0.119 HD
ATOM     12  H   UNL     1      13.065   5.144  24.960  0.00  0.00    +0.119 HD
ENDBRANCH   5  10
BRANCH   6  13
ATOM     13  O   UNL     1      11.768   4.295  22.288  0.00  0.00    -0.388 OA
ATOM     14  H   UNL     1      12.064   3.371  22.260  0.00  0.00    +0.210 HD
ENDBRANCH   6  13
BRANCH   2  15
ATOM     15  O   UNL     1       7.328   4.750  23.694  0.00  0.00    -0.342 OA
BRANCH  15  16
ATOM     16  C   UNL     1       6.221   4.944  24.582  0.00  0.00    +0.270 C 
ATOM     17  C   UNL     1       5.730   3.573  25.122  0.00  0.00    +0.139 C 
ATOM     18  C   UNL     1       5.112   2.767  23.967  0.00  0.00    +0.167 C 
ATOM     19  C   UNL     1       4.005   3.590  23.291  0.00  0.00    +0.175 C 
ATOM     20  C   UNL     1       4.563   4.952  22.851  0.00  0.00    +0.166 C 
ATOM     21  O   UNL     1       5.157   5.659  23.948  0.00  0.00    -0.343 OA
BRANCH  17  22
ATOM     22  N   UNL     1       6.789   2.798  25.810  0.00  0.00    -0.321 NA
ATOM     23  H   UNL     1       6.722   3.024  26.807  0.00  0.00    +0.119 HD
ATOM     24  H   UNL     1       6.550   1.807  25.740  0.00  0.00    +0.119 HD
ENDBRANCH  17  22
BRANCH  19  25
ATOM     25  O   UNL     1       3.467   2.846  22.190  0.00  0.00    -0.387 OA
ATOM     26  H   UNL     1       4.086   2.126  21.972  0.00  0.00    +0.210 HD
ENDBRANCH  19  25
BRANCH  18  27
ATOM     27  O   UNL     1       4.563   1.536  24.466  0.00  0.00    -0.387 OA
ATOM     28  H   UNL     1       4.014   1.175  23.744  0.00  0.00    +0.210 HD
ENDBRANCH  18  27
BRANCH  20  29
ATOM     29  C   UNL     1       3.502   5.869  22.202  0.00  0.00    +0.112 C 
BRANCH  29  30
ATOM     30  N   UNL     1       2.114   5.439  22.406  0.00  0.00    -0.328 NA
ATOM     31  H   UNL     1       2.042   4.441  22.200  0.00  0.00    +0.118 HD
ATOM     32  H   UNL     1       1.881   5.516  23.399  0.00  0.00    +0.118 HD
ENDBRANCH  29  30
ENDBRANCH  20  29
ENDBRANCH  15  16
ENDBRANCH   2  15
BRANCH   1  33
ATOM     33  O   UNL     1       9.641   2.615  23.850  0.00  0.00    -0.340 OA
BRANCH  33  36
ATOM     34  C   UNL     1       9.318  -0.586  23.242  0.00  0.00    +0.186 C 
ATOM     35  C   UNL     1       9.652   0.645  22.373  0.00  0.00    +0.202 C 
ATOM     36  C   UNL     1       8.826   1.784  23.003  0.00  0.00    +0.282 C 
ATOM     37  O   UNL     1       7.797   1.145  23.759  0.00  0.00    -0.341 OA
ATOM     38  C   UNL     1       8.373  -0.046  24.317  0.00  0.00    +0.178 C 
BRANCH  35  39
ATOM     39  O   UNL     1       9.284   0.466  20.995  0.00  0.00    -0.384 OA
ATOM     40  H   UNL     1       9.607  -0.420  20.721  0.00  0.00    +0.210 HD
ENDBRANCH  35  39
BRANCH  38  41
ATOM     41  C   UNL     1       9.030   0.192  25.682  0.00  0.00    +0.190 C 
BRANCH  41  42
ATOM     42  O   UNL     1      10.435   0.374  25.568  0.00  0.00    -0.392 OA
ATOM     43  H   UNL     1      10.728  -0.093  24.766  0.00  0.00    +0.210 HD
ENDBRANCH  41  42
ENDBRANCH  38  41
BRANCH  34  44
ATOM     44  O   UNL     1       8.511  -1.574  22.610  0.00  0.00    -0.341 OA
BRANCH  44  49
ATOM     45  C   UNL     1       8.622  -4.326  24.993  0.00  0.00    +0.166 C 
ATOM     46  C   UNL     1       7.304  -5.029  24.607  0.00  0.00    +0.175 C 
ATOM     47  C   UNL     1       7.122  -4.979  23.080  0.00  0.00    +0.167 C 
ATOM     48  C   UNL     1       7.268  -3.549  22.550  0.00  0.00    +0.139 C 
ATOM     49  C   UNL     1       8.572  -2.899  23.105  0.00  0.00    +0.270 C 
ATOM     50  O   UNL     1       8.610  -2.955  24.531  0.00  0.00    -0.343 OA
BRANCH  48  51
ATOM     51  N   UNL     1       6.070  -2.720  22.894  0.00  0.00    -0.321 NA
ATOM     52  H   UNL     1       5.371  -3.372  23.273  0.00  0.00    +0.119 HD
ATOM     53  H   UNL     1       6.347  -2.185  23.726  0.00  0.00    +0.119 HD
ENDBRANCH  48  51
BRANCH  47  54
ATOM     54  O   UNL     1       8.037  -5.878  22.435  0.00  0.00    -0.387 OA
ATOM     55  H   UNL     1       7.766  -6.800  22.572  0.00  0.00    +0.210 HD
ENDBRANCH  47  54
BRANCH  46  56
ATOM     56  O   UNL     1       6.208  -4.399  25.286  0.00  0.00    -0.387 OA
ATOM     57  H   UNL     1       6.345  -4.509  26.246  0.00  0.00    +0.210 HD
ENDBRANCH  46  56
BRANCH  45  58
ATOM     58  C   UNL     1       8.828  -4.359  26.518  0.00  0.00    +0.112 C 
BRANCH  58  59
ATOM     59  N   UNL     1       8.265  -5.580  27.111  0.00  0.00    -0.328 NA
ATOM     60  H   UNL     1       8.858  -5.840  27.903  0.00  0.00    +0.118 HD
ATOM     61  H   UNL     1       7.351  -5.361  27.504  0.00  0.00    +0.118 HD
ENDBRANCH  58  59
ENDBRANCH  45  58
ENDBRANCH  44  49
ENDBRANCH  34  44
ENDBRANCH  33  36
ENDBRANCH   1  33
TORSDOF 22
ENDMDL
MODEL 8
REMARK VINA RESULT:      -6.2      2.763      7.281
REMARK  Name = 
REMARK  22 active torsions:
REMARK  status: ('A' for Active; 'I' for Inactive)
REMARK    1  A    between atoms: N_1  and  C_2
REMARK    2  A    between atoms: C_2  and  C_3
REMARK    3  A    between atoms: C_6  and  O_8
REMARK    4  A    between atoms: O_8  and  C_9
REMARK    5  A    between atoms: C_11  and  C_13
REMARK    6  A    between atoms: C_13  and  O_14
REMARK    7  A    between atoms: C_16  and  O_18
REMARK    8  A    between atoms: O_18  and  C_19
REMARK    9  A    between atoms: C_21  and  O_23
REMARK   10  A    between atoms: C_24  and  N_26
REMARK   11  A    between atoms: C_28  and  N_30
REMARK   12  A    between atoms: C_31  and  O_33
REMARK   13  A    between atoms: O_33  and  C_34
REMARK   14  A    between atoms: C_37  and  C_39
REMARK   15  A    between atoms: C_39  and  N_40
REMARK   16  A    between atoms: C_41  and  O_43
REMARK   17  A    between atoms: C_44  and  O_46
REMARK   18  A    between atoms: C_47  and  N_49
REMARK   19  A    between atoms: C_50  and  O_52
REMARK   20  A    between atoms: C_53  and  N_55
REMARK   21  A    between atoms: C_56  and  O_58
REMARK   22  A    between atoms: C_59  and  O_61
REMARK                            x       y       z     vdW  Elec       q    Type
REMARK                         _______ _______ _______ _____ _____    ______ ____
ROOT
ATOM      1  C   UNL     1       6.956   2.095  26.844  0.00  0.00    +0.182 C 
ATOM      2  C   UNL     1       6.714   2.766  25.467  0.00  0.00    +0.169 C 
ATOM      3  C   UNL     1       6.969   4.294  25.505  0.00  0.00    +0.084 C 
ATOM      4  C   UNL     1       6.144   4.933  26.615  0.00  0.00    +0.042 C 
ATOM      5  C   UNL     1       6.630   4.467  27.981  0.00  0.00    +0.084 C 
ATOM      6  C   UNL     1       6.695   2.940  28.114  0.00  0.00    +0.163 C 
ENDROOT
BRANCH   3   7
ATOM      7  N   UNL     1       6.604   4.931  24.221  0.00  0.00    -0.325 NA
ATOM      8  H   UNL     1       7.447   5.153  23.695  0.00  0.00    +0.119 HD
ATOM      9  H   UNL     1       6.093   4.257  23.650  0.00  0.00    +0.119 HD
ENDBRANCH   3   7
BRANCH   5  10
ATOM     10  N   UNL     1       5.714   5.025  29.004  0.00  0.00    -0.325 NA
ATOM     11  H   UNL     1       6.194   5.073  29.908  0.00  0.00    +0.119 HD
ATOM     12  H   UNL     1       5.484   5.990  28.770  0.00  0.00    +0.119 HD
ENDBRANCH   5  10
BRANCH   6  13
ATOM     13  O   UNL     1       7.690   2.595  29.097  0.00  0.00    -0.388 OA
ATOM     14  H   UNL     1       7.843   3.374  29.656  0.00  0.00    +0.210 HD
ENDBRANCH   6  13
BRANCH   2  15
ATOM     15  O   UNL     1       7.562   2.203  24.437  0.00  0.00    -0.342 OA
BRANCH  15  16
ATOM     16  C   UNL     1       8.945   2.065  24.786  0.00  0.00    +0.270 C 
ATOM     17  C   UNL     1       9.835   2.698  23.682  0.00  0.00    +0.139 C 
ATOM     18  C   UNL     1       9.716   1.862  22.396  0.00  0.00    +0.167 C 
ATOM     19  C   UNL     1      10.063   0.395  22.695  0.00  0.00    +0.175 C 
ATOM     20  C   UNL     1       9.183  -0.125  23.841  0.00  0.00    +0.166 C 
ATOM     21  O   UNL     1       9.297   0.698  25.010  0.00  0.00    -0.343 OA
BRANCH  17  22
ATOM     22  N   UNL     1       9.527   4.125  23.424  0.00  0.00    -0.321 NA
ATOM     23  H   UNL     1       9.397   4.221  22.412  0.00  0.00    +0.119 HD
ATOM     24  H   UNL     1       8.615   4.330  23.836  0.00  0.00    +0.119 HD
ENDBRANCH  17  22
BRANCH  19  25
ATOM     25  O   UNL     1       9.906  -0.381  21.500  0.00  0.00    -0.387 OA
ATOM     26  H   UNL     1      10.663  -0.201  20.913  0.00  0.00    +0.210 HD
ENDBRANCH  19  25
BRANCH  18  27
ATOM     27  O   UNL     1      10.608   2.375  21.393  0.00  0.00    -0.387 OA
ATOM     28  H   UNL     1      10.461   1.827  20.598  0.00  0.00    +0.210 HD
ENDBRANCH  18  27
BRANCH  20  29
ATOM     29  C   UNL     1       9.497  -1.584  24.242  0.00  0.00    +0.112 C 
BRANCH  29  30
ATOM     30  N   UNL     1       8.725  -2.598  23.516  0.00  0.00    -0.328 NA
ATOM     31  H   UNL     1       9.188  -2.792  22.626  0.00  0.00    +0.118 HD
ATOM     32  H   UNL     1       8.765  -3.483  24.028  0.00  0.00    +0.118 HD
ENDBRANCH  29  30
ENDBRANCH  20  29
ENDBRANCH  15  16
ENDBRANCH   2  15
BRANCH   1  33
ATOM     33  O   UNL     1       6.287   0.801  26.953  0.00  0.00    -0.340 OA
BRANCH  33  36
ATOM     34  C   UNL     1       5.002  -2.004  25.856  0.00  0.00    +0.186 C 
ATOM     35  C   UNL     1       5.965  -0.956  25.259  0.00  0.00    +0.202 C 
ATOM     36  C   UNL     1       5.472   0.382  25.844  0.00  0.00    +0.282 C 
ATOM     37  O   UNL     1       4.127   0.152  26.261  0.00  0.00    -0.341 OA
ATOM     38  C   UNL     1       4.074  -1.193  26.763  0.00  0.00    +0.178 C 
BRANCH  35  39
ATOM     39  O   UNL     1       5.920  -0.919  23.822  0.00  0.00    -0.384 OA
ATOM     40  H   UNL     1       6.564  -0.239  23.529  0.00  0.00    +0.210 HD
ENDBRANCH  35  39
BRANCH  38  41
ATOM     41  C   UNL     1       4.403  -1.285  28.258  0.00  0.00    +0.190 C 
BRANCH  41  42
ATOM     42  O   UNL     1       4.170  -0.053  28.926  0.00  0.00    -0.392 OA
ATOM     43  H   UNL     1       5.037   0.330  29.149  0.00  0.00    +0.210 HD
ENDBRANCH  41  42
ENDBRANCH  38  41
BRANCH  34  44
ATOM     44  O   UNL     1       4.083  -2.579  24.934  0.00  0.00    -0.341 OA
BRANCH  44  49
ATOM     45  C   UNL     1       2.826  -5.878  24.037  0.00  0.00    +0.166 C 
ATOM     46  C   UNL     1       4.157  -6.533  23.614  0.00  0.00    +0.175 C 
ATOM     47  C   UNL     1       5.282  -6.067  24.555  0.00  0.00    +0.167 C 
ATOM     48  C   UNL     1       5.322  -4.539  24.659  0.00  0.00    +0.139 C 
ATOM     49  C   UNL     1       3.898  -3.982  24.967  0.00  0.00    +0.270 C 
ATOM     50  O   UNL     1       2.947  -4.436  24.002  0.00  0.00    -0.343 OA
BRANCH  48  51
ATOM     51  N   UNL     1       5.876  -3.927  23.411  0.00  0.00    -0.321 NA
ATOM     52  H   UNL     1       6.854  -3.685  23.620  0.00  0.00    +0.119 HD
ATOM     53  H   UNL     1       5.979  -4.711  22.754  0.00  0.00    +0.119 HD
ENDBRANCH  48  51
BRANCH  47  54
ATOM     54  O   UNL     1       5.145  -6.681  25.846  0.00  0.00    -0.387 OA
ATOM     55  H   UNL     1       4.762  -6.057  26.483  0.00  0.00    +0.210 HD
ENDBRANCH  47  54
BRANCH  46  56
ATOM     56  O   UNL     1       4.445  -6.199  22.249  0.00  0.00    -0.387 OA
ATOM     57  H   UNL     1       3.674  -5.724  21.886  0.00  0.00    +0.210 HD
ENDBRANCH  46  56
BRANCH  45  58
ATOM     58  C   UNL     1       1.683  -6.326  23.109  0.00  0.00    +0.112 C 
BRANCH  58  59
ATOM     59  N   UNL     1       1.892  -7.694  22.618  0.00  0.00    -0.328 NA
ATOM     60  H   UNL     1       0.974  -8.089  22.403  0.00  0.00    +0.118 HD
ATOM     61  H   UNL     1       2.393  -7.651  21.732  0.00  0.00    +0.118 HD
ENDBRANCH  58  59
ENDBRANCH  45  58
ENDBRANCH  44  49
ENDBRANCH  34  44
ENDBRANCH  33  36
ENDBRANCH   1  33
TORSDOF 22
ENDMDL
MODEL 9
REMARK VINA RESULT:      -6.2      2.874      8.639
REMARK  Name = 
REMARK  22 active torsions:
REMARK  status: ('A' for Active; 'I' for Inactive)
REMARK    1  A    between atoms: N_1  and  C_2
REMARK    2  A    between atoms: C_2  and  C_3
REMARK    3  A    between atoms: C_6  and  O_8
REMARK    4  A    between atoms: O_8  and  C_9
REMARK    5  A    between atoms: C_11  and  C_13
REMARK    6  A    between atoms: C_13  and  O_14
REMARK    7  A    between atoms: C_16  and  O_18
REMARK    8  A    between atoms: O_18  and  C_19
REMARK    9  A    between atoms: C_21  and  O_23
REMARK   10  A    between atoms: C_24  and  N_26
REMARK   11  A    between atoms: C_28  and  N_30
REMARK   12  A    between atoms: C_31  and  O_33
REMARK   13  A    between atoms: O_33  and  C_34
REMARK   14  A    between atoms: C_37  and  C_39
REMARK   15  A    between atoms: C_39  and  N_40
REMARK   16  A    between atoms: C_41  and  O_43
REMARK   17  A    between atoms: C_44  and  O_46
REMARK   18  A    between atoms: C_47  and  N_49
REMARK   19  A    between atoms: C_50  and  O_52
REMARK   20  A    between atoms: C_53  and  N_55
REMARK   21  A    between atoms: C_56  and  O_58
REMARK   22  A    between atoms: C_59  and  O_61
REMARK                            x       y       z     vdW  Elec       q    Type
REMARK                         _______ _______ _______ _____ _____    ______ ____
ROOT
ATOM      1  C   UNL     1       7.937  -0.616  23.875  0.00  0.00    +0.182 C 
ATOM      2  C   UNL     1       7.971   0.871  23.438  0.00  0.00    +0.169 C 
ATOM      3  C   UNL     1       8.434   1.042  21.969  0.00  0.00    +0.084 C 
ATOM      4  C   UNL     1       9.773   0.346  21.760  0.00  0.00    +0.042 C 
ATOM      5  C   UNL     1       9.621  -1.163  21.901  0.00  0.00    +0.084 C 
ATOM      6  C   UNL     1       8.947  -1.585  23.213  0.00  0.00    +0.163 C 
ENDROOT
BRANCH   3   7
ATOM      7  N   UNL     1       8.587   2.471  21.618  0.00  0.00    -0.325 NA
ATOM      8  H   UNL     1       8.452   3.046  22.447  0.00  0.00    +0.119 HD
ATOM      9  H   UNL     1       9.549   2.638  21.321  0.00  0.00    +0.119 HD
ENDBRANCH   3   7
BRANCH   5  10
ATOM     10  N   UNL     1      10.971  -1.767  21.809  0.00  0.00    -0.325 NA
ATOM     11  H   UNL     1      11.672  -1.030  21.681  0.00  0.00    +0.119 HD
ATOM     12  H   UNL     1      11.209  -2.212  22.694  0.00  0.00    +0.119 HD
ENDBRANCH   5  10
BRANCH   6  13
ATOM     13  O   UNL     1       8.293  -2.855  23.019  0.00  0.00    -0.388 OA
ATOM     14  H   UNL     1       7.421  -2.686  22.629  0.00  0.00    +0.210 HD
ENDBRANCH   6  13
BRANCH   2  15
ATOM     15  O   UNL     1       6.672   1.500  23.566  0.00  0.00    -0.342 OA
BRANCH  15  16
ATOM     16  C   UNL     1       6.555   2.459  24.624  0.00  0.00    +0.270 C 
ATOM     17  C   UNL     1       5.058   2.702  24.955  0.00  0.00    +0.139 C 
ATOM     18  C   UNL     1       4.387   3.411  23.767  0.00  0.00    +0.167 C 
ATOM     19  C   UNL     1       5.154   4.699  23.428  0.00  0.00    +0.175 C 
ATOM     20  C   UNL     1       6.634   4.372  23.182  0.00  0.00    +0.166 C 
ATOM     21  O   UNL     1       7.216   3.685  24.298  0.00  0.00    -0.343 OA
BRANCH  17  22
ATOM     22  N   UNL     1       4.329   1.465  25.323  0.00  0.00    -0.321 NA
ATOM     23  H   UNL     1       3.329   1.686  25.277  0.00  0.00    +0.119 HD
ATOM     24  H   UNL     1       4.489   0.774  24.587  0.00  0.00    +0.119 HD
ENDBRANCH  17  22
BRANCH  19  25
ATOM     25  O   UNL     1       4.545   5.327  22.293  0.00  0.00    -0.387 OA
ATOM     26  H   UNL     1       3.881   4.718  21.921  0.00  0.00    +0.210 HD
ENDBRANCH  19  25
BRANCH  18  27
ATOM     27  O   UNL     1       3.024   3.733  24.093  0.00  0.00    -0.387 OA
ATOM     28  H   UNL     1       2.884   4.649  23.787  0.00  0.00    +0.210 HD
ENDBRANCH  18  27
BRANCH  20  29
ATOM     29  C   UNL     1       7.495   5.620  22.880  0.00  0.00    +0.112 C 
BRANCH  29  30
ATOM     30  N   UNL     1       7.463   6.061  21.481  0.00  0.00    -0.328 NA
ATOM     31  H   UNL     1       6.595   5.736  21.051  0.00  0.00    +0.118 HD
ATOM     32  H   UNL     1       7.402   7.081  21.451  0.00  0.00    +0.118 HD
ENDBRANCH  29  30
ENDBRANCH  20  29
ENDBRANCH  15  16
ENDBRANCH   2  15
BRANCH   1  33
ATOM     33  O   UNL     1       7.970  -0.768  25.327  0.00  0.00    -0.340 OA
BRANCH  33  36
ATOM     34  C   UNL     1       5.953  -3.328  25.634  0.00  0.00    +0.186 C 
ATOM     35  C   UNL     1       5.792  -1.891  25.098  0.00  0.00    +0.202 C 
ATOM     36  C   UNL     1       6.725  -1.050  25.990  0.00  0.00    +0.282 C 
ATOM     37  O   UNL     1       6.942  -1.828  27.167  0.00  0.00    -0.341 OA
ATOM     38  C   UNL     1       6.992  -3.202  26.751  0.00  0.00    +0.178 C 
BRANCH  35  39
ATOM     39  O   UNL     1       4.439  -1.412  25.198  0.00  0.00    -0.384 OA
ATOM     40  H   UNL     1       3.874  -2.028  24.684  0.00  0.00    +0.210 HD
ENDBRANCH  35  39
BRANCH  38  41
ATOM     41  C   UNL     1       8.404  -3.656  26.362  0.00  0.00    +0.190 C 
BRANCH  41  42
ATOM     42  O   UNL     1       8.780  -4.849  27.037  0.00  0.00    -0.392 OA
ATOM     43  H   UNL     1       8.027  -5.465  26.988  0.00  0.00    +0.210 HD
ENDBRANCH  41  42
ENDBRANCH  38  41
BRANCH  34  44
ATOM     44  O   UNL     1       4.828  -3.844  26.337  0.00  0.00    -0.341 OA
BRANCH  44  49
ATOM     45  C   UNL     1       2.963  -6.963  26.584  0.00  0.00    +0.166 C 
ATOM     46  C   UNL     1       2.390  -7.011  25.152  0.00  0.00    +0.175 C 
ATOM     47  C   UNL     1       3.448  -6.506  24.156  0.00  0.00    +0.167 C 
ATOM     48  C   UNL     1       4.005  -5.143  24.581  0.00  0.00    +0.139 C 
ATOM     49  C   UNL     1       4.437  -5.180  26.079  0.00  0.00    +0.270 C 
ATOM     50  O   UNL     1       3.363  -5.612  26.915  0.00  0.00    -0.343 OA
BRANCH  48  51
ATOM     51  N   UNL     1       3.007  -4.054  24.340  0.00  0.00    -0.321 NA
ATOM     52  H   UNL     1       2.875  -3.581  25.244  0.00  0.00    +0.119 HD
ATOM     53  H   UNL     1       3.513  -3.345  23.793  0.00  0.00    +0.119 HD
ENDBRANCH  48  51
BRANCH  47  54
ATOM     54  O   UNL     1       4.494  -7.477  23.998  0.00  0.00    -0.387 OA
ATOM     55  H   UNL     1       4.497  -7.833  23.095  0.00  0.00    +0.210 HD
ENDBRANCH  47  54
BRANCH  46  56
ATOM     56  O   UNL     1       1.192  -6.224  25.087  0.00  0.00    -0.387 OA
ATOM     57  H   UNL     1       0.810  -6.182  25.984  0.00  0.00    +0.210 HD
ENDBRANCH  46  56
BRANCH  45  58
ATOM     58  C   UNL     1       1.921  -7.461  27.602  0.00  0.00    +0.112 C 
BRANCH  58  59
ATOM     59  N   UNL     1       1.180  -8.621  27.089  0.00  0.00    -0.328 NA
ATOM     60  H   UNL     1       1.843  -9.209  26.577  0.00  0.00    +0.118 HD
ATOM     61  H   UNL     1       0.862  -9.181  27.879  0.00  0.00    +0.118 HD
ENDBRANCH  58  59
ENDBRANCH  45  58
ENDBRANCH  44  49
ENDBRANCH  34  44
ENDBRANCH  33  36
ENDBRANCH   1  33
TORSDOF 22
ENDMDL
