MODEL 1
REMARK VINA RESULT:      -6.8      0.000      0.000
REMARK  Name = 
REMARK  24 active torsions:
REMARK  status: ('A' for Active; 'I' for Inactive)
REMARK    1  A    between atoms: C_1  and  C_2
REMARK    2  A    between atoms: C_2  and  C_3
REMARK    3  A    between atoms: C_2  and  C_4
REMARK    4  A    between atoms: C_4  and  N_6
REMARK    5  A    between atoms: C_4  and  C_20
REMARK    6  A    between atoms: N_9  and  C_10
REMARK    7  A    between atoms: N_9  and  C_11
REMARK    8  A    between atoms: C_11  and  C_12
REMARK    9  A    between atoms: C_15  and  C_17
REMARK   10  A    between atoms: C_17  and  C_18
REMARK   11  A    between atoms: C_17  and  C_19
REMARK   12  A    between atoms: N_22  and  C_23
REMARK   13  A    between atoms: C_23  and  C_25
REMARK   14  A    between atoms: C_23  and  C_48
REMARK   15  A    between atoms: C_25  and  C_26
REMARK   16  A    between atoms: C_26  and  O_28
REMARK   17  A    between atoms: C_26  and  C_29
REMARK   18  A    between atoms: C_29  and  C_31
REMARK   19  A    between atoms: C_29  and  N_38
REMARK   20  A    between atoms: C_31  and  C_32
REMARK   21  A    between atoms: C_39  and  O_41
REMARK   22  A    between atoms: O_41  and  C_42
REMARK   23  A    between atoms: C_42  and  C_43
REMARK   24  A    between atoms: C_48  and  C_49
REMARK                            x       y       z     vdW  Elec       q    Type
REMARK                         _______ _______ _______ _____ _____    ______ ____
ROOT
ATOM      1  C   UNL     1       8.727  -2.483  24.422  0.00  0.00    +0.080 C 
ENDROOT
BRANCH   1   3
ATOM      2  C   UNL     1       8.374  -1.161  26.621  0.00  0.00    +0.234 C 
ATOM      3  N   UNL     1       8.999  -2.070  25.809  0.00  0.00    -0.311 N 
ATOM      4  H   UNL     1       9.926  -2.262  26.171  0.00  0.00    +0.149 HD
ATOM      5  O   UNL     1       9.057  -0.710  27.544  0.00  0.00    -0.274 OA
BRANCH   2   6
ATOM      6  C   UNL     1       6.881  -0.776  26.406  0.00  0.00    +0.163 C 
BRANCH   6   7
ATOM      7  N   UNL     1       6.744   0.203  25.310  0.00  0.00    -0.288 N 
ATOM      8  H   UNL     1       7.251  -0.017  24.469  0.00  0.00    +0.151 HD
ATOM      9  C   UNL     1       6.541   1.537  25.547  0.00  0.00    +0.303 C 
ATOM     10  N   UNL     1       6.385   2.351  24.441  0.00  0.00    -0.283 N 
ATOM     11  C   UNL     1       6.309   1.934  23.047  0.00  0.00    +0.134 C 
ATOM     12  O   UNL     1       6.442   1.988  26.684  0.00  0.00    -0.253 OA
BRANCH  10  13
ATOM     13  C   UNL     1       6.024   3.749  24.705  0.00  0.00    +0.164 C 
BRANCH  13  14
ATOM     14  C   UNL     1       7.113   4.684  24.256  0.00  0.00    +0.066 A 
ATOM     15  N   UNL     1       8.387   4.585  24.813  0.00  0.00    -0.247 NA
ATOM     16  C   UNL     1       9.173   5.527  24.329  0.00  0.00    +0.081 A 
ATOM     17  S   UNL     1       8.447   6.552  23.150  0.00  0.00    -0.080 S 
ATOM     18  C   UNL     1       6.972   5.711  23.337  0.00  0.00    +0.071 A 
BRANCH  16  19
ATOM     19  C   UNL     1      10.604   5.771  24.747  0.00  0.00    +0.038 C 
ATOM     20  C   UNL     1      10.761   7.108  25.472  0.00  0.00    +0.014 C 
ATOM     21  C   UNL     1      11.533   5.722  23.533  0.00  0.00    +0.014 C 
ENDBRANCH  16  19
ENDBRANCH  13  14
ENDBRANCH  10  13
ENDBRANCH   6   7
BRANCH   6  23
ATOM     22  C   UNL     1       5.172  -2.046  24.977  0.00  0.00    +0.009 C 
ATOM     23  C   UNL     1       5.878  -1.975  26.341  0.00  0.00    +0.012 C 
ATOM     24  C   UNL     1       4.818  -2.063  27.443  0.00  0.00    +0.009 C 
ENDBRANCH   6  23
ENDBRANCH   2   6
ENDBRANCH   1   3
BRANCH   1  25
ATOM     25  C   UNL     1       8.422  -3.990  24.339  0.00  0.00    +0.055 C 
BRANCH  25  26
ATOM     26  C   UNL     1       8.094  -4.738  25.647  0.00  0.00    +0.137 C 
BRANCH  26  27
ATOM     27  O   UNL     1       9.217  -5.541  25.988  0.00  0.00    -0.390 OA
ATOM     28  H   UNL     1       9.399  -6.144  25.249  0.00  0.00    +0.210 HD
ENDBRANCH  26  27
BRANCH  26  29
ATOM     29  C   UNL     1       6.838  -5.645  25.453  0.00  0.00    +0.109 C 
BRANCH  29  30
ATOM     30  N   UNL     1       5.884  -5.418  26.536  0.00  0.00    -0.275 N 
ATOM     31  H   UNL     1       4.943  -5.127  26.285  0.00  0.00    +0.152 HD
ATOM     32  C   UNL     1       6.125  -5.760  27.824  0.00  0.00    +0.401 C 
ATOM     33  O   UNL     1       7.160  -6.274  28.227  0.00  0.00    -0.226 OA
BRANCH  32  34
ATOM     34  O   UNL     1       5.064  -5.432  28.593  0.00  0.00    -0.445 OA
BRANCH  34  35
ATOM     35  C   UNL     1       4.197  -6.528  28.912  0.00  0.00    +0.278 C 
BRANCH  35  36
ATOM     36  C   UNL     1       2.866  -6.284  28.286  0.00  0.00    +0.046 A 
ATOM     37  S   UNL     1       1.506  -7.272  28.630  0.00  0.00    -0.077 S 
ATOM     38  C   UNL     1       0.562  -6.314  27.566  0.00  0.00    +0.156 A 
ATOM     39  N   UNL     1       1.183  -5.317  26.975  0.00  0.00    -0.255 NA
ATOM     40  C   UNL     1       2.502  -5.299  27.387  0.00  0.00    +0.125 A 
ENDBRANCH  35  36
ENDBRANCH  34  35
ENDBRANCH  32  34
ENDBRANCH  29  30
BRANCH  29  41
ATOM     41  C   UNL     1       6.137  -5.539  24.069  0.00  0.00    +0.060 C 
BRANCH  41  42
ATOM     42  C   UNL     1       4.658  -5.850  24.077  0.00  0.00    -0.046 A 
ATOM     43  C   UNL     1       3.737  -4.929  23.555  0.00  0.00    +0.004 A 
ATOM     44  C   UNL     1       2.411  -5.301  23.341  0.00  0.00    +0.000 A 
ATOM     45  C   UNL     1       1.989  -6.588  23.669  0.00  0.00    +0.000 A 
ATOM     46  C   UNL     1       2.878  -7.484  24.261  0.00  0.00    +0.000 A 
ATOM     47  C   UNL     1       4.202  -7.110  24.484  0.00  0.00    +0.004 A 
ENDBRANCH  41  42
ENDBRANCH  29  41
ENDBRANCH  26  29
ENDBRANCH  25  26
ENDBRANCH   1  25
BRANCH   1  48
ATOM     48  C   UNL     1       9.879  -1.957  23.508  0.00  0.00    +0.057 C 
BRANCH  48  49
ATOM     49  C   UNL     1       9.988  -0.472  23.223  0.00  0.00    -0.046 A 
ATOM     50  C   UNL     1       9.527   0.033  21.994  0.00  0.00    +0.004 A 
ATOM     51  C   UNL     1       9.630   1.394  21.689  0.00  0.00    +0.000 A 
ATOM     52  C   UNL     1      10.204   2.267  22.605  0.00  0.00    +0.000 A 
ATOM     53  C   UNL     1      10.681   1.780  23.820  0.00  0.00    +0.000 A 
ATOM     54  C   UNL     1      10.587   0.419  24.121  0.00  0.00    +0.004 A 
ENDBRANCH  48  49
ENDBRANCH   1  48
TORSDOF 19
ENDMDL
MODEL 2
REMARK VINA RESULT:      -6.8      3.051      8.115
REMARK  Name = 
REMARK  24 active torsions:
REMARK  status: ('A' for Active; 'I' for Inactive)
REMARK    1  A    between atoms: C_1  and  C_2
REMARK    2  A    between atoms: C_2  and  C_3
REMARK    3  A    between atoms: C_2  and  C_4
REMARK    4  A    between atoms: C_4  and  N_6
REMARK    5  A    between atoms: C_4  and  C_20
REMARK    6  A    between atoms: N_9  and  C_10
REMARK    7  A    between atoms: N_9  and  C_11
REMARK    8  A    between atoms: C_11  and  C_12
REMARK    9  A    between atoms: C_15  and  C_17
REMARK   10  A    between atoms: C_17  and  C_18
REMARK   11  A    between atoms: C_17  and  C_19
REMARK   12  A    between atoms: N_22  and  C_23
REMARK   13  A    between atoms: C_23  and  C_25
REMARK   14  A    between atoms: C_23  and  C_48
REMARK   15  A    between atoms: C_25  and  C_26
REMARK   16  A    between atoms: C_26  and  O_28
REMARK   17  A    between atoms: C_26  and  C_29
REMARK   18  A    between atoms: C_29  and  C_31
REMARK   19  A    between atoms: C_29  and  N_38
REMARK   20  A    between atoms: C_31  and  C_32
REMARK   21  A    between atoms: C_39  and  O_41
REMARK   22  A    between atoms: O_41  and  C_42
REMARK   23  A    between atoms: C_42  and  C_43
REMARK   24  A    between atoms: C_48  and  C_49
REMARK                            x       y       z     vdW  Elec       q    Type
REMARK                         _______ _______ _______ _____ _____    ______ ____
ROOT
ATOM      1  C   UNL     1       6.739   1.382  23.588  0.00  0.00    +0.080 C 
ENDROOT
BRANCH   1   3
ATOM      2  C   UNL     1       7.726  -0.916  22.913  0.00  0.00    +0.234 C 
ATOM      3  N   UNL     1       6.748   0.040  22.981  0.00  0.00    -0.311 N 
ATOM      4  H   UNL     1       6.046  -0.146  22.273  0.00  0.00    +0.149 HD
ATOM      5  O   UNL     1       7.614  -1.732  21.995  0.00  0.00    -0.274 OA
BRANCH   2   6
ATOM      6  C   UNL     1       8.869  -0.979  23.969  0.00  0.00    +0.163 C 
BRANCH   6   7
ATOM      7  N   UNL     1       9.068  -2.363  24.443  0.00  0.00    -0.288 N 
ATOM      8  H   UNL     1       9.464  -2.997  23.769  0.00  0.00    +0.151 HD
ATOM      9  C   UNL     1       8.255  -2.935  25.386  0.00  0.00    +0.303 C 
ATOM     10  N   UNL     1       8.566  -4.222  25.781  0.00  0.00    -0.283 N 
ATOM     11  C   UNL     1       9.728  -5.007  25.385  0.00  0.00    +0.134 C 
ATOM     12  O   UNL     1       7.327  -2.321  25.902  0.00  0.00    -0.253 OA
BRANCH  10  13
ATOM     13  C   UNL     1       7.780  -4.771  26.892  0.00  0.00    +0.164 C 
BRANCH  13  14
ATOM     14  C   UNL     1       6.544  -5.466  26.392  0.00  0.00    +0.066 A 
ATOM     15  N   UNL     1       6.251  -5.465  25.030  0.00  0.00    -0.247 NA
ATOM     16  C   UNL     1       5.103  -6.076  24.808  0.00  0.00    +0.081 A 
ATOM     17  S   UNL     1       4.334  -6.721  26.209  0.00  0.00    -0.080 S 
ATOM     18  C   UNL     1       5.597  -6.101  27.178  0.00  0.00    +0.071 A 
BRANCH  16  19
ATOM     19  C   UNL     1       4.431  -6.213  23.462  0.00  0.00    +0.038 C 
ATOM     20  C   UNL     1       5.352  -5.775  22.323  0.00  0.00    +0.014 C 
ATOM     21  C   UNL     1       3.132  -5.407  23.425  0.00  0.00    +0.014 C 
ENDBRANCH  16  19
ENDBRANCH  13  14
ENDBRANCH  10  13
ENDBRANCH   6   7
BRANCH   6  23
ATOM     22  C   UNL     1      10.657   0.693  24.730  0.00  0.00    +0.009 C 
ATOM     23  C   UNL     1      10.183  -0.222  23.588  0.00  0.00    +0.012 C 
ATOM     24  C   UNL     1      10.177   0.586  22.288  0.00  0.00    +0.009 C 
ENDBRANCH   6  23
ENDBRANCH   2   6
ENDBRANCH   1   3
BRANCH   1  25
ATOM     25  C   UNL     1       5.541   1.555  24.539  0.00  0.00    +0.055 C 
BRANCH  25  26
ATOM     26  C   UNL     1       5.444   0.621  25.764  0.00  0.00    +0.137 C 
BRANCH  26  27
ATOM     27  O   UNL     1       5.037  -0.662  25.307  0.00  0.00    -0.390 OA
ATOM     28  H   UNL     1       4.648  -0.565  24.423  0.00  0.00    +0.210 HD
ENDBRANCH  26  27
BRANCH  26  29
ATOM     29  C   UNL     1       4.399   1.173  26.785  0.00  0.00    +0.109 C 
BRANCH  29  30
ATOM     30  N   UNL     1       3.670   0.068  27.402  0.00  0.00    -0.275 N 
ATOM     31  H   UNL     1       4.171  -0.520  28.062  0.00  0.00    +0.152 HD
ATOM     32  C   UNL     1       2.330  -0.092  27.294  0.00  0.00    +0.401 C 
ATOM     33  O   UNL     1       1.587   0.647  26.662  0.00  0.00    -0.226 OA
BRANCH  32  34
ATOM     34  O   UNL     1       1.943  -1.196  27.969  0.00  0.00    -0.445 OA
BRANCH  34  35
ATOM     35  C   UNL     1       2.305  -2.434  27.345  0.00  0.00    +0.278 C 
BRANCH  35  36
ATOM     36  C   UNL     1       2.839  -3.358  28.388  0.00  0.00    +0.046 A 
ATOM     37  S   UNL     1       2.029  -4.808  28.816  0.00  0.00    -0.077 S 
ATOM     38  C   UNL     1       3.266  -5.142  29.957  0.00  0.00    +0.156 A 
ATOM     39  N   UNL     1       4.233  -4.256  30.042  0.00  0.00    -0.255 NA
ATOM     40  C   UNL     1       3.989  -3.234  29.144  0.00  0.00    +0.125 A 
ENDBRANCH  35  36
ENDBRANCH  34  35
ENDBRANCH  32  34
ENDBRANCH  29  30
BRANCH  29  41
ATOM     41  C   UNL     1       4.958   2.139  27.867  0.00  0.00    +0.060 C 
BRANCH  41  42
ATOM     42  C   UNL     1       5.464   3.463  27.341  0.00  0.00    -0.046 A 
ATOM     43  C   UNL     1       6.831   3.775  27.401  0.00  0.00    +0.004 A 
ATOM     44  C   UNL     1       7.335   4.875  26.712  0.00  0.00    +0.000 A 
ATOM     45  C   UNL     1       6.474   5.689  25.976  0.00  0.00    +0.000 A 
ATOM     46  C   UNL     1       5.104   5.432  25.975  0.00  0.00    +0.000 A 
ATOM     47  C   UNL     1       4.597   4.336  26.672  0.00  0.00    +0.004 A 
ENDBRANCH  41  42
ENDBRANCH  29  41
ENDBRANCH  26  29
ENDBRANCH  25  26
ENDBRANCH   1  25
BRANCH   1  48
ATOM     48  C   UNL     1       6.883   2.446  22.455  0.00  0.00    +0.057 C 
BRANCH  48  49
ATOM     49  C   UNL     1       7.625   3.739  22.734  0.00  0.00    -0.046 A 
ATOM     50  C   UNL     1       8.791   3.712  23.521  0.00  0.00    +0.004 A 
ATOM     51  C   UNL     1       9.490   4.887  23.816  0.00  0.00    +0.000 A 
ATOM     52  C   UNL     1       9.027   6.107  23.336  0.00  0.00    +0.000 A 
ATOM     53  C   UNL     1       7.864   6.152  22.569  0.00  0.00    +0.000 A 
ATOM     54  C   UNL     1       7.161   4.979  22.282  0.00  0.00    +0.004 A 
ENDBRANCH  48  49
ENDBRANCH   1  48
TORSDOF 19
ENDMDL
MODEL 3
REMARK VINA RESULT:      -6.8      2.376      9.742
REMARK  Name = 
REMARK  24 active torsions:
REMARK  status: ('A' for Active; 'I' for Inactive)
REMARK    1  A    between atoms: C_1  and  C_2
REMARK    2  A    between atoms: C_2  and  C_3
REMARK    3  A    between atoms: C_2  and  C_4
REMARK    4  A    between atoms: C_4  and  N_6
REMARK    5  A    between atoms: C_4  and  C_20
REMARK    6  A    between atoms: N_9  and  C_10
REMARK    7  A    between atoms: N_9  and  C_11
REMARK    8  A    between atoms: C_11  and  C_12
REMARK    9  A    between atoms: C_15  and  C_17
REMARK   10  A    between atoms: C_17  and  C_18
REMARK   11  A    between atoms: C_17  and  C_19
REMARK   12  A    between atoms: N_22  and  C_23
REMARK   13  A    between atoms: C_23  and  C_25
REMARK   14  A    between atoms: C_23  and  C_48
REMARK   15  A    between atoms: C_25  and  C_26
REMARK   16  A    between atoms: C_26  and  O_28
REMARK   17  A    between atoms: C_26  and  C_29
REMARK   18  A    between atoms: C_29  and  C_31
REMARK   19  A    between atoms: C_29  and  N_38
REMARK   20  A    between atoms: C_31  and  C_32
REMARK   21  A    between atoms: C_39  and  O_41
REMARK   22  A    between atoms: O_41  and  C_42
REMARK   23  A    between atoms: C_42  and  C_43
REMARK   24  A    between atoms: C_48  and  C_49
REMARK                            x       y       z     vdW  Elec       q    Type
REMARK                         _______ _______ _______ _____ _____    ______ ____
ROOT
ATOM      1  C   UNL     1       7.151  -1.428  23.664  0.00  0.00    +0.080 C 
ENDROOT
BRANCH   1   3
ATOM      2  C   UNL     1       5.515  -0.817  25.577  0.00  0.00    +0.234 C 
ATOM      3  N   UNL     1       5.989  -0.778  24.293  0.00  0.00    -0.311 N 
ATOM      4  H   UNL     1       5.253  -0.457  23.673  0.00  0.00    +0.149 HD
ATOM      5  O   UNL     1       4.319  -0.548  25.715  0.00  0.00    -0.274 OA
BRANCH   2   6
ATOM      6  C   UNL     1       6.456  -1.133  26.776  0.00  0.00    +0.163 C 
BRANCH   6   7
ATOM      7  N   UNL     1       6.939  -2.527  26.713  0.00  0.00    -0.288 N 
ATOM      8  H   UNL     1       7.469  -2.762  25.891  0.00  0.00    +0.151 HD
ATOM      9  C   UNL     1       6.253  -3.562  27.291  0.00  0.00    +0.303 C 
ATOM     10  N   UNL     1       6.824  -4.816  27.202  0.00  0.00    -0.283 N 
ATOM     11  C   UNL     1       8.131  -5.151  26.651  0.00  0.00    +0.134 C 
ATOM     12  O   UNL     1       5.209  -3.384  27.912  0.00  0.00    -0.253 OA
BRANCH  10  13
ATOM     13  C   UNL     1       6.158  -5.891  27.947  0.00  0.00    +0.164 C 
BRANCH  13  14
ATOM     14  C   UNL     1       4.922  -6.363  27.232  0.00  0.00    +0.066 A 
ATOM     15  N   UNL     1       4.943  -6.536  25.850  0.00  0.00    -0.247 NA
ATOM     16  C   UNL     1       3.752  -6.897  25.415  0.00  0.00    +0.081 A 
ATOM     17  S   UNL     1       2.554  -7.093  26.638  0.00  0.00    -0.080 S 
ATOM     18  C   UNL     1       3.693  -6.616  27.819  0.00  0.00    +0.071 A 
BRANCH  16  19
ATOM     19  C   UNL     1       3.378  -7.113  23.967  0.00  0.00    +0.038 C 
ATOM     20  C   UNL     1       3.239  -5.789  23.215  0.00  0.00    +0.014 C 
ATOM     21  C   UNL     1       2.078  -7.913  23.862  0.00  0.00    +0.014 C 
ENDBRANCH  16  19
ENDBRANCH  13  14
ENDBRANCH  10  13
ENDBRANCH   6   7
BRANCH   6  23
ATOM     22  C   UNL     1       8.964  -0.712  27.112  0.00  0.00    +0.009 C 
ATOM     23  C   UNL     1       7.567  -0.069  27.061  0.00  0.00    +0.012 C 
ATOM     24  C   UNL     1       7.393   0.814  28.299  0.00  0.00    +0.009 C 
ENDBRANCH   6  23
ENDBRANCH   2   6
ENDBRANCH   1   3
BRANCH   1  25
ATOM     25  C   UNL     1       8.348  -0.463  23.574  0.00  0.00    +0.055 C 
BRANCH  25  26
ATOM     26  C   UNL     1       8.484   0.411  22.311  0.00  0.00    +0.137 C 
BRANCH  26  27
ATOM     27  O   UNL     1       9.778   0.197  21.765  0.00  0.00    -0.390 OA
ATOM     28  H   UNL     1      10.416   0.731  22.265  0.00  0.00    +0.210 HD
ENDBRANCH  26  27
BRANCH  26  29
ATOM     29  C   UNL     1       8.308   1.920  22.675  0.00  0.00    +0.109 C 
BRANCH  29  30
ATOM     30  N   UNL     1       6.888   2.248  22.780  0.00  0.00    -0.275 N 
ATOM     31  H   UNL     1       6.298   1.626  23.325  0.00  0.00    +0.152 HD
ATOM     32  C   UNL     1       6.363   3.424  22.363  0.00  0.00    +0.401 C 
ATOM     33  O   UNL     1       7.002   4.327  21.840  0.00  0.00    -0.226 OA
BRANCH  32  34
ATOM     34  O   UNL     1       5.032   3.440  22.592  0.00  0.00    -0.445 OA
BRANCH  34  35
ATOM     35  C   UNL     1       4.606   4.406  23.561  0.00  0.00    +0.278 C 
BRANCH  35  36
ATOM     36  C   UNL     1       4.323   3.703  24.846  0.00  0.00    +0.046 A 
ATOM     37  S   UNL     1       5.527   3.495  26.050  0.00  0.00    -0.077 S 
ATOM     38  C   UNL     1       4.381   2.676  27.030  0.00  0.00    +0.156 A 
ATOM     39  N   UNL     1       3.173   2.547  26.526  0.00  0.00    -0.255 NA
ATOM     40  C   UNL     1       3.139   3.135  25.277  0.00  0.00    +0.125 A 
ENDBRANCH  35  36
ENDBRANCH  34  35
ENDBRANCH  32  34
ENDBRANCH  29  30
BRANCH  29  41
ATOM     41  C   UNL     1       9.082   2.405  23.932  0.00  0.00    +0.060 C 
BRANCH  41  42
ATOM     42  C   UNL     1       9.958   3.617  23.715  0.00  0.00    -0.046 A 
ATOM     43  C   UNL     1       9.497   4.897  24.060  0.00  0.00    +0.004 A 
ATOM     44  C   UNL     1      10.374   5.979  24.087  0.00  0.00    +0.000 A 
ATOM     45  C   UNL     1      11.713   5.798  23.746  0.00  0.00    +0.000 A 
ATOM     46  C   UNL     1      12.162   4.547  23.327  0.00  0.00    +0.000 A 
ATOM     47  C   UNL     1      11.284   3.464  23.290  0.00  0.00    +0.004 A 
ENDBRANCH  41  42
ENDBRANCH  29  41
ENDBRANCH  26  29
ENDBRANCH  25  26
ENDBRANCH   1  25
BRANCH   1  48
ATOM     48  C   UNL     1       6.693  -2.091  22.327  0.00  0.00    +0.057 C 
BRANCH  48  49
ATOM     49  C   UNL     1       6.727  -3.600  22.191  0.00  0.00    -0.046 A 
ATOM     50  C   UNL     1       7.460  -4.363  23.119  0.00  0.00    +0.004 A 
ATOM     51  C   UNL     1       7.531  -5.755  23.013  0.00  0.00    +0.000 A 
ATOM     52  C   UNL     1       6.877  -6.404  21.972  0.00  0.00    +0.000 A 
ATOM     53  C   UNL     1       6.161  -5.663  21.035  0.00  0.00    +0.000 A 
ATOM     54  C   UNL     1       6.098  -4.270  21.136  0.00  0.00    +0.004 A 
ENDBRANCH  48  49
ENDBRANCH   1  48
TORSDOF 19
ENDMDL
MODEL 4
REMARK VINA RESULT:      -6.7      3.001      7.574
REMARK  Name = 
REMARK  24 active torsions:
REMARK  status: ('A' for Active; 'I' for Inactive)
REMARK    1  A    between atoms: C_1  and  C_2
REMARK    2  A    between atoms: C_2  and  C_3
REMARK    3  A    between atoms: C_2  and  C_4
REMARK    4  A    between atoms: C_4  and  N_6
REMARK    5  A    between atoms: C_4  and  C_20
REMARK    6  A    between atoms: N_9  and  C_10
REMARK    7  A    between atoms: N_9  and  C_11
REMARK    8  A    between atoms: C_11  and  C_12
REMARK    9  A    between atoms: C_15  and  C_17
REMARK   10  A    between atoms: C_17  and  C_18
REMARK   11  A    between atoms: C_17  and  C_19
REMARK   12  A    between atoms: N_22  and  C_23
REMARK   13  A    between atoms: C_23  and  C_25
REMARK   14  A    between atoms: C_23  and  C_48
REMARK   15  A    between atoms: C_25  and  C_26
REMARK   16  A    between atoms: C_26  and  O_28
REMARK   17  A    between atoms: C_26  and  C_29
REMARK   18  A    between atoms: C_29  and  C_31
REMARK   19  A    between atoms: C_29  and  N_38
REMARK   20  A    between atoms: C_31  and  C_32
REMARK   21  A    between atoms: C_39  and  O_41
REMARK   22  A    between atoms: O_41  and  C_42
REMARK   23  A    between atoms: C_42  and  C_43
REMARK   24  A    between atoms: C_48  and  C_49
REMARK                            x       y       z     vdW  Elec       q    Type
REMARK                         _______ _______ _______ _____ _____    ______ ____
ROOT
ATOM      1  C   UNL     1       6.770   0.433  25.851  0.00  0.00    +0.080 C 
ENDROOT
BRANCH   1   3
ATOM      2  C   UNL     1       5.305   0.693  27.971  0.00  0.00    +0.234 C 
ATOM      3  N   UNL     1       6.399   0.266  27.267  0.00  0.00    -0.311 N 
ATOM      4  H   UNL     1       7.148   0.040  27.912  0.00  0.00    +0.149 HD
ATOM      5  O   UNL     1       5.461   0.795  29.191  0.00  0.00    -0.274 OA
BRANCH   2   6
ATOM      6  C   UNL     1       3.948   0.976  27.264  0.00  0.00    +0.163 C 
BRANCH   6   7
ATOM      7  N   UNL     1       2.967  -0.086  27.566  0.00  0.00    -0.288 N 
ATOM      8  H   UNL     1       2.604  -0.083  28.505  0.00  0.00    +0.151 HD
ATOM      9  C   UNL     1       3.005  -1.309  26.951  0.00  0.00    +0.303 C 
ATOM     10  N   UNL     1       2.009  -2.207  27.285  0.00  0.00    -0.283 N 
ATOM     11  C   UNL     1       0.858  -1.964  28.144  0.00  0.00    +0.134 C 
ATOM     12  O   UNL     1       3.844  -1.583  26.099  0.00  0.00    -0.253 OA
BRANCH  10  13
ATOM     13  C   UNL     1       1.972  -3.456  26.516  0.00  0.00    +0.164 C 
BRANCH  13  14
ATOM     14  C   UNL     1       2.536  -4.601  27.312  0.00  0.00    +0.066 A 
ATOM     15  N   UNL     1       3.916  -4.738  27.449  0.00  0.00    -0.247 NA
ATOM     16  C   UNL     1       4.202  -5.830  28.132  0.00  0.00    +0.081 A 
ATOM     17  S   UNL     1       2.838  -6.727  28.684  0.00  0.00    -0.080 S 
ATOM     18  C   UNL     1       1.801  -5.606  27.918  0.00  0.00    +0.071 A 
BRANCH  16  19
ATOM     19  C   UNL     1       5.595  -6.338  28.423  0.00  0.00    +0.038 C 
ATOM     20  C   UNL     1       5.907  -6.304  29.919  0.00  0.00    +0.014 C 
ATOM     21  C   UNL     1       6.635  -5.525  27.652  0.00  0.00    +0.014 C 
ENDBRANCH  16  19
ENDBRANCH  13  14
ENDBRANCH  10  13
ENDBRANCH   6   7
BRANCH   6  23
ATOM     22  C   UNL     1       2.013   2.582  26.762  0.00  0.00    +0.009 C 
ATOM     23  C   UNL     1       3.400   2.434  27.411  0.00  0.00    +0.012 C 
ATOM     24  C   UNL     1       4.294   3.573  26.915  0.00  0.00    +0.009 C 
ENDBRANCH   6  23
ENDBRANCH   2   6
ENDBRANCH   1   3
BRANCH   1  25
ATOM     25  C   UNL     1       7.346  -0.872  25.270  0.00  0.00    +0.055 C 
BRANCH  25  26
ATOM     26  C   UNL     1       7.001  -1.232  23.810  0.00  0.00    +0.137 C 
BRANCH  26  27
ATOM     27  O   UNL     1       5.667  -1.723  23.782  0.00  0.00    -0.390 OA
ATOM     28  H   UNL     1       5.289  -1.637  24.672  0.00  0.00    +0.210 HD
ENDBRANCH  26  27
BRANCH  26  29
ATOM     29  C   UNL     1       7.977  -2.329  23.277  0.00  0.00    +0.109 C 
BRANCH  29  30
ATOM     30  N   UNL     1       7.223  -3.505  22.849  0.00  0.00    -0.275 N 
ATOM     31  H   UNL     1       6.700  -3.441  21.981  0.00  0.00    +0.152 HD
ATOM     32  C   UNL     1       7.343  -4.719  23.436  0.00  0.00    +0.401 C 
ATOM     33  O   UNL     1       8.070  -4.966  24.389  0.00  0.00    -0.226 OA
BRANCH  32  34
ATOM     34  O   UNL     1       6.528  -5.607  22.825  0.00  0.00    -0.445 OA
BRANCH  34  35
ATOM     35  C   UNL     1       5.242  -5.086  22.466  0.00  0.00    +0.278 C 
BRANCH  35  36
ATOM     36  C   UNL     1       4.198  -5.803  23.254  0.00  0.00    +0.046 A 
ATOM     37  S   UNL     1       4.603  -6.936  24.478  0.00  0.00    -0.077 S 
ATOM     38  C   UNL     1       2.932  -7.189  24.772  0.00  0.00    +0.156 A 
ATOM     39  N   UNL     1       2.099  -6.496  24.028  0.00  0.00    -0.255 NA
ATOM     40  C   UNL     1       2.823  -5.702  23.159  0.00  0.00    +0.125 A 
ENDBRANCH  35  36
ENDBRANCH  34  35
ENDBRANCH  32  34
ENDBRANCH  29  30
BRANCH  29  41
ATOM     41  C   UNL     1       8.964  -1.871  22.167  0.00  0.00    +0.060 C 
BRANCH  41  42
ATOM     42  C   UNL     1       9.675  -0.566  22.443  0.00  0.00    -0.046 A 
ATOM     43  C   UNL     1       9.474   0.543  21.607  0.00  0.00    +0.004 A 
ATOM     44  C   UNL     1       9.931   1.804  21.985  0.00  0.00    +0.000 A 
ATOM     45  C   UNL     1      10.615   1.963  23.189  0.00  0.00    +0.000 A 
ATOM     46  C   UNL     1      10.888   0.855  23.988  0.00  0.00    +0.000 A 
ATOM     47  C   UNL     1      10.438  -0.409  23.607  0.00  0.00    +0.004 A 
ENDBRANCH  41  42
ENDBRANCH  29  41
ENDBRANCH  26  29
ENDBRANCH  25  26
ENDBRANCH   1  25
BRANCH   1  48
ATOM     48  C   UNL     1       7.662   1.707  25.713  0.00  0.00    +0.057 C 
BRANCH  48  49
ATOM     49  C   UNL     1       7.413   2.672  24.570  0.00  0.00    -0.046 A 
ATOM     50  C   UNL     1       6.589   2.280  23.500  0.00  0.00    +0.004 A 
ATOM     51  C   UNL     1       6.353   3.136  22.420  0.00  0.00    +0.000 A 
ATOM     52  C   UNL     1       6.946   4.393  22.390  0.00  0.00    +0.000 A 
ATOM     53  C   UNL     1       7.779   4.790  23.434  0.00  0.00    +0.000 A 
ATOM     54  C   UNL     1       8.021   3.931  24.509  0.00  0.00    +0.004 A 
ENDBRANCH  48  49
ENDBRANCH   1  48
TORSDOF 19
ENDMDL
MODEL 5
REMARK VINA RESULT:      -6.7      2.814      8.497
REMARK  Name = 
REMARK  24 active torsions:
REMARK  status: ('A' for Active; 'I' for Inactive)
REMARK    1  A    between atoms: C_1  and  C_2
REMARK    2  A    between atoms: C_2  and  C_3
REMARK    3  A    between atoms: C_2  and  C_4
REMARK    4  A    between atoms: C_4  and  N_6
REMARK    5  A    between atoms: C_4  and  C_20
REMARK    6  A    between atoms: N_9  and  C_10
REMARK    7  A    between atoms: N_9  and  C_11
REMARK    8  A    between atoms: C_11  and  C_12
REMARK    9  A    between atoms: C_15  and  C_17
REMARK   10  A    between atoms: C_17  and  C_18
REMARK   11  A    between atoms: C_17  and  C_19
REMARK   12  A    between atoms: N_22  and  C_23
REMARK   13  A    between atoms: C_23  and  C_25
REMARK   14  A    between atoms: C_23  and  C_48
REMARK   15  A    between atoms: C_25  and  C_26
REMARK   16  A    between atoms: C_26  and  O_28
REMARK   17  A    between atoms: C_26  and  C_29
REMARK   18  A    between atoms: C_29  and  C_31
REMARK   19  A    between atoms: C_29  and  N_38
REMARK   20  A    between atoms: C_31  and  C_32
REMARK   21  A    between atoms: C_39  and  O_41
REMARK   22  A    between atoms: O_41  and  C_42
REMARK   23  A    between atoms: C_42  and  C_43
REMARK   24  A    between atoms: C_48  and  C_49
REMARK                            x       y       z     vdW  Elec       q    Type
REMARK                         _______ _______ _______ _____ _____    ______ ____
ROOT
ATOM      1  C   UNL     1       7.889  -2.137  23.086  0.00  0.00    +0.080 C 
ENDROOT
BRANCH   1   3
ATOM      2  C   UNL     1       7.039  -4.580  22.942  0.00  0.00    +0.234 C 
ATOM      3  N   UNL     1       7.391  -3.359  22.431  0.00  0.00    -0.311 N 
ATOM      4  H   UNL     1       7.566  -3.448  21.436  0.00  0.00    +0.149 HD
ATOM      5  O   UNL     1       7.080  -5.523  22.149  0.00  0.00    -0.274 OA
BRANCH   2   6
ATOM      6  C   UNL     1       6.569  -4.733  24.418  0.00  0.00    +0.163 C 
BRANCH   6   7
ATOM      7  N   UNL     1       5.444  -5.683  24.515  0.00  0.00    -0.288 N 
ATOM      8  H   UNL     1       5.560  -6.542  24.004  0.00  0.00    +0.151 HD
ATOM      9  C   UNL     1       4.150  -5.265  24.683  0.00  0.00    +0.303 C 
ATOM     10  N   UNL     1       3.187  -6.248  24.802  0.00  0.00    -0.283 N 
ATOM     11  C   UNL     1       3.403  -7.687  24.874  0.00  0.00    +0.134 C 
ATOM     12  O   UNL     1       3.858  -4.077  24.783  0.00  0.00    -0.253 OA
BRANCH  10  13
ATOM     13  C   UNL     1       1.829  -5.795  25.127  0.00  0.00    +0.164 C 
BRANCH  13  14
ATOM     14  C   UNL     1       1.509  -6.034  26.577  0.00  0.00    +0.066 A 
ATOM     15  N   UNL     1       2.349  -5.526  27.566  0.00  0.00    -0.247 NA
ATOM     16  C   UNL     1       1.925  -5.892  28.760  0.00  0.00    +0.081 A 
ATOM     17  S   UNL     1       0.476  -6.824  28.768  0.00  0.00    -0.080 S 
ATOM     18  C   UNL     1       0.443  -6.774  27.060  0.00  0.00    +0.071 A 
BRANCH  16  19
ATOM     19  C   UNL     1       2.617  -5.583  30.066  0.00  0.00    +0.038 C 
ATOM     20  C   UNL     1       3.433  -4.293  29.982  0.00  0.00    +0.014 C 
ATOM     21  C   UNL     1       3.519  -6.746  30.484  0.00  0.00    +0.014 C 
ENDBRANCH  16  19
ENDBRANCH  13  14
ENDBRANCH  10  13
ENDBRANCH   6   7
BRANCH   6  23
ATOM     22  C   UNL     1       7.776  -3.800  26.479  0.00  0.00    +0.009 C 
ATOM     23  C   UNL     1       7.707  -4.958  25.469  0.00  0.00    +0.012 C 
ATOM     24  C   UNL     1       9.116  -5.221  24.932  0.00  0.00    +0.009 C 
ENDBRANCH   6  23
ENDBRANCH   2   6
ENDBRANCH   1   3
BRANCH   1  25
ATOM     25  C   UNL     1       6.750  -1.128  23.321  0.00  0.00    +0.055 C 
BRANCH  25  26
ATOM     26  C   UNL     1       6.233  -0.937  24.761  0.00  0.00    +0.137 C 
BRANCH  26  27
ATOM     27  O   UNL     1       5.024  -1.673  24.895  0.00  0.00    -0.390 OA
ATOM     28  H   UNL     1       4.290  -1.045  24.992  0.00  0.00    +0.210 HD
ENDBRANCH  26  27
BRANCH  26  29
ATOM     29  C   UNL     1       5.964   0.575  25.045  0.00  0.00    +0.109 C 
BRANCH  29  30
ATOM     30  N   UNL     1       5.080   0.718  26.200  0.00  0.00    -0.275 N 
ATOM     31  H   UNL     1       5.388   0.324  27.084  0.00  0.00    +0.152 HD
ATOM     32  C   UNL     1       3.980   1.508  26.202  0.00  0.00    +0.401 C 
ATOM     33  O   UNL     1       3.594   2.168  25.247  0.00  0.00    -0.226 OA
BRANCH  32  34
ATOM     34  O   UNL     1       3.368   1.440  27.404  0.00  0.00    -0.445 OA
BRANCH  34  35
ATOM     35  C   UNL     1       3.779   0.337  28.221  0.00  0.00    +0.278 C 
BRANCH  35  36
ATOM     36  C   UNL     1       2.613  -0.571  28.423  0.00  0.00    +0.046 A 
ATOM     37  S   UNL     1       2.145  -1.723  27.241  0.00  0.00    -0.077 S 
ATOM     38  C   UNL     1       0.862  -2.225  28.263  0.00  0.00    +0.156 A 
ATOM     39  N   UNL     1       0.757  -1.599  29.414  0.00  0.00    -0.255 NA
ATOM     40  C   UNL     1       1.759  -0.652  29.506  0.00  0.00    +0.125 A 
ENDBRANCH  35  36
ENDBRANCH  34  35
ENDBRANCH  32  34
ENDBRANCH  29  30
BRANCH  29  41
ATOM     41  C   UNL     1       7.227   1.466  25.203  0.00  0.00    +0.060 C 
BRANCH  41  42
ATOM     42  C   UNL     1       7.337   2.600  24.208  0.00  0.00    -0.046 A 
ATOM     43  C   UNL     1       6.713   2.507  22.955  0.00  0.00    +0.004 A 
ATOM     44  C   UNL     1       6.608   3.628  22.135  0.00  0.00    +0.000 A 
ATOM     45  C   UNL     1       7.147   4.845  22.548  0.00  0.00    +0.000 A 
ATOM     46  C   UNL     1       7.837   4.928  23.756  0.00  0.00    +0.000 A 
ATOM     47  C   UNL     1       7.951   3.804  24.574  0.00  0.00    +0.004 A 
ENDBRANCH  41  42
ENDBRANCH  29  41
ENDBRANCH  26  29
ENDBRANCH  25  26
ENDBRANCH   1  25
BRANCH   1  48
ATOM     48  C   UNL     1       9.128  -1.613  22.294  0.00  0.00    +0.057 C 
BRANCH  48  49
ATOM     49  C   UNL     1       9.743  -0.278  22.668  0.00  0.00    -0.046 A 
ATOM     50  C   UNL     1      10.313  -0.111  23.944  0.00  0.00    +0.004 A 
ATOM     51  C   UNL     1      10.871   1.110  24.331  0.00  0.00    +0.000 A 
ATOM     52  C   UNL     1      10.860   2.186  23.450  0.00  0.00    +0.000 A 
ATOM     53  C   UNL     1      10.285   2.043  22.189  0.00  0.00    +0.000 A 
ATOM     54  C   UNL     1       9.719   0.824  21.806  0.00  0.00    +0.004 A 
ENDBRANCH  48  49
ENDBRANCH   1  48
TORSDOF 19
ENDMDL
MODEL 6
REMARK VINA RESULT:      -6.7      3.244     10.049
REMARK  Name = 
REMARK  24 active torsions:
REMARK  status: ('A' for Active; 'I' for Inactive)
REMARK    1  A    between atoms: C_1  and  C_2
REMARK    2  A    between atoms: C_2  and  C_3
REMARK    3  A    between atoms: C_2  and  C_4
REMARK    4  A    between atoms: C_4  and  N_6
REMARK    5  A    between atoms: C_4  and  C_20
REMARK    6  A    between atoms: N_9  and  C_10
REMARK    7  A    between atoms: N_9  and  C_11
REMARK    8  A    between atoms: C_11  and  C_12
REMARK    9  A    between atoms: C_15  and  C_17
REMARK   10  A    between atoms: C_17  and  C_18
REMARK   11  A    between atoms: C_17  and  C_19
REMARK   12  A    between atoms: N_22  and  C_23
REMARK   13  A    between atoms: C_23  and  C_25
REMARK   14  A    between atoms: C_23  and  C_48
REMARK   15  A    between atoms: C_25  and  C_26
REMARK   16  A    between atoms: C_26  and  O_28
REMARK   17  A    between atoms: C_26  and  C_29
REMARK   18  A    between atoms: C_29  and  C_31
REMARK   19  A    between atoms: C_29  and  N_38
REMARK   20  A    between atoms: C_31  and  C_32
REMARK   21  A    between atoms: C_39  and  O_41
REMARK   22  A    between atoms: O_41  and  C_42
REMARK   23  A    between atoms: C_42  and  C_43
REMARK   24  A    between atoms: C_48  and  C_49
REMARK                            x       y       z     vdW  Elec       q    Type
REMARK                         _______ _______ _______ _____ _____    ______ ____
ROOT
ATOM      1  C   UNL     1       7.534   0.332  25.525  0.00  0.00    +0.080 C 
ENDROOT
BRANCH   1   3
ATOM      2  C   UNL     1       9.981   0.319  24.674  0.00  0.00    +0.234 C 
ATOM      3  N   UNL     1       8.979   0.615  25.560  0.00  0.00    -0.311 N 
ATOM      4  H   UNL     1       9.383   0.822  26.467  0.00  0.00    +0.149 HD
ATOM      5  O   UNL     1      11.120   0.282  25.147  0.00  0.00    -0.274 OA
BRANCH   2   6
ATOM      6  C   UNL     1       9.684   0.099  23.162  0.00  0.00    +0.163 C 
BRANCH   6   7
ATOM      7  N   UNL     1       8.566  -0.848  22.979  0.00  0.00    -0.288 N 
ATOM      8  H   UNL     1       7.653  -0.485  23.200  0.00  0.00    +0.151 HD
ATOM      9  C   UNL     1       8.720  -2.199  23.143  0.00  0.00    +0.303 C 
ATOM     10  N   UNL     1       7.612  -2.988  22.904  0.00  0.00    -0.283 N 
ATOM     11  C   UNL     1       6.318  -2.555  22.393  0.00  0.00    +0.134 C 
ATOM     12  O   UNL     1       9.803  -2.699  23.433  0.00  0.00    -0.253 OA
BRANCH  10  13
ATOM     13  C   UNL     1       7.824  -4.439  22.940  0.00  0.00    +0.164 C 
BRANCH  13  14
ATOM     14  C   UNL     1       6.749  -5.125  23.738  0.00  0.00    +0.066 A 
ATOM     15  N   UNL     1       6.788  -5.090  25.130  0.00  0.00    -0.247 NA
ATOM     16  C   UNL     1       5.794  -5.794  25.635  0.00  0.00    +0.081 A 
ATOM     17  S   UNL     1       4.733  -6.500  24.474  0.00  0.00    -0.080 S 
ATOM     18  C   UNL     1       5.697  -5.860  23.216  0.00  0.00    +0.071 A 
BRANCH  16  19
ATOM     19  C   UNL     1       5.552  -6.036  27.106  0.00  0.00    +0.038 C 
ATOM     20  C   UNL     1       4.065  -6.214  27.413  0.00  0.00    +0.014 C 
ATOM     21  C   UNL     1       6.125  -4.888  27.940  0.00  0.00    +0.014 C 
ENDBRANCH  16  19
ENDBRANCH  13  14
ENDBRANCH  10  13
ENDBRANCH   6   7
BRANCH   6  23
ATOM     22  C   UNL     1       9.653   2.663  23.170  0.00  0.00    +0.009 C 
ATOM     23  C   UNL     1       9.589   1.398  22.296  0.00  0.00    +0.012 C 
ATOM     24  C   UNL     1       8.396   1.523  21.346  0.00  0.00    +0.009 C 
ENDBRANCH   6  23
ENDBRANCH   2   6
ENDBRANCH   1   3
BRANCH   1  25
ATOM     25  C   UNL     1       6.716   1.631  25.401  0.00  0.00    +0.055 C 
BRANCH  25  26
ATOM     26  C   UNL     1       5.693   1.740  24.252  0.00  0.00    +0.137 C 
BRANCH  26  27
ATOM     27  O   UNL     1       5.959   0.694  23.326  0.00  0.00    -0.390 OA
ATOM     28  H   UNL     1       6.490   0.015  23.773  0.00  0.00    +0.210 HD
ENDBRANCH  26  27
BRANCH  26  29
ATOM     29  C   UNL     1       5.826   3.122  23.538  0.00  0.00    +0.109 C 
BRANCH  29  30
ATOM     30  N   UNL     1       4.778   3.267  22.529  0.00  0.00    -0.275 N 
ATOM     31  H   UNL     1       5.061   3.308  21.555  0.00  0.00    +0.152 HD
ATOM     32  C   UNL     1       3.458   3.153  22.807  0.00  0.00    +0.401 C 
ATOM     33  O   UNL     1       2.994   2.937  23.919  0.00  0.00    -0.226 OA
BRANCH  32  34
ATOM     34  O   UNL     1       2.734   3.332  21.681  0.00  0.00    -0.445 OA
BRANCH  34  35
ATOM     35  C   UNL     1       2.059   4.594  21.600  0.00  0.00    +0.278 C 
BRANCH  35  36
ATOM     36  C   UNL     1       1.933   4.979  20.165  0.00  0.00    +0.046 A 
ATOM     37  S   UNL     1       1.752   3.808  18.923  0.00  0.00    -0.077 S 
ATOM     38  C   UNL     1       1.694   5.072  17.764  0.00  0.00    +0.156 A 
ATOM     39  N   UNL     1       1.799   6.296  18.232  0.00  0.00    -0.255 NA
ATOM     40  C   UNL     1       1.936   6.243  19.606  0.00  0.00    +0.125 A 
ENDBRANCH  35  36
ENDBRANCH  34  35
ENDBRANCH  32  34
ENDBRANCH  29  30
BRANCH  29  41
ATOM     41  C   UNL     1       5.868   4.363  24.473  0.00  0.00    +0.060 C 
BRANCH  41  42
ATOM     42  C   UNL     1       7.117   5.207  24.358  0.00  0.00    -0.046 A 
ATOM     43  C   UNL     1       7.988   5.338  25.450  0.00  0.00    +0.004 A 
ATOM     44  C   UNL     1       9.247   5.910  25.283  0.00  0.00    +0.000 A 
ATOM     45  C   UNL     1       9.637   6.379  24.030  0.00  0.00    +0.000 A 
ATOM     46  C   UNL     1       8.749   6.325  22.958  0.00  0.00    +0.000 A 
ATOM     47  C   UNL     1       7.484   5.761  23.125  0.00  0.00    +0.004 A 
ENDBRANCH  41  42
ENDBRANCH  29  41
ENDBRANCH  26  29
ENDBRANCH  25  26
ENDBRANCH   1  25
BRANCH   1  48
ATOM     48  C   UNL     1       7.176  -0.602  26.724  0.00  0.00    +0.057 C 
BRANCH  48  49
ATOM     49  C   UNL     1       5.829  -1.298  26.751  0.00  0.00    -0.046 A 
ATOM     50  C   UNL     1       5.364  -1.953  25.597  0.00  0.00    +0.004 A 
ATOM     51  C   UNL     1       4.119  -2.588  25.580  0.00  0.00    +0.000 A 
ATOM     52  C   UNL     1       3.316  -2.569  26.715  0.00  0.00    +0.000 A 
ATOM     53  C   UNL     1       3.755  -1.910  27.861  0.00  0.00    +0.000 A 
ATOM     54  C   UNL     1       4.996  -1.268  27.875  0.00  0.00    +0.004 A 
ENDBRANCH  48  49
ENDBRANCH   1  48
TORSDOF 19
ENDMDL
MODEL 7
REMARK VINA RESULT:      -6.4      3.072      8.304
REMARK  Name = 
REMARK  24 active torsions:
REMARK  status: ('A' for Active; 'I' for Inactive)
REMARK    1  A    between atoms: C_1  and  C_2
REMARK    2  A    between atoms: C_2  and  C_3
REMARK    3  A    between atoms: C_2  and  C_4
REMARK    4  A    between atoms: C_4  and  N_6
REMARK    5  A    between atoms: C_4  and  C_20
REMARK    6  A    between atoms: N_9  and  C_10
REMARK    7  A    between atoms: N_9  and  C_11
REMARK    8  A    between atoms: C_11  and  C_12
REMARK    9  A    between atoms: C_15  and  C_17
REMARK   10  A    between atoms: C_17  and  C_18
REMARK   11  A    between atoms: C_17  and  C_19
REMARK   12  A    between atoms: N_22  and  C_23
REMARK   13  A    between atoms: C_23  and  C_25
REMARK   14  A    between atoms: C_23  and  C_48
REMARK   15  A    between atoms: C_25  and  C_26
REMARK   16  A    between atoms: C_26  and  O_28
REMARK   17  A    between atoms: C_26  and  C_29
REMARK   18  A    between atoms: C_29  and  C_31
REMARK   19  A    between atoms: C_29  and  N_38
REMARK   20  A    between atoms: C_31  and  C_32
REMARK   21  A    between atoms: C_39  and  O_41
REMARK   22  A    between atoms: O_41  and  C_42
REMARK   23  A    between atoms: C_42  and  C_43
REMARK   24  A    between atoms: C_48  and  C_49
REMARK                            x       y       z     vdW  Elec       q    Type
REMARK                         _______ _______ _______ _____ _____    ______ ____
ROOT
ATOM      1  C   UNL     1       7.558   1.805  22.904  0.00  0.00    +0.080 C 
ENDROOT
BRANCH   1   3
ATOM      2  C   UNL     1       8.795  -0.325  22.103  0.00  0.00    +0.234 C 
ATOM      3  N   UNL     1       8.188   0.891  21.936  0.00  0.00    -0.311 N 
ATOM      4  H   UNL     1       8.473   1.291  21.049  0.00  0.00    +0.149 HD
ATOM      5  O   UNL     1       9.598  -0.647  21.223  0.00  0.00    -0.274 OA
BRANCH   2   6
ATOM      6  C   UNL     1       8.440  -1.247  23.306  0.00  0.00    +0.163 C 
BRANCH   6   7
ATOM      7  N   UNL     1       8.079  -2.601  22.840  0.00  0.00    -0.288 N 
ATOM      8  H   UNL     1       8.726  -3.022  22.196  0.00  0.00    +0.151 HD
ATOM      9  C   UNL     1       6.776  -3.006  22.719  0.00  0.00    +0.303 C 
ATOM     10  N   UNL     1       6.562  -4.309  22.313  0.00  0.00    -0.283 N 
ATOM     11  C   UNL     1       7.570  -5.340  22.100  0.00  0.00    +0.134 C 
ATOM     12  O   UNL     1       5.836  -2.271  23.009  0.00  0.00    -0.253 OA
BRANCH  10  13
ATOM     13  C   UNL     1       5.171  -4.777  22.326  0.00  0.00    +0.164 C 
BRANCH  13  14
ATOM     14  C   UNL     1       4.858  -5.516  23.598  0.00  0.00    +0.066 A 
ATOM     15  N   UNL     1       5.560  -5.218  24.765  0.00  0.00    -0.247 NA
ATOM     16  C   UNL     1       5.176  -6.012  25.745  0.00  0.00    +0.081 A 
ATOM     17  S   UNL     1       3.926  -7.126  25.339  0.00  0.00    -0.080 S 
ATOM     18  C   UNL     1       3.935  -6.539  23.734  0.00  0.00    +0.071 A 
BRANCH  16  19
ATOM     19  C   UNL     1       5.760  -6.025  27.139  0.00  0.00    +0.038 C 
ATOM     20  C   UNL     1       4.696  -6.325  28.195  0.00  0.00    +0.014 C 
ATOM     21  C   UNL     1       6.442  -4.691  27.447  0.00  0.00    +0.014 C 
ENDBRANCH  16  19
ENDBRANCH  13  14
ENDBRANCH  10  13
ENDBRANCH   6   7
BRANCH   6  23
ATOM     22  C   UNL     1       8.783  -1.679  25.810  0.00  0.00    +0.009 C 
ATOM     23  C   UNL     1       9.447  -1.214  24.502  0.00  0.00    +0.012 C 
ATOM     24  C   UNL     1      10.176   0.105  24.770  0.00  0.00    +0.009 C 
ENDBRANCH   6  23
ENDBRANCH   2   6
ENDBRANCH   1   3
BRANCH   1  25
ATOM     25  C   UNL     1       6.228   1.230  23.428  0.00  0.00    +0.055 C 
BRANCH  25  26
ATOM     26  C   UNL     1       6.184   0.708  24.879  0.00  0.00    +0.137 C 
BRANCH  26  27
ATOM     27  O   UNL     1       5.321  -0.422  24.913  0.00  0.00    -0.390 OA
ATOM     28  H   UNL     1       5.158  -0.713  24.002  0.00  0.00    +0.210 HD
ENDBRANCH  26  27
BRANCH  26  29
ATOM     29  C   UNL     1       5.640   1.815  25.836  0.00  0.00    +0.109 C 
BRANCH  29  30
ATOM     30  N   UNL     1       4.799   1.215  26.870  0.00  0.00    -0.275 N 
ATOM     31  H   UNL     1       5.254   0.864  27.706  0.00  0.00    +0.152 HD
ATOM     32  C   UNL     1       3.446   1.280  26.857  0.00  0.00    +0.401 C 
ATOM     33  O   UNL     1       2.781   1.822  25.985  0.00  0.00    -0.226 OA
BRANCH  32  34
ATOM     34  O   UNL     1       2.946   0.640  27.937  0.00  0.00    -0.445 OA
BRANCH  34  35
ATOM     35  C   UNL     1       3.519  -0.650  28.184  0.00  0.00    +0.278 C 
BRANCH  35  36
ATOM     36  C   UNL     1       2.841  -1.651  27.310  0.00  0.00    +0.046 A 
ATOM     37  S   UNL     1       1.136  -1.682  27.120  0.00  0.00    -0.077 S 
ATOM     38  C   UNL     1       1.297  -3.017  26.054  0.00  0.00    +0.156 A 
ATOM     39  N   UNL     1       2.523  -3.439  25.831  0.00  0.00    -0.255 NA
ATOM     40  C   UNL     1       3.407  -2.657  26.550  0.00  0.00    +0.125 A 
ENDBRANCH  35  36
ENDBRANCH  34  35
ENDBRANCH  32  34
ENDBRANCH  29  30
BRANCH  29  41
ATOM     41  C   UNL     1       6.713   2.745  26.469  0.00  0.00    +0.060 C 
BRANCH  41  42
ATOM     42  C   UNL     1       6.558   4.213  26.144  0.00  0.00    -0.046 A 
ATOM     43  C   UNL     1       5.517   4.649  25.310  0.00  0.00    +0.004 A 
ATOM     44  C   UNL     1       5.224   6.006  25.198  0.00  0.00    +0.000 A 
ATOM     45  C   UNL     1       5.983   6.942  25.899  0.00  0.00    +0.000 A 
ATOM     46  C   UNL     1       7.068   6.523  26.668  0.00  0.00    +0.000 A 
ATOM     47  C   UNL     1       7.368   5.166  26.774  0.00  0.00    +0.004 A 
ENDBRANCH  41  42
ENDBRANCH  29  41
ENDBRANCH  26  29
ENDBRANCH  25  26
ENDBRANCH   1  25
BRANCH   1  48
ATOM     48  C   UNL     1       7.496   3.234  22.279  0.00  0.00    +0.057 C 
BRANCH  48  49
ATOM     49  C   UNL     1       8.292   4.360  22.909  0.00  0.00    -0.046 A 
ATOM     50  C   UNL     1       9.388   4.055  23.736  0.00  0.00    +0.004 A 
ATOM     51  C   UNL     1      10.132   5.066  24.350  0.00  0.00    +0.000 A 
ATOM     52  C   UNL     1       9.786   6.398  24.152  0.00  0.00    +0.000 A 
ATOM     53  C   UNL     1       8.693   6.717  23.349  0.00  0.00    +0.000 A 
ATOM     54  C   UNL     1       7.943   5.705  22.743  0.00  0.00    +0.004 A 
ENDBRANCH  48  49
ENDBRANCH   1  48
TORSDOF 19
ENDMDL
MODEL 8
REMARK VINA RESULT:      -6.4      2.532      4.740
REMARK  Name = 
REMARK  24 active torsions:
REMARK  status: ('A' for Active; 'I' for Inactive)
REMARK    1  A    between atoms: C_1  and  C_2
REMARK    2  A    between atoms: C_2  and  C_3
REMARK    3  A    between atoms: C_2  and  C_4
REMARK    4  A    between atoms: C_4  and  N_6
REMARK    5  A    between atoms: C_4  and  C_20
REMARK    6  A    between atoms: N_9  and  C_10
REMARK    7  A    between atoms: N_9  and  C_11
REMARK    8  A    between atoms: C_11  and  C_12
REMARK    9  A    between atoms: C_15  and  C_17
REMARK   10  A    between atoms: C_17  and  C_18
REMARK   11  A    between atoms: C_17  and  C_19
REMARK   12  A    between atoms: N_22  and  C_23
REMARK   13  A    between atoms: C_23  and  C_25
REMARK   14  A    between atoms: C_23  and  C_48
REMARK   15  A    between atoms: C_25  and  C_26
REMARK   16  A    between atoms: C_26  and  O_28
REMARK   17  A    between atoms: C_26  and  C_29
REMARK   18  A    between atoms: C_29  and  C_31
REMARK   19  A    between atoms: C_29  and  N_38
REMARK   20  A    between atoms: C_31  and  C_32
REMARK   21  A    between atoms: C_39  and  O_41
REMARK   22  A    between atoms: O_41  and  C_42
REMARK   23  A    between atoms: C_42  and  C_43
REMARK   24  A    between atoms: C_48  and  C_49
REMARK                            x       y       z     vdW  Elec       q    Type
REMARK                         _______ _______ _______ _____ _____    ______ ____
ROOT
ATOM      1  C   UNL     1       8.097  -0.843  26.497  0.00  0.00    +0.080 C 
ENDROOT
BRANCH   1   3
ATOM      2  C   UNL     1       9.908   0.347  25.078  0.00  0.00    +0.234 C 
ATOM      3  N   UNL     1       9.317  -0.057  26.246  0.00  0.00    -0.311 N 
ATOM      4  H   UNL     1       9.993  -0.008  27.000  0.00  0.00    +0.149 HD
ATOM      5  O   UNL     1      11.113   0.600  25.149  0.00  0.00    -0.274 OA
BRANCH   2   6
ATOM      6  C   UNL     1       9.082   0.517  23.770  0.00  0.00    +0.163 C 
BRANCH   6   7
ATOM      7  N   UNL     1       8.238   1.726  23.836  0.00  0.00    -0.288 N 
ATOM      8  H   UNL     1       8.499   2.397  24.539  0.00  0.00    +0.151 HD
ATOM      9  C   UNL     1       6.909   1.706  23.504  0.00  0.00    +0.303 C 
ATOM     10  N   UNL     1       6.231   2.908  23.565  0.00  0.00    -0.283 N 
ATOM     11  C   UNL     1       6.796   4.223  23.844  0.00  0.00    +0.134 C 
ATOM     12  O   UNL     1       6.352   0.685  23.113  0.00  0.00    -0.253 OA
BRANCH  10  13
ATOM     13  C   UNL     1       4.850   2.905  23.069  0.00  0.00    +0.164 C 
BRANCH  13  14
ATOM     14  C   UNL     1       3.868   3.073  24.196  0.00  0.00    +0.066 A 
ATOM     15  N   UNL     1       3.970   2.270  25.331  0.00  0.00    -0.247 NA
ATOM     16  C   UNL     1       2.987   2.535  26.169  0.00  0.00    +0.081 A 
ATOM     17  S   UNL     1       1.915   3.788  25.668  0.00  0.00    -0.080 S 
ATOM     18  C   UNL     1       2.797   3.950  24.213  0.00  0.00    +0.071 A 
BRANCH  16  19
ATOM     19  C   UNL     1       2.735   1.819  27.475  0.00  0.00    +0.038 C 
ATOM     20  C   UNL     1       3.318   2.586  28.662  0.00  0.00    +0.014 C 
ATOM     21  C   UNL     1       3.314   0.404  27.431  0.00  0.00    +0.014 C 
ENDBRANCH  16  19
ENDBRANCH  13  14
ENDBRANCH  10  13
ENDBRANCH   6   7
BRANCH   6  23
ATOM     22  C   UNL     1      10.105   1.706  21.741  0.00  0.00    +0.009 C 
ATOM     23  C   UNL     1       9.885   0.353  22.437  0.00  0.00    +0.012 C 
ATOM     24  C   UNL     1       9.341  -0.641  21.408  0.00  0.00    +0.009 C 
ENDBRANCH   6  23
ENDBRANCH   2   6
ENDBRANCH   1   3
BRANCH   1  25
ATOM     25  C   UNL     1       7.956  -1.992  25.480  0.00  0.00    +0.055 C 
BRANCH  25  26
ATOM     26  C   UNL     1       8.987  -3.138  25.531  0.00  0.00    +0.137 C 
BRANCH  26  27
ATOM     27  O   UNL     1       9.716  -3.127  24.310  0.00  0.00    -0.390 OA
ATOM     28  H   UNL     1      10.585  -2.725  24.474  0.00  0.00    +0.210 HD
ENDBRANCH  26  27
BRANCH  26  29
ATOM     29  C   UNL     1       8.264  -4.511  25.701  0.00  0.00    +0.109 C 
BRANCH  29  30
ATOM     30  N   UNL     1       7.005  -4.328  26.420  0.00  0.00    -0.275 N 
ATOM     31  H   UNL     1       6.311  -3.711  26.010  0.00  0.00    +0.152 HD
ATOM     32  C   UNL     1       6.642  -5.080  27.486  0.00  0.00    +0.401 C 
ATOM     33  O   UNL     1       7.322  -5.972  27.976  0.00  0.00    -0.226 OA
BRANCH  32  34
ATOM     34  O   UNL     1       5.432  -4.683  27.937  0.00  0.00    -0.445 OA
BRANCH  34  35
ATOM     35  C   UNL     1       4.329  -5.451  27.439  0.00  0.00    +0.278 C 
BRANCH  35  36
ATOM     36  C   UNL     1       3.388  -4.534  26.733  0.00  0.00    +0.046 A 
ATOM     37  S   UNL     1       1.796  -5.017  26.312  0.00  0.00    -0.077 S 
ATOM     38  C   UNL     1       1.528  -3.469  25.623  0.00  0.00    +0.156 A 
ATOM     39  N   UNL     1       2.533  -2.623  25.683  0.00  0.00    -0.255 NA
ATOM     40  C   UNL     1       3.598  -3.233  26.318  0.00  0.00    +0.125 A 
ENDBRANCH  35  36
ENDBRANCH  34  35
ENDBRANCH  32  34
ENDBRANCH  29  30
BRANCH  29  41
ATOM     41  C   UNL     1       8.039  -5.321  24.393  0.00  0.00    +0.060 C 
BRANCH  41  42
ATOM     42  C   UNL     1       6.669  -5.166  23.773  0.00  0.00    -0.046 A 
ATOM     43  C   UNL     1       5.695  -6.160  23.949  0.00  0.00    +0.004 A 
ATOM     44  C   UNL     1       4.370  -5.922  23.589  0.00  0.00    +0.000 A 
ATOM     45  C   UNL     1       4.012  -4.697  23.028  0.00  0.00    +0.000 A 
ATOM     46  C   UNL     1       4.987  -3.734  22.777  0.00  0.00    +0.000 A 
ATOM     47  C   UNL     1       6.315  -3.975  23.129  0.00  0.00    +0.004 A 
ENDBRANCH  41  42
ENDBRANCH  29  41
ENDBRANCH  26  29
ENDBRANCH  25  26
ENDBRANCH   1  25
BRANCH   1  48
ATOM     48  C   UNL     1       6.885   0.134  26.610  0.00  0.00    +0.057 C 
BRANCH  48  49
ATOM     49  C   UNL     1       6.936   1.275  27.607  0.00  0.00    -0.046 A 
ATOM     50  C   UNL     1       7.007   0.990  28.983  0.00  0.00    +0.004 A 
ATOM     51  C   UNL     1       7.035   2.016  29.932  0.00  0.00    +0.000 A 
ATOM     52  C   UNL     1       6.984   3.342  29.520  0.00  0.00    +0.000 A 
ATOM     53  C   UNL     1       6.897   3.642  28.162  0.00  0.00    +0.000 A 
ATOM     54  C   UNL     1       6.859   2.616  27.213  0.00  0.00    +0.004 A 
ENDBRANCH  48  49
ENDBRANCH   1  48
TORSDOF 19
ENDMDL
MODEL 9
REMARK VINA RESULT:      -6.4      2.424      5.019
REMARK  Name = 
REMARK  24 active torsions:
REMARK  status: ('A' for Active; 'I' for Inactive)
REMARK    1  A    between atoms: C_1  and  C_2
REMARK    2  A    between atoms: C_2  and  C_3
REMARK    3  A    between atoms: C_2  and  C_4
REMARK    4  A    between atoms: C_4  and  N_6
REMARK    5  A    between atoms: C_4  and  C_20
REMARK    6  A    between atoms: N_9  and  C_10
REMARK    7  A    between atoms: N_9  and  C_11
REMARK    8  A    between atoms: C_11  and  C_12
REMARK    9  A    between atoms: C_15  and  C_17
REMARK   10  A    between atoms: C_17  and  C_18
REMARK   11  A    between atoms: C_17  and  C_19
REMARK   12  A    between atoms: N_22  and  C_23
REMARK   13  A    between atoms: C_23  and  C_25
REMARK   14  A    between atoms: C_23  and  C_48
REMARK   15  A    between atoms: C_25  and  C_26
REMARK   16  A    between atoms: C_26  and  O_28
REMARK   17  A    between atoms: C_26  and  C_29
REMARK   18  A    between atoms: C_29  and  C_31
REMARK   19  A    between atoms: C_29  and  N_38
REMARK   20  A    between atoms: C_31  and  C_32
REMARK   21  A    between atoms: C_39  and  O_41
REMARK   22  A    between atoms: O_41  and  C_42
REMARK   23  A    between atoms: C_42  and  C_43
REMARK   24  A    between atoms: C_48  and  C_49
REMARK                            x       y       z     vdW  Elec       q    Type
REMARK                         _______ _______ _______ _____ _____    ______ ____
ROOT
ATOM      1  C   UNL     1       8.355  -1.248  26.496  0.00  0.00    +0.080 C 
ENDROOT
BRANCH   1   3
ATOM      2  C   UNL     1       9.985   0.161  25.059  0.00  0.00    +0.234 C 
ATOM      3  N   UNL     1       9.428  -0.275  26.232  0.00  0.00    -0.311 N 
ATOM      4  H   UNL     1      10.056  -0.066  27.000  0.00  0.00    +0.149 HD
ATOM      5  O   UNL     1      11.124   0.627  25.148  0.00  0.00    -0.274 OA
BRANCH   2   6
ATOM      6  C   UNL     1       9.192   0.112  23.720  0.00  0.00    +0.163 C 
BRANCH   6   7
ATOM      7  N   UNL     1       8.577   1.421  23.425  0.00  0.00    -0.288 N 
ATOM      8  H   UNL     1       9.050   2.217  23.817  0.00  0.00    +0.151 HD
ATOM      9  C   UNL     1       7.227   1.566  23.241  0.00  0.00    +0.303 C 
ATOM     10  N   UNL     1       6.772   2.833  22.930  0.00  0.00    -0.283 N 
ATOM     11  C   UNL     1       7.580   4.018  22.670  0.00  0.00    +0.134 C 
ATOM     12  O   UNL     1       6.457   0.612  23.292  0.00  0.00    -0.253 OA
BRANCH  10  13
ATOM     13  C   UNL     1       5.349   2.951  22.592  0.00  0.00    +0.164 C 
BRANCH  13  14
ATOM     14  C   UNL     1       4.553   3.458  23.763  0.00  0.00    +0.066 A 
ATOM     15  N   UNL     1       3.761   2.577  24.497  0.00  0.00    -0.247 NA
ATOM     16  C   UNL     1       3.106   3.227  25.440  0.00  0.00    +0.081 A 
ATOM     17  S   UNL     1       3.435   4.916  25.528  0.00  0.00    -0.080 S 
ATOM     18  C   UNL     1       4.484   4.774  24.187  0.00  0.00    +0.071 A 
BRANCH  16  19
ATOM     19  C   UNL     1       2.104   2.614  26.390  0.00  0.00    +0.038 C 
ATOM     20  C   UNL     1       2.620   1.305  26.987  0.00  0.00    +0.014 C 
ATOM     21  C   UNL     1       0.769   2.376  25.681  0.00  0.00    +0.014 C 
ENDBRANCH  16  19
ENDBRANCH  13  14
ENDBRANCH  10  13
ENDBRANCH   6   7
BRANCH   6  23
ATOM     22  C   UNL     1       9.066  -0.568  21.251  0.00  0.00    +0.009 C 
ATOM     23  C   UNL     1       9.942  -0.545  22.515  0.00  0.00    +0.012 C 
ATOM     24  C   UNL     1      10.525  -1.944  22.728  0.00  0.00    +0.009 C 
ENDBRANCH   6  23
ENDBRANCH   2   6
ENDBRANCH   1   3
BRANCH   1  25
ATOM     25  C   UNL     1       8.626  -2.584  25.779  0.00  0.00    +0.055 C 
BRANCH  25  26
ATOM     26  C   UNL     1       8.313  -3.892  26.535  0.00  0.00    +0.137 C 
BRANCH  26  27
ATOM     27  O   UNL     1       9.447  -4.226  27.324  0.00  0.00    -0.390 OA
ATOM     28  H   UNL     1      10.209  -3.718  27.000  0.00  0.00    +0.210 HD
ENDBRANCH  26  27
BRANCH  26  29
ATOM     29  C   UNL     1       8.017  -5.044  25.524  0.00  0.00    +0.109 C 
BRANCH  29  30
ATOM     30  N   UNL     1       6.574  -5.235  25.390  0.00  0.00    -0.275 N 
ATOM     31  H   UNL     1       6.134  -4.925  24.529  0.00  0.00    +0.152 HD
ATOM     32  C   UNL     1       5.838  -5.969  26.256  0.00  0.00    +0.401 C 
ATOM     33  O   UNL     1       6.283  -6.535  27.247  0.00  0.00    -0.226 OA
BRANCH  32  34
ATOM     34  O   UNL     1       4.542  -5.967  25.875  0.00  0.00    -0.445 OA
BRANCH  34  35
ATOM     35  C   UNL     1       4.310  -6.456  24.548  0.00  0.00    +0.278 C 
BRANCH  35  36
ATOM     36  C   UNL     1       2.899  -6.156  24.167  0.00  0.00    +0.046 A 
ATOM     37  S   UNL     1       1.681  -5.877  25.343  0.00  0.00    -0.077 S 
ATOM     38  C   UNL     1       0.542  -5.646  24.081  0.00  0.00    +0.156 A 
ATOM     39  N   UNL     1       1.000  -5.761  22.855  0.00  0.00    -0.255 NA
ATOM     40  C   UNL     1       2.350  -6.053  22.903  0.00  0.00    +0.125 A 
ENDBRANCH  35  36
ENDBRANCH  34  35
ENDBRANCH  32  34
ENDBRANCH  29  30
BRANCH  29  41
ATOM     41  C   UNL     1       8.687  -4.906  24.128  0.00  0.00    +0.060 C 
BRANCH  41  42
ATOM     42  C   UNL     1       7.727  -4.730  22.973  0.00  0.00    -0.046 A 
ATOM     43  C   UNL     1       7.296  -5.842  22.234  0.00  0.00    +0.004 A 
ATOM     44  C   UNL     1       6.240  -5.723  21.333  0.00  0.00    +0.000 A 
ATOM     45  C   UNL     1       5.623  -4.488  21.144  0.00  0.00    +0.000 A 
ATOM     46  C   UNL     1       6.096  -3.362  21.816  0.00  0.00    +0.000 A 
ATOM     47  C   UNL     1       7.158  -3.477  22.711  0.00  0.00    +0.004 A 
ENDBRANCH  41  42
ENDBRANCH  29  41
ENDBRANCH  26  29
ENDBRANCH  25  26
ENDBRANCH   1  25
BRANCH   1  48
ATOM     48  C   UNL     1       6.980  -0.571  26.202  0.00  0.00    +0.057 C 
BRANCH  48  49
ATOM     49  C   UNL     1       5.700  -1.357  26.411  0.00  0.00    -0.046 A 
ATOM     50  C   UNL     1       5.088  -1.987  25.313  0.00  0.00    +0.004 A 
ATOM     51  C   UNL     1       3.897  -2.704  25.464  0.00  0.00    +0.000 A 
ATOM     52  C   UNL     1       3.296  -2.792  26.715  0.00  0.00    +0.000 A 
ATOM     53  C   UNL     1       3.881  -2.160  27.810  0.00  0.00    +0.000 A 
ATOM     54  C   UNL     1       5.067  -1.436  27.657  0.00  0.00    +0.004 A 
ENDBRANCH  48  49
ENDBRANCH   1  48
TORSDOF 19
ENDMDL
