MODEL 1
REMARK VINA RESULT:      -8.1      0.000      0.000
REMARK  Name = 
REMARK  12 active torsions:
REMARK  status: ('A' for Active; 'I' for Inactive)
REMARK    1  A    between atoms: C_1  and  N_2
REMARK    2  A    between atoms: C_3  and  C_5
REMARK    3  A    between atoms: C_5  and  N_6
REMARK    4  A    between atoms: N_6  and  C_7
REMARK    5  A    between atoms: C_10  and  C_13
REMARK    6  A    between atoms: N_15  and  CA_16
REMARK    7  A    between atoms: CA_16  and  CB_18
REMARK    8  A    between atoms: CA_16  and  C_23
REMARK    9  A    between atoms: CB_18  and  CG_19
REMARK   10  A    between atoms: CG_19  and  CD_20
REMARK   11  A    between atoms: CD_20  and  OE1_21
REMARK   12  A    between atoms: C_23  and  O_24
REMARK                            x       y       z     vdW  Elec       q    Type
REMARK                         _______ _______ _______ _____ _____    ______ ____
ROOT
ATOM      1  C   UNK A   0       9.424  -1.759  22.448  0.00  0.00    +0.027 A 
ATOM      2  C   UNK A   0      10.122  -2.309  23.524  0.00  0.00    +0.023 A 
ATOM      3  C   UNK A   0       9.548  -3.326  24.299  0.00  0.00    +0.015 A 
ATOM      4  C   UNK A   0       8.272  -3.805  23.991  0.00  0.00    +0.037 A 
ATOM      5  C   UNK A   0       7.616  -3.347  22.848  0.00  0.00    +0.015 A 
ATOM      6  C   UNK A   0       8.204  -2.347  22.078  0.00  0.00    +0.023 A 
ENDROOT
BRANCH   4   7
ATOM      7  C   UNK A   0       7.634  -4.814  24.871  0.00  0.00    +0.245 C 
ATOM      8  N   GLU A   1       6.299  -5.076  24.611  0.00  0.00    -0.298 N 
ATOM      9  H   GLU A   1       5.786  -4.395  24.057  0.00  0.00    +0.150 HD
ATOM     10  O   UNK A   0       8.269  -5.381  25.748  0.00  0.00    -0.270 OA
BRANCH   8  11
ATOM     11  CA  GLU A   1       5.518  -5.986  25.474  0.00  0.00    +0.182 C 
BRANCH  11  12
ATOM     12  C   GLU A   1       4.635  -6.912  24.603  0.00  0.00    +0.325 C 
ATOM     13  OXT GLU A   1       3.809  -7.694  25.048  0.00  0.00    -0.249 OA
BRANCH  12  14
ATOM     14  O   GLU A   1       4.810  -6.744  23.271  0.00  0.00    -0.479 OA
ATOM     15  H   GLU A   1       4.928  -5.792  23.083  0.00  0.00    +0.295 HD
ENDBRANCH  12  14
ENDBRANCH  11  12
BRANCH  11  16
ATOM     16  CB  GLU A   1       4.669  -5.168  26.465  0.00  0.00    +0.045 C 
BRANCH  16  17
ATOM     17  CG  GLU A   1       5.268  -5.099  27.874  0.00  0.00    +0.123 C 
BRANCH  17  18
ATOM     18  CD  GLU A   1       6.001  -6.363  28.249  0.00  0.00    +0.305 C 
ATOM     19  OE2 GLU A   1       5.462  -7.408  28.571  0.00  0.00    -0.251 OA
BRANCH  18  20
ATOM     20  OE1 GLU A   1       7.347  -6.213  28.222  0.00  0.00    -0.481 OA
ATOM     21  HE1 GLU A   1       7.815  -6.646  28.962  0.00  0.00    +0.295 HD
ENDBRANCH  18  20
ENDBRANCH  17  18
ENDBRANCH  16  17
ENDBRANCH  11  16
ENDBRANCH   8  11
ENDBRANCH   4   7
BRANCH   1  22
ATOM     22  N   UNK A   0       9.921  -0.755  21.627  0.00  0.00    -0.342 N 
ATOM     23  H   UNK A   0       9.768  -1.024  20.654  0.00  0.00    +0.146 HD
BRANCH  22  24
ATOM     24  C   UNK A   0       9.518   0.652  21.771  0.00  0.00    +0.125 C 
BRANCH  24  41
ATOM     25  C   UNK A   0       6.933   0.636  24.026  0.00  0.00    +0.130 C 
ATOM     26  N   UNK A   0       7.939   1.570  23.546  0.00  0.00    -0.320 N 
ATOM     27  C   UNK A   0       7.684   2.945  23.298  0.00  0.00    +0.135 A 
ATOM     28  C   UNK A   0       6.261   3.474  23.054  0.00  0.00    +0.298 A 
ATOM     29  N   UNK A   0       6.117   4.669  22.369  0.00  0.00    -0.176 NA
ATOM     30  C   UNK A   0       7.165   5.395  22.192  0.00  0.00    +0.195 A 
ATOM     31  N   UNK A   0       8.410   5.076  22.608  0.00  0.00    -0.315 N 
ATOM     32  H   UNK A   0       9.202   5.574  22.231  0.00  0.00    +0.170 HD
ATOM     33  N   UNK A   0       7.101   6.570  21.518  0.00  0.00    -0.329 N 
ATOM     34  H   UNK A   0       7.656   7.317  21.917  0.00  0.00    +0.145 HD
ATOM     35  H   UNK A   0       6.135   6.860  21.392  0.00  0.00    +0.145 HD
ATOM     36  O   UNK A   0       5.282   2.810  23.385  0.00  0.00    -0.264 OA
ATOM     37  C   UNK A   0       8.697   3.832  23.097  0.00  0.00    +0.126 A 
ATOM     38  N   UNK A   0      10.038   3.452  23.233  0.00  0.00    -0.327 N 
ATOM     39  H   UNK A   0      10.501   3.593  22.334  0.00  0.00    +0.148 HD
ATOM     40  C   UNK A   0      10.348   2.099  23.745  0.00  0.00    +0.126 C 
ATOM     41  C   UNK A   0       9.313   1.042  23.276  0.00  0.00    +0.107 C 
ENDBRANCH  24  41
ENDBRANCH  22  24
ENDBRANCH   1  22
TORSDOF 11
ENDMDL
MODEL 2
REMARK VINA RESULT:      -8.1      2.356      3.973
REMARK  Name = 
REMARK  12 active torsions:
REMARK  status: ('A' for Active; 'I' for Inactive)
REMARK    1  A    between atoms: C_1  and  N_2
REMARK    2  A    between atoms: C_3  and  C_5
REMARK    3  A    between atoms: C_5  and  N_6
REMARK    4  A    between atoms: N_6  and  C_7
REMARK    5  A    between atoms: C_10  and  C_13
REMARK    6  A    between atoms: N_15  and  CA_16
REMARK    7  A    between atoms: CA_16  and  CB_18
REMARK    8  A    between atoms: CA_16  and  C_23
REMARK    9  A    between atoms: CB_18  and  CG_19
REMARK   10  A    between atoms: CG_19  and  CD_20
REMARK   11  A    between atoms: CD_20  and  OE1_21
REMARK   12  A    between atoms: C_23  and  O_24
REMARK                            x       y       z     vdW  Elec       q    Type
REMARK                         _______ _______ _______ _____ _____    ______ ____
ROOT
ATOM      1  C   UNK A   0       8.458   0.853  21.866  0.00  0.00    +0.027 A 
ATOM      2  C   UNK A   0       9.412  -0.114  21.548  0.00  0.00    +0.023 A 
ATOM      3  C   UNK A   0       9.239  -1.444  21.954  0.00  0.00    +0.015 A 
ATOM      4  C   UNK A   0       8.100  -1.814  22.675  0.00  0.00    +0.037 A 
ATOM      5  C   UNK A   0       7.086  -0.881  22.895  0.00  0.00    +0.015 A 
ATOM      6  C   UNK A   0       7.263   0.433  22.472  0.00  0.00    +0.023 A 
ENDROOT
BRANCH   4   7
ATOM      7  C   UNK A   0       7.971  -3.201  23.182  0.00  0.00    +0.245 C 
ATOM      8  N   GLU A   1       6.743  -3.805  22.964  0.00  0.00    -0.298 N 
ATOM      9  H   GLU A   1       5.955  -3.201  22.743  0.00  0.00    +0.150 HD
ATOM     10  O   UNK A   0       8.905  -3.764  23.733  0.00  0.00    -0.270 OA
BRANCH   8  11
ATOM     11  CA  GLU A   1       6.447  -5.148  23.504  0.00  0.00    +0.182 C 
BRANCH  11  12
ATOM     12  C   GLU A   1       5.659  -5.975  22.460  0.00  0.00    +0.325 C 
ATOM     13  OXT GLU A   1       6.009  -6.135  21.300  0.00  0.00    -0.249 OA
BRANCH  12  14
ATOM     14  O   GLU A   1       4.550  -6.574  22.956  0.00  0.00    -0.479 OA
ATOM     15  H   GLU A   1       4.425  -6.292  23.883  0.00  0.00    +0.295 HD
ENDBRANCH  12  14
ENDBRANCH  11  12
BRANCH  11  16
ATOM     16  CB  GLU A   1       5.667  -5.021  24.825  0.00  0.00    +0.045 C 
BRANCH  16  17
ATOM     17  CG  GLU A   1       6.260  -5.852  25.969  0.00  0.00    +0.123 C 
BRANCH  17  18
ATOM     18  CD  GLU A   1       7.489  -5.212  26.567  0.00  0.00    +0.305 C 
ATOM     19  OE2 GLU A   1       7.478  -4.232  27.292  0.00  0.00    -0.251 OA
BRANCH  18  20
ATOM     20  OE1 GLU A   1       8.635  -5.828  26.188  0.00  0.00    -0.481 OA
ATOM     21  HE1 GLU A   1       9.182  -6.150  26.930  0.00  0.00    +0.295 HD
ENDBRANCH  18  20
ENDBRANCH  17  18
ENDBRANCH  16  17
ENDBRANCH  11  16
ENDBRANCH   8  11
ENDBRANCH   4   7
BRANCH   1  22
ATOM     22  N   UNK A   0       8.549   2.190  21.497  0.00  0.00    -0.342 N 
ATOM     23  H   UNK A   0       8.374   2.263  20.495  0.00  0.00    +0.146 HD
BRANCH  22  24
ATOM     24  C   UNK A   0       7.773   3.245  22.165  0.00  0.00    +0.125 C 
BRANCH  24  41
ATOM     25  C   UNK A   0      11.021   3.243  23.269  0.00  0.00    +0.130 C 
ATOM     26  N   UNK A   0       9.694   3.024  23.823  0.00  0.00    -0.320 N 
ATOM     27  C   UNK A   0       9.394   2.012  24.774  0.00  0.00    +0.135 A 
ATOM     28  C   UNK A   0      10.293   0.777  24.955  0.00  0.00    +0.298 A 
ATOM     29  N   UNK A   0       9.735  -0.359  25.515  0.00  0.00    -0.176 NA
ATOM     30  C   UNK A   0       8.582  -0.254  26.079  0.00  0.00    +0.195 A 
ATOM     31  N   UNK A   0       7.857   0.884  26.155  0.00  0.00    -0.315 N 
ATOM     32  H   UNK A   0       6.880   0.833  26.399  0.00  0.00    +0.170 HD
ATOM     33  N   UNK A   0       7.970  -1.328  26.635  0.00  0.00    -0.329 N 
ATOM     34  H   UNK A   0       7.504  -1.141  27.513  0.00  0.00    +0.145 HD
ATOM     35  H   UNK A   0       8.620  -2.105  26.725  0.00  0.00    +0.145 HD
ATOM     36  O   UNK A   0      11.447   0.778  24.536  0.00  0.00    -0.264 OA
ATOM     37  C   UNK A   0       8.214   1.999  25.452  0.00  0.00    +0.126 A 
ATOM     38  N   UNK A   0       7.287   3.042  25.324  0.00  0.00    -0.327 N 
ATOM     39  H   UNK A   0       6.421   2.652  24.950  0.00  0.00    +0.148 HD
ATOM     40  C   UNK A   0       7.667   4.243  24.547  0.00  0.00    +0.126 C 
ATOM     41  C   UNK A   0       8.580   3.899  23.341  0.00  0.00    +0.107 C 
ENDBRANCH  24  41
ENDBRANCH  22  24
ENDBRANCH   1  22
TORSDOF 11
ENDMDL
MODEL 3
REMARK VINA RESULT:      -8.0      1.949      3.239
REMARK  Name = 
REMARK  12 active torsions:
REMARK  status: ('A' for Active; 'I' for Inactive)
REMARK    1  A    between atoms: C_1  and  N_2
REMARK    2  A    between atoms: C_3  and  C_5
REMARK    3  A    between atoms: C_5  and  N_6
REMARK    4  A    between atoms: N_6  and  C_7
REMARK    5  A    between atoms: C_10  and  C_13
REMARK    6  A    between atoms: N_15  and  CA_16
REMARK    7  A    between atoms: CA_16  and  CB_18
REMARK    8  A    between atoms: CA_16  and  C_23
REMARK    9  A    between atoms: CB_18  and  CG_19
REMARK   10  A    between atoms: CG_19  and  CD_20
REMARK   11  A    between atoms: CD_20  and  OE1_21
REMARK   12  A    between atoms: C_23  and  O_24
REMARK                            x       y       z     vdW  Elec       q    Type
REMARK                         _______ _______ _______ _____ _____    ______ ____
ROOT
ATOM      1  C   UNK A   0       9.491  -1.834  22.599  0.00  0.00    +0.027 A 
ATOM      2  C   UNK A   0      10.164  -2.451  23.654  0.00  0.00    +0.023 A 
ATOM      3  C   UNK A   0       9.558  -3.489  24.375  0.00  0.00    +0.015 A 
ATOM      4  C   UNK A   0       8.273  -3.921  24.033  0.00  0.00    +0.037 A 
ATOM      5  C   UNK A   0       7.641  -3.393  22.907  0.00  0.00    +0.015 A 
ATOM      6  C   UNK A   0       8.260  -2.374  22.191  0.00  0.00    +0.023 A 
ENDROOT
BRANCH   4   7
ATOM      7  C   UNK A   0       7.602  -4.954  24.859  0.00  0.00    +0.245 C 
ATOM      8  N   GLU A   1       6.256  -5.150  24.594  0.00  0.00    -0.298 N 
ATOM      9  H   GLU A   1       5.767  -4.420  24.083  0.00  0.00    +0.150 HD
ATOM     10  O   UNK A   0       8.219  -5.593  25.698  0.00  0.00    -0.270 OA
BRANCH   8  11
ATOM     11  CA  GLU A   1       5.445  -6.078  25.409  0.00  0.00    +0.182 C 
BRANCH  11  12
ATOM     12  C   GLU A   1       4.555  -6.949  24.490  0.00  0.00    +0.325 C 
ATOM     13  OXT GLU A   1       3.737  -7.762  24.892  0.00  0.00    -0.249 OA
BRANCH  12  14
ATOM     14  O   GLU A   1       4.713  -6.693  23.170  0.00  0.00    -0.479 OA
ATOM     15  H   GLU A   1       3.866  -6.860  22.711  0.00  0.00    +0.295 HD
ENDBRANCH  12  14
ENDBRANCH  11  12
BRANCH  11  16
ATOM     16  CB  GLU A   1       4.601  -5.284  26.422  0.00  0.00    +0.045 C 
BRANCH  16  17
ATOM     17  CG  GLU A   1       5.280  -5.112  27.786  0.00  0.00    +0.123 C 
BRANCH  17  18
ATOM     18  CD  GLU A   1       5.983  -6.368  28.240  0.00  0.00    +0.305 C 
ATOM     19  OE2 GLU A   1       5.419  -7.393  28.583  0.00  0.00    -0.251 OA
BRANCH  18  20
ATOM     20  OE1 GLU A   1       7.330  -6.234  28.258  0.00  0.00    -0.481 OA
ATOM     21  HE1 GLU A   1       7.818  -7.060  28.075  0.00  0.00    +0.295 HD
ENDBRANCH  18  20
ENDBRANCH  17  18
ENDBRANCH  16  17
ENDBRANCH  11  16
ENDBRANCH   8  11
ENDBRANCH   4   7
BRANCH   1  22
ATOM     22  N   UNK A   0      10.021  -0.805  21.831  0.00  0.00    -0.342 N 
ATOM     23  H   UNK A   0      10.637  -1.210  21.125  0.00  0.00    +0.146 HD
BRANCH  22  24
ATOM     24  C   UNK A   0       9.175   0.196  21.165  0.00  0.00    +0.125 C 
BRANCH  24  41
ATOM     25  C   UNK A   0      10.406   1.384  24.139  0.00  0.00    +0.130 C 
ATOM     26  N   UNK A   0       9.108   1.149  23.527  0.00  0.00    -0.320 N 
ATOM     27  C   UNK A   0       7.990   0.621  24.227  0.00  0.00    +0.135 A 
ATOM     28  C   UNK A   0       8.154  -0.181  25.529  0.00  0.00    +0.298 A 
ATOM     29  N   UNK A   0       7.137  -1.046  25.895  0.00  0.00    -0.176 NA
ATOM     30  C   UNK A   0       6.012  -0.956  25.274  0.00  0.00    +0.195 A 
ATOM     31  N   UNK A   0       5.746  -0.088  24.273  0.00  0.00    -0.315 N 
ATOM     32  H   UNK A   0       4.936  -0.237  23.692  0.00  0.00    +0.170 HD
ATOM     33  N   UNK A   0       4.978  -1.780  25.571  0.00  0.00    -0.329 N 
ATOM     34  H   UNK A   0       4.070  -1.331  25.583  0.00  0.00    +0.145 HD
ATOM     35  H   UNK A   0       5.151  -2.277  26.441  0.00  0.00    +0.145 HD
ATOM     36  O   UNK A   0       9.196  -0.115  26.177  0.00  0.00    -0.264 OA
ATOM     37  C   UNK A   0       6.737   0.653  23.695  0.00  0.00    +0.126 A 
ATOM     38  N   UNK A   0       6.475   1.304  22.483  0.00  0.00    -0.327 N 
ATOM     39  H   UNK A   0       6.120   0.612  21.822  0.00  0.00    +0.148 HD
ATOM     40  C   UNK A   0       7.555   2.092  21.847  0.00  0.00    +0.126 C 
ATOM     41  C   UNK A   0       8.953   1.458  22.071  0.00  0.00    +0.107 C 
ENDBRANCH  24  41
ENDBRANCH  22  24
ENDBRANCH   1  22
TORSDOF 11
ENDMDL
MODEL 4
REMARK VINA RESULT:      -7.8      3.062      9.275
REMARK  Name = 
REMARK  12 active torsions:
REMARK  status: ('A' for Active; 'I' for Inactive)
REMARK    1  A    between atoms: C_1  and  N_2
REMARK    2  A    between atoms: C_3  and  C_5
REMARK    3  A    between atoms: C_5  and  N_6
REMARK    4  A    between atoms: N_6  and  C_7
REMARK    5  A    between atoms: C_10  and  C_13
REMARK    6  A    between atoms: N_15  and  CA_16
REMARK    7  A    between atoms: CA_16  and  CB_18
REMARK    8  A    between atoms: CA_16  and  C_23
REMARK    9  A    between atoms: CB_18  and  CG_19
REMARK   10  A    between atoms: CG_19  and  CD_20
REMARK   11  A    between atoms: CD_20  and  OE1_21
REMARK   12  A    between atoms: C_23  and  O_24
REMARK                            x       y       z     vdW  Elec       q    Type
REMARK                         _______ _______ _______ _____ _____    ______ ____
ROOT
ATOM      1  C   UNK A   0       6.207  -4.799  22.782  0.00  0.00    +0.027 A 
ATOM      2  C   UNK A   0       7.295  -5.036  23.622  0.00  0.00    +0.023 A 
ATOM      3  C   UNK A   0       8.330  -4.097  23.727  0.00  0.00    +0.015 A 
ATOM      4  C   UNK A   0       8.272  -2.907  22.996  0.00  0.00    +0.037 A 
ATOM      5  C   UNK A   0       7.133  -2.607  22.248  0.00  0.00    +0.015 A 
ATOM      6  C   UNK A   0       6.106  -3.542  22.164  0.00  0.00    +0.023 A 
ENDROOT
BRANCH   4   7
ATOM      7  C   UNK A   0       9.414  -1.962  23.040  0.00  0.00    +0.245 C 
ATOM      8  N   GLU A   1       9.077  -0.620  23.119  0.00  0.00    -0.298 N 
ATOM      9  H   GLU A   1       8.128  -0.358  22.865  0.00  0.00    +0.150 HD
ATOM     10  O   UNK A   0      10.569  -2.363  23.029  0.00  0.00    -0.270 OA
BRANCH   8  11
ATOM     11  CA  GLU A   1      10.115   0.431  23.071  0.00  0.00    +0.182 C 
BRANCH  11  12
ATOM     12  C   GLU A   1      10.168   1.182  24.423  0.00  0.00    +0.325 C 
ATOM     13  OXT GLU A   1       9.818   2.342  24.582  0.00  0.00    -0.249 OA
BRANCH  12  14
ATOM     14  O   GLU A   1      10.589   0.420  25.460  0.00  0.00    -0.479 OA
ATOM     15  H   GLU A   1      11.207   0.942  26.008  0.00  0.00    +0.295 HD
ENDBRANCH  12  14
ENDBRANCH  11  12
BRANCH  11  16
ATOM     16  CB  GLU A   1       9.832   1.394  21.903  0.00  0.00    +0.045 C 
BRANCH  16  17
ATOM     17  CG  GLU A   1       8.460   1.181  21.253  0.00  0.00    +0.123 C 
BRANCH  17  18
ATOM     18  CD  GLU A   1       7.367   1.951  21.952  0.00  0.00    +0.305 C 
ATOM     19  OE2 GLU A   1       7.263   3.166  21.949  0.00  0.00    -0.251 OA
BRANCH  18  20
ATOM     20  OE1 GLU A   1       6.509   1.146  22.623  0.00  0.00    -0.481 OA
ATOM     21  HE1 GLU A   1       5.567   1.313  22.430  0.00  0.00    +0.295 HD
ENDBRANCH  18  20
ENDBRANCH  17  18
ENDBRANCH  16  17
ENDBRANCH  11  16
ENDBRANCH   8  11
ENDBRANCH   4   7
BRANCH   1  22
ATOM     22  N   UNK A   0       5.138  -5.673  22.625  0.00  0.00    -0.342 N 
ATOM     23  H   UNK A   0       5.294  -6.230  21.785  0.00  0.00    +0.146 HD
BRANCH  22  24
ATOM     24  C   UNK A   0       4.702  -6.585  23.693  0.00  0.00    +0.125 C 
BRANCH  24  41
ATOM     25  C   UNK A   0       4.174  -3.568  25.238  0.00  0.00    +0.130 C 
ATOM     26  N   UNK A   0       4.141  -4.979  25.589  0.00  0.00    -0.320 N 
ATOM     27  C   UNK A   0       4.629  -5.498  26.818  0.00  0.00    +0.135 A 
ATOM     28  C   UNK A   0       5.644  -4.725  27.678  0.00  0.00    +0.298 A 
ATOM     29  N   UNK A   0       6.421  -5.442  28.571  0.00  0.00    -0.176 NA
ATOM     30  C   UNK A   0       6.091  -6.662  28.819  0.00  0.00    +0.195 A 
ATOM     31  N   UNK A   0       5.047  -7.311  28.259  0.00  0.00    -0.315 N 
ATOM     32  H   UNK A   0       4.996  -8.316  28.324  0.00  0.00    +0.170 HD
ATOM     33  N   UNK A   0       6.814  -7.427  29.673  0.00  0.00    -0.329 N 
ATOM     34  H   UNK A   0       6.262  -8.017  30.283  0.00  0.00    +0.145 HD
ATOM     35  H   UNK A   0       7.463  -6.855  30.208  0.00  0.00    +0.145 HD
ATOM     36  O   UNK A   0       5.816  -3.520  27.511  0.00  0.00    -0.264 OA
ATOM     37  C   UNK A   0       4.354  -6.771  27.213  0.00  0.00    +0.126 A 
ATOM     38  N   UNK A   0       3.488  -7.592  26.479  0.00  0.00    -0.327 N 
ATOM     39  H   UNK A   0       4.014  -8.410  26.169  0.00  0.00    +0.148 HD
ATOM     40  C   UNK A   0       2.752  -7.011  25.335  0.00  0.00    +0.126 C 
ATOM     41  C   UNK A   0       3.585  -5.938  24.584  0.00  0.00    +0.107 C 
ENDBRANCH  24  41
ENDBRANCH  22  24
ENDBRANCH   1  22
TORSDOF 11
ENDMDL
MODEL 5
REMARK VINA RESULT:      -7.8      3.581     10.175
REMARK  Name = 
REMARK  12 active torsions:
REMARK  status: ('A' for Active; 'I' for Inactive)
REMARK    1  A    between atoms: C_1  and  N_2
REMARK    2  A    between atoms: C_3  and  C_5
REMARK    3  A    between atoms: C_5  and  N_6
REMARK    4  A    between atoms: N_6  and  C_7
REMARK    5  A    between atoms: C_10  and  C_13
REMARK    6  A    between atoms: N_15  and  CA_16
REMARK    7  A    between atoms: CA_16  and  CB_18
REMARK    8  A    between atoms: CA_16  and  C_23
REMARK    9  A    between atoms: CB_18  and  CG_19
REMARK   10  A    between atoms: CG_19  and  CD_20
REMARK   11  A    between atoms: CD_20  and  OE1_21
REMARK   12  A    between atoms: C_23  and  O_24
REMARK                            x       y       z     vdW  Elec       q    Type
REMARK                         _______ _______ _______ _____ _____    ______ ____
ROOT
ATOM      1  C   UNK A   0       9.882  -1.064  23.467  0.00  0.00    +0.027 A 
ATOM      2  C   UNK A   0       9.822  -0.418  22.232  0.00  0.00    +0.023 A 
ATOM      3  C   UNK A   0       9.987   0.971  22.147  0.00  0.00    +0.015 A 
ATOM      4  C   UNK A   0      10.223   1.720  23.303  0.00  0.00    +0.037 A 
ATOM      5  C   UNK A   0      10.403   1.071  24.525  0.00  0.00    +0.015 A 
ATOM      6  C   UNK A   0      10.252  -0.311  24.593  0.00  0.00    +0.023 A 
ENDROOT
BRANCH   4   7
ATOM      7  C   UNK A   0      10.302   3.198  23.217  0.00  0.00    +0.245 C 
ATOM      8  N   GLU A   1      11.582   3.727  23.168  0.00  0.00    -0.298 N 
ATOM      9  H   GLU A   1      12.348   3.130  23.468  0.00  0.00    +0.150 HD
ATOM     10  O   UNK A   0       9.292   3.885  23.171  0.00  0.00    -0.270 OA
BRANCH   8  11
ATOM     11  CA  GLU A   1      11.805   5.187  23.179  0.00  0.00    +0.182 C 
BRANCH  11  12
ATOM     12  C   GLU A   1      13.218   5.510  22.639  0.00  0.00    +0.325 C 
ATOM     13  OXT GLU A   1      13.444   6.267  21.707  0.00  0.00    -0.249 OA
BRANCH  12  14
ATOM     14  O   GLU A   1      14.220   4.918  23.332  0.00  0.00    -0.479 OA
ATOM     15  H   GLU A   1      15.043   5.430  23.200  0.00  0.00    +0.295 HD
ENDBRANCH  12  14
ENDBRANCH  11  12
BRANCH  11  16
ATOM     16  CB  GLU A   1      11.609   5.736  24.605  0.00  0.00    +0.045 C 
BRANCH  16  17
ATOM     17  CG  GLU A   1      10.473   6.759  24.717  0.00  0.00    +0.123 C 
BRANCH  17  18
ATOM     18  CD  GLU A   1       9.416   6.337  25.708  0.00  0.00    +0.305 C 
ATOM     19  OE2 GLU A   1       9.527   6.424  26.919  0.00  0.00    -0.251 OA
BRANCH  18  20
ATOM     20  OE1 GLU A   1       8.319   5.813  25.110  0.00  0.00    -0.481 OA
ATOM     21  HE1 GLU A   1       7.544   6.407  25.101  0.00  0.00    +0.295 HD
ENDBRANCH  18  20
ENDBRANCH  17  18
ENDBRANCH  16  17
ENDBRANCH  11  16
ENDBRANCH   8  11
ENDBRANCH   4   7
BRANCH   1  22
ATOM     22  N   UNK A   0       9.736  -2.435  23.639  0.00  0.00    -0.342 N 
ATOM     23  H   UNK A   0      10.656  -2.841  23.813  0.00  0.00    +0.146 HD
BRANCH  22  24
ATOM     24  C   UNK A   0       8.801  -3.011  24.616  0.00  0.00    +0.125 C 
BRANCH  24  41
ATOM     25  C   UNK A   0       6.255  -4.799  23.169  0.00  0.00    +0.130 C 
ATOM     26  N   UNK A   0       7.037  -4.836  24.394  0.00  0.00    -0.320 N 
ATOM     27  C   UNK A   0       6.489  -5.132  25.671  0.00  0.00    +0.135 A 
ATOM     28  C   UNK A   0       4.986  -4.976  25.964  0.00  0.00    +0.298 A 
ATOM     29  N   UNK A   0       4.592  -4.814  27.280  0.00  0.00    -0.176 NA
ATOM     30  C   UNK A   0       5.457  -5.047  28.206  0.00  0.00    +0.195 A 
ATOM     31  N   UNK A   0       6.737  -5.426  27.993  0.00  0.00    -0.315 N 
ATOM     32  H   UNK A   0       7.404  -5.361  28.747  0.00  0.00    +0.170 HD
ATOM     33  N   UNK A   0       5.144  -4.895  29.516  0.00  0.00    -0.329 N 
ATOM     34  H   UNK A   0       5.516  -5.613  30.125  0.00  0.00    +0.145 HD
ATOM     35  H   UNK A   0       4.139  -4.798  29.637  0.00  0.00    +0.145 HD
ATOM     36  O   UNK A   0       4.174  -4.914  25.045  0.00  0.00    -0.264 OA
ATOM     37  C   UNK A   0       7.283  -5.404  26.742  0.00  0.00    +0.126 A 
ATOM     38  N   UNK A   0       8.674  -5.514  26.610  0.00  0.00    -0.327 N 
ATOM     39  H   UNK A   0       9.105  -4.797  27.196  0.00  0.00    +0.148 HD
ATOM     40  C   UNK A   0       9.268  -5.472  25.255  0.00  0.00    +0.126 C 
ATOM     41  C   UNK A   0       8.497  -4.519  24.305  0.00  0.00    +0.107 C 
ENDBRANCH  24  41
ENDBRANCH  22  24
ENDBRANCH   1  22
TORSDOF 11
ENDMDL
MODEL 6
REMARK VINA RESULT:      -7.8      2.902      9.757
REMARK  Name = 
REMARK  12 active torsions:
REMARK  status: ('A' for Active; 'I' for Inactive)
REMARK    1  A    between atoms: C_1  and  N_2
REMARK    2  A    between atoms: C_3  and  C_5
REMARK    3  A    between atoms: C_5  and  N_6
REMARK    4  A    between atoms: N_6  and  C_7
REMARK    5  A    between atoms: C_10  and  C_13
REMARK    6  A    between atoms: N_15  and  CA_16
REMARK    7  A    between atoms: CA_16  and  CB_18
REMARK    8  A    between atoms: CA_16  and  C_23
REMARK    9  A    between atoms: CB_18  and  CG_19
REMARK   10  A    between atoms: CG_19  and  CD_20
REMARK   11  A    between atoms: CD_20  and  OE1_21
REMARK   12  A    between atoms: C_23  and  O_24
REMARK                            x       y       z     vdW  Elec       q    Type
REMARK                         _______ _______ _______ _____ _____    ______ ____
ROOT
ATOM      1  C   UNK A   0      10.153  -0.411  22.819  0.00  0.00    +0.027 A 
ATOM      2  C   UNK A   0      10.640   0.072  24.034  0.00  0.00    +0.023 A 
ATOM      3  C   UNK A   0      10.824   1.447  24.231  0.00  0.00    +0.015 A 
ATOM      4  C   UNK A   0      10.510   2.348  23.209  0.00  0.00    +0.037 A 
ATOM      5  C   UNK A   0       9.912   1.886  22.036  0.00  0.00    +0.015 A 
ATOM      6  C   UNK A   0       9.720   0.519  21.860  0.00  0.00    +0.023 A 
ENDROOT
BRANCH   4   7
ATOM      7  C   UNK A   0      10.796   3.792  23.390  0.00  0.00    +0.245 C 
ATOM      8  N   GLU A   1       9.692   4.596  23.624  0.00  0.00    -0.298 N 
ATOM      9  H   GLU A   1       8.778   4.220  23.383  0.00  0.00    +0.150 HD
ATOM     10  O   UNK A   0      11.940   4.220  23.354  0.00  0.00    -0.270 OA
BRANCH   8  11
ATOM     11  CA  GLU A   1       9.825   6.064  23.724  0.00  0.00    +0.182 C 
BRANCH  11  12
ATOM     12  C   GLU A   1      10.399   6.449  25.108  0.00  0.00    +0.325 C 
ATOM     13  OXT GLU A   1       9.761   6.430  26.149  0.00  0.00    -0.249 OA
BRANCH  12  14
ATOM     14  O   GLU A   1      11.717   6.761  25.088  0.00  0.00    -0.479 OA
ATOM     15  H   GLU A   1      12.195   6.089  24.564  0.00  0.00    +0.295 HD
ENDBRANCH  12  14
ENDBRANCH  11  12
BRANCH  11  16
ATOM     16  CB  GLU A   1       8.459   6.731  23.476  0.00  0.00    +0.045 C 
BRANCH  16  17
ATOM     17  CG  GLU A   1       7.773   6.263  22.188  0.00  0.00    +0.123 C 
BRANCH  17  18
ATOM     18  CD  GLU A   1       6.622   5.324  22.459  0.00  0.00    +0.305 C 
ATOM     19  OE2 GLU A   1       6.740   4.189  22.887  0.00  0.00    -0.251 OA
BRANCH  18  20
ATOM     20  OE1 GLU A   1       5.422   5.867  22.145  0.00  0.00    -0.481 OA
ATOM     21  HE1 GLU A   1       4.894   5.337  21.517  0.00  0.00    +0.295 HD
ENDBRANCH  18  20
ENDBRANCH  17  18
ENDBRANCH  16  17
ENDBRANCH  11  16
ENDBRANCH   8  11
ENDBRANCH   4   7
BRANCH   1  22
ATOM     22  N   UNK A   0       9.935  -1.756  22.545  0.00  0.00    -0.342 N 
ATOM     23  H   UNK A   0      10.824  -2.182  22.280  0.00  0.00    +0.146 HD
BRANCH  22  24
ATOM     24  C   UNK A   0       9.274  -2.657  23.499  0.00  0.00    +0.125 C 
BRANCH  24  41
ATOM     25  C   UNK A   0       6.334  -1.187  24.481  0.00  0.00    +0.130 C 
ATOM     26  N   UNK A   0       6.878  -2.530  24.354  0.00  0.00    -0.320 N 
ATOM     27  C   UNK A   0       6.648  -3.566  25.298  0.00  0.00    +0.135 A 
ATOM     28  C   UNK A   0       6.220  -3.264  26.745  0.00  0.00    +0.298 A 
ATOM     29  N   UNK A   0       6.470  -4.222  27.712  0.00  0.00    -0.176 NA
ATOM     30  C   UNK A   0       6.812  -5.401  27.323  0.00  0.00    +0.195 A 
ATOM     31  N   UNK A   0       6.967  -5.779  26.035  0.00  0.00    -0.315 N 
ATOM     32  H   UNK A   0       7.456  -6.635  25.825  0.00  0.00    +0.170 HD
ATOM     33  N   UNK A   0       7.085  -6.385  28.216  0.00  0.00    -0.329 N 
ATOM     34  H   UNK A   0       6.729  -7.297  27.960  0.00  0.00    +0.145 HD
ATOM     35  H   UNK A   0       6.777  -6.120  29.148  0.00  0.00    +0.145 HD
ATOM     36  O   UNK A   0       5.749  -2.169  27.041  0.00  0.00    -0.264 OA
ATOM     37  C   UNK A   0       6.957  -4.863  25.022  0.00  0.00    +0.126 A 
ATOM     38  N   UNK A   0       7.413  -5.250  23.756  0.00  0.00    -0.327 N 
ATOM     39  H   UNK A   0       8.347  -5.648  23.863  0.00  0.00    +0.148 HD
ATOM     40  C   UNK A   0       7.420  -4.253  22.663  0.00  0.00    +0.126 C 
ATOM     41  C   UNK A   0       7.749  -2.825  23.173  0.00  0.00    +0.107 C 
ENDBRANCH  24  41
ENDBRANCH  22  24
ENDBRANCH   1  22
TORSDOF 11
ENDMDL
MODEL 7
REMARK VINA RESULT:      -7.6      4.019      8.410
REMARK  Name = 
REMARK  12 active torsions:
REMARK  status: ('A' for Active; 'I' for Inactive)
REMARK    1  A    between atoms: C_1  and  N_2
REMARK    2  A    between atoms: C_3  and  C_5
REMARK    3  A    between atoms: C_5  and  N_6
REMARK    4  A    between atoms: N_6  and  C_7
REMARK    5  A    between atoms: C_10  and  C_13
REMARK    6  A    between atoms: N_15  and  CA_16
REMARK    7  A    between atoms: CA_16  and  CB_18
REMARK    8  A    between atoms: CA_16  and  C_23
REMARK    9  A    between atoms: CB_18  and  CG_19
REMARK   10  A    between atoms: CG_19  and  CD_20
REMARK   11  A    between atoms: CD_20  and  OE1_21
REMARK   12  A    between atoms: C_23  and  O_24
REMARK                            x       y       z     vdW  Elec       q    Type
REMARK                         _______ _______ _______ _____ _____    ______ ____
ROOT
ATOM      1  C   UNK A   0      10.029  -0.575  22.910  0.00  0.00    +0.027 A 
ATOM      2  C   UNK A   0       9.781   0.311  21.861  0.00  0.00    +0.023 A 
ATOM      3  C   UNK A   0      10.057   1.678  22.004  0.00  0.00    +0.015 A 
ATOM      4  C   UNK A   0      10.596   2.161  23.200  0.00  0.00    +0.037 A 
ATOM      5  C   UNK A   0      10.959   1.269  24.208  0.00  0.00    +0.015 A 
ATOM      6  C   UNK A   0      10.693  -0.088  24.047  0.00  0.00    +0.023 A 
ENDROOT
BRANCH   4   7
ATOM      7  C   UNK A   0      10.797   3.620  23.377  0.00  0.00    +0.245 C 
ATOM      8  N   GLU A   1       9.650   4.357  23.620  0.00  0.00    -0.298 N 
ATOM      9  H   GLU A   1       8.757   3.927  23.389  0.00  0.00    +0.150 HD
ATOM     10  O   UNK A   0      11.914   4.115  23.329  0.00  0.00    -0.270 OA
BRANCH   8  11
ATOM     11  CA  GLU A   1       9.696   5.830  23.717  0.00  0.00    +0.182 C 
BRANCH  11  12
ATOM     12  C   GLU A   1       9.758   6.260  25.203  0.00  0.00    +0.325 C 
ATOM     13  OXT GLU A   1      10.521   7.105  25.644  0.00  0.00    -0.249 OA
BRANCH  12  14
ATOM     14  O   GLU A   1       8.839   5.653  25.989  0.00  0.00    -0.479 OA
ATOM     15  H   GLU A   1       8.493   6.303  26.633  0.00  0.00    +0.295 HD
ENDBRANCH  12  14
ENDBRANCH  11  12
BRANCH  11  16
ATOM     16  CB  GLU A   1       8.474   6.441  23.007  0.00  0.00    +0.045 C 
BRANCH  16  17
ATOM     17  CG  GLU A   1       7.549   5.397  22.370  0.00  0.00    +0.123 C 
BRANCH  17  18
ATOM     18  CD  GLU A   1       6.348   5.092  23.231  0.00  0.00    +0.305 C 
ATOM     19  OE2 GLU A   1       6.368   5.016  24.448  0.00  0.00    -0.251 OA
BRANCH  18  20
ATOM     20  OE1 GLU A   1       5.226   4.876  22.503  0.00  0.00    -0.481 OA
ATOM     21  HE1 GLU A   1       4.396   5.071  22.978  0.00  0.00    +0.295 HD
ENDBRANCH  18  20
ENDBRANCH  17  18
ENDBRANCH  16  17
ENDBRANCH  11  16
ENDBRANCH   8  11
ENDBRANCH   4   7
BRANCH   1  22
ATOM     22  N   UNK A   0       9.791  -1.943  22.849  0.00  0.00    -0.342 N 
ATOM     23  H   UNK A   0      10.486  -2.367  22.235  0.00  0.00    +0.146 HD
BRANCH  22  24
ATOM     24  C   UNK A   0       9.687  -2.778  24.054  0.00  0.00    +0.125 C 
BRANCH  24  41
ATOM     25  C   UNK A   0       6.590  -2.217  22.689  0.00  0.00    +0.130 C 
ATOM     26  N   UNK A   0       7.289  -1.930  23.932  0.00  0.00    -0.320 N 
ATOM     27  C   UNK A   0       7.177  -0.699  24.633  0.00  0.00    +0.135 A 
ATOM     28  C   UNK A   0       6.709   0.590  23.936  0.00  0.00    +0.298 A 
ATOM     29  N   UNK A   0       7.065   1.802  24.502  0.00  0.00    -0.176 NA
ATOM     30  C   UNK A   0       7.545   1.796  25.697  0.00  0.00    +0.195 A 
ATOM     31  N   UNK A   0       7.749   0.690  26.445  0.00  0.00    -0.315 N 
ATOM     32  H   UNK A   0       8.336   0.746  27.263  0.00  0.00    +0.170 HD
ATOM     33  N   UNK A   0       7.926   2.945  26.308  0.00  0.00    -0.329 N 
ATOM     34  H   UNK A   0       7.681   3.003  27.288  0.00  0.00    +0.145 HD
ATOM     35  H   UNK A   0       7.584   3.755  25.797  0.00  0.00    +0.145 HD
ATOM     36  O   UNK A   0       6.112   0.540  22.865  0.00  0.00    -0.264 OA
ATOM     37  C   UNK A   0       7.637  -0.561  25.906  0.00  0.00    +0.126 A 
ATOM     38  N   UNK A   0       8.142  -1.653  26.623  0.00  0.00    -0.327 N 
ATOM     39  H   UNK A   0       9.116  -1.456  26.858  0.00  0.00    +0.148 HD
ATOM     40  C   UNK A   0       8.038  -3.006  26.031  0.00  0.00    +0.126 C 
ATOM     41  C   UNK A   0       8.194  -2.984  24.487  0.00  0.00    +0.107 C 
ENDBRANCH  24  41
ENDBRANCH  22  24
ENDBRANCH   1  22
TORSDOF 11
ENDMDL
MODEL 8
REMARK VINA RESULT:      -7.6      3.110     10.226
REMARK  Name = 
REMARK  12 active torsions:
REMARK  status: ('A' for Active; 'I' for Inactive)
REMARK    1  A    between atoms: C_1  and  N_2
REMARK    2  A    between atoms: C_3  and  C_5
REMARK    3  A    between atoms: C_5  and  N_6
REMARK    4  A    between atoms: N_6  and  C_7
REMARK    5  A    between atoms: C_10  and  C_13
REMARK    6  A    between atoms: N_15  and  CA_16
REMARK    7  A    between atoms: CA_16  and  CB_18
REMARK    8  A    between atoms: CA_16  and  C_23
REMARK    9  A    between atoms: CB_18  and  CG_19
REMARK   10  A    between atoms: CG_19  and  CD_20
REMARK   11  A    between atoms: CD_20  and  OE1_21
REMARK   12  A    between atoms: C_23  and  O_24
REMARK                            x       y       z     vdW  Elec       q    Type
REMARK                         _______ _______ _______ _____ _____    ______ ____
ROOT
ATOM      1  C   UNK A   0       8.437  -0.246  25.000  0.00  0.00    +0.027 A 
ATOM      2  C   UNK A   0       9.784  -0.244  24.639  0.00  0.00    +0.023 A 
ATOM      3  C   UNK A   0      10.422   0.949  24.276  0.00  0.00    +0.015 A 
ATOM      4  C   UNK A   0       9.711   2.153  24.282  0.00  0.00    +0.037 A 
ATOM      5  C   UNK A   0       8.398   2.180  24.754  0.00  0.00    +0.015 A 
ATOM      6  C   UNK A   0       7.781   0.989  25.127  0.00  0.00    +0.023 A 
ENDROOT
BRANCH   4   7
ATOM      7  C   UNK A   0      10.366   3.395  23.806  0.00  0.00    +0.245 C 
ATOM      8  N   GLU A   1       9.767   4.578  24.208  0.00  0.00    -0.298 N 
ATOM      9  H   GLU A   1       8.808   4.530  24.541  0.00  0.00    +0.150 HD
ATOM     10  O   UNK A   0      11.379   3.355  23.124  0.00  0.00    -0.270 OA
BRANCH   8  11
ATOM     11  CA  GLU A   1      10.259   5.885  23.724  0.00  0.00    +0.182 C 
BRANCH  11  12
ATOM     12  C   GLU A   1      11.389   6.398  24.649  0.00  0.00    +0.325 C 
ATOM     13  OXT GLU A   1      11.208   7.088  25.641  0.00  0.00    -0.249 OA
BRANCH  12  14
ATOM     14  O   GLU A   1      12.624   5.967  24.300  0.00  0.00    -0.479 OA
ATOM     15  H   GLU A   1      13.124   6.713  23.915  0.00  0.00    +0.295 HD
ENDBRANCH  12  14
ENDBRANCH  11  12
BRANCH  11  16
ATOM     16  CB  GLU A   1       9.094   6.888  23.648  0.00  0.00    +0.045 C 
BRANCH  16  17
ATOM     17  CG  GLU A   1       7.713   6.223  23.623  0.00  0.00    +0.123 C 
BRANCH  17  18
ATOM     18  CD  GLU A   1       7.394   5.614  22.280  0.00  0.00    +0.305 C 
ATOM     19  OE2 GLU A   1       7.356   4.416  22.053  0.00  0.00    -0.251 OA
BRANCH  18  20
ATOM     20  OE1 GLU A   1       7.177   6.547  21.322  0.00  0.00    -0.481 OA
ATOM     21  HE1 GLU A   1       6.258   6.576  20.991  0.00  0.00    +0.295 HD
ENDBRANCH  18  20
ENDBRANCH  17  18
ENDBRANCH  16  17
ENDBRANCH  11  16
ENDBRANCH   8  11
ENDBRANCH   4   7
BRANCH   1  22
ATOM     22  N   UNK A   0       7.731  -1.382  25.378  0.00  0.00    -0.342 N 
ATOM     23  H   UNK A   0       7.375  -1.839  24.538  0.00  0.00    +0.146 HD
BRANCH  22  24
ATOM     24  C   UNK A   0       8.316  -2.421  26.239  0.00  0.00    +0.125 C 
BRANCH  24  41
ATOM     25  C   UNK A   0       7.763  -3.716  23.110  0.00  0.00    +0.130 C 
ATOM     26  N   UNK A   0       7.784  -4.190  24.485  0.00  0.00    -0.320 N 
ATOM     27  C   UNK A   0       6.852  -5.125  25.012  0.00  0.00    +0.135 A 
ATOM     28  C   UNK A   0       5.482  -5.361  24.354  0.00  0.00    +0.298 A 
ATOM     29  N   UNK A   0       4.467  -5.889  25.133  0.00  0.00    -0.176 NA
ATOM     30  C   UNK A   0       4.778  -6.383  26.280  0.00  0.00    +0.195 A 
ATOM     31  N   UNK A   0       6.025  -6.414  26.799  0.00  0.00    -0.315 N 
ATOM     32  H   UNK A   0       6.148  -6.599  27.783  0.00  0.00    +0.170 HD
ATOM     33  N   UNK A   0       3.834  -6.904  27.101  0.00  0.00    -0.329 N 
ATOM     34  H   UNK A   0       4.110  -7.753  27.579  0.00  0.00    +0.145 HD
ATOM     35  H   UNK A   0       2.957  -7.035  26.604  0.00  0.00    +0.145 HD
ATOM     36  O   UNK A   0       5.277  -5.011  23.194  0.00  0.00    -0.264 OA
ATOM     37  C   UNK A   0       7.053  -5.731  26.214  0.00  0.00    +0.126 A 
ATOM     38  N   UNK A   0       8.240  -5.546  26.935  0.00  0.00    -0.327 N 
ATOM     39  H   UNK A   0       8.001  -5.122  27.834  0.00  0.00    +0.148 HD
ATOM     40  C   UNK A   0       9.347  -4.790  26.308  0.00  0.00    +0.126 C 
ATOM     41  C   UNK A   0       8.834  -3.641  25.400  0.00  0.00    +0.107 C 
ENDBRANCH  24  41
ENDBRANCH  22  24
ENDBRANCH   1  22
TORSDOF 11
ENDMDL
MODEL 9
REMARK VINA RESULT:      -7.6      2.832      9.707
REMARK  Name = 
REMARK  12 active torsions:
REMARK  status: ('A' for Active; 'I' for Inactive)
REMARK    1  A    between atoms: C_1  and  N_2
REMARK    2  A    between atoms: C_3  and  C_5
REMARK    3  A    between atoms: C_5  and  N_6
REMARK    4  A    between atoms: N_6  and  C_7
REMARK    5  A    between atoms: C_10  and  C_13
REMARK    6  A    between atoms: N_15  and  CA_16
REMARK    7  A    between atoms: CA_16  and  CB_18
REMARK    8  A    between atoms: CA_16  and  C_23
REMARK    9  A    between atoms: CB_18  and  CG_19
REMARK   10  A    between atoms: CG_19  and  CD_20
REMARK   11  A    between atoms: CD_20  and  OE1_21
REMARK   12  A    between atoms: C_23  and  O_24
REMARK                            x       y       z     vdW  Elec       q    Type
REMARK                         _______ _______ _______ _____ _____    ______ ____
ROOT
ATOM      1  C   UNK A   0      10.088  -0.472  23.015  0.00  0.00    +0.027 A 
ATOM      2  C   UNK A   0       9.823   0.388  21.949  0.00  0.00    +0.023 A 
ATOM      3  C   UNK A   0      10.086   1.760  22.059  0.00  0.00    +0.015 A 
ATOM      4  C   UNK A   0      10.628   2.276  23.240  0.00  0.00    +0.037 A 
ATOM      5  C   UNK A   0      11.006   1.410  24.266  0.00  0.00    +0.015 A 
ATOM      6  C   UNK A   0      10.753   0.047  24.137  0.00  0.00    +0.023 A 
ENDROOT
BRANCH   4   7
ATOM      7  C   UNK A   0      10.815   3.740  23.382  0.00  0.00    +0.245 C 
ATOM      8  N   GLU A   1       9.677   4.460  23.708  0.00  0.00    -0.298 N 
ATOM      9  H   GLU A   1       8.777   4.011  23.555  0.00  0.00    +0.150 HD
ATOM     10  O   UNK A   0      11.914   4.255  23.239  0.00  0.00    -0.270 OA
BRANCH   8  11
ATOM     11  CA  GLU A   1       9.703   5.935  23.784  0.00  0.00    +0.182 C 
BRANCH  11  12
ATOM     12  C   GLU A   1      10.299   6.384  25.140  0.00  0.00    +0.325 C 
ATOM     13  OXT GLU A   1       9.693   6.365  26.200  0.00  0.00    -0.249 OA
BRANCH  12  14
ATOM     14  O   GLU A   1      11.600   6.755  25.072  0.00  0.00    -0.479 OA
ATOM     15  H   GLU A   1      11.979   6.748  25.973  0.00  0.00    +0.295 HD
ENDBRANCH  12  14
ENDBRANCH  11  12
BRANCH  11  16
ATOM     16  CB  GLU A   1       8.283   6.495  23.581  0.00  0.00    +0.045 C 
BRANCH  16  17
ATOM     17  CG  GLU A   1       7.715   6.233  22.182  0.00  0.00    +0.123 C 
BRANCH  17  18
ATOM     18  CD  GLU A   1       6.819   5.020  22.143  0.00  0.00    +0.305 C 
ATOM     19  OE2 GLU A   1       7.214   3.867  22.119  0.00  0.00    -0.251 OA
BRANCH  18  20
ATOM     20  OE1 GLU A   1       5.504   5.343  22.107  0.00  0.00    -0.481 OA
ATOM     21  HE1 GLU A   1       4.901   4.576  22.157  0.00  0.00    +0.295 HD
ENDBRANCH  18  20
ENDBRANCH  17  18
ENDBRANCH  16  17
ENDBRANCH  11  16
ENDBRANCH   8  11
ENDBRANCH   4   7
BRANCH   1  22
ATOM     22  N   UNK A   0       9.862  -1.843  22.987  0.00  0.00    -0.342 N 
ATOM     23  H   UNK A   0      10.373  -2.272  23.759  0.00  0.00    +0.146 HD
BRANCH  22  24
ATOM     24  C   UNK A   0       8.510  -2.418  22.970  0.00  0.00    +0.125 C 
BRANCH  24  41
ATOM     25  C   UNK A   0       8.268  -3.564  26.195  0.00  0.00    +0.130 C 
ATOM     26  N   UNK A   0       7.371  -3.230  25.099  0.00  0.00    -0.320 N 
ATOM     27  C   UNK A   0       6.215  -3.987  24.767  0.00  0.00    +0.135 A 
ATOM     28  C   UNK A   0       6.054  -5.453  25.203  0.00  0.00    +0.298 A 
ATOM     29  N   UNK A   0       5.186  -6.255  24.483  0.00  0.00    -0.176 NA
ATOM     30  C   UNK A   0       4.379  -5.686  23.656  0.00  0.00    +0.195 A 
ATOM     31  N   UNK A   0       4.322  -4.357  23.419  0.00  0.00    -0.315 N 
ATOM     32  H   UNK A   0       3.837  -4.020  22.602  0.00  0.00    +0.170 HD
ATOM     33  N   UNK A   0       3.511  -6.411  22.908  0.00  0.00    -0.329 N 
ATOM     34  H   UNK A   0       2.589  -6.001  22.815  0.00  0.00    +0.145 HD
ATOM     35  H   UNK A   0       3.453  -7.366  23.250  0.00  0.00    +0.145 HD
ATOM     36  O   UNK A   0       6.742  -5.915  26.109  0.00  0.00    -0.264 OA
ATOM     37  C   UNK A   0       5.273  -3.508  23.910  0.00  0.00    +0.126 A 
ATOM     38  N   UNK A   0       5.344  -2.205  23.400  0.00  0.00    -0.327 N 
ATOM     39  H   UNK A   0       5.416  -2.266  22.383  0.00  0.00    +0.148 HD
ATOM     40  C   UNK A   0       6.386  -1.291  23.919  0.00  0.00    +0.126 C 
ATOM     41  C   UNK A   0       7.703  -2.036  24.260  0.00  0.00    +0.107 C 
ENDBRANCH  24  41
ENDBRANCH  22  24
ENDBRANCH   1  22
TORSDOF 11
ENDMDL
