MODEL 1
REMARK VINA RESULT:      -6.0      0.000      0.000
REMARK  Name = 
REMARK  3 active torsions:
REMARK  status: ('A' for Active; 'I' for Inactive)
REMARK    1  A    between atoms: N_6  and  C_9
REMARK    2  A    between atoms: C_12  and  C_14
REMARK    3  A    between atoms: C_14  and  O_15
REMARK                            x       y       z     vdW  Elec       q    Type
REMARK                         _______ _______ _______ _____ _____    ______ ____
ROOT
ATOM      1  N   UNL     1      10.186   2.236  21.497  0.00  0.00    -0.343 N 
ATOM      2  H   UNL     1      10.556   2.110  20.563  0.00  0.00    +0.144 HD
ATOM      3  H   UNL     1      10.700   2.920  22.046  0.00  0.00    +0.144 HD
ATOM      4  C   UNL     1       9.884   1.113  22.215  0.00  0.00    +0.123 A 
ATOM      5  C   UNL     1       9.453  -0.108  21.509  0.00  0.00    +0.061 A 
ATOM      6  C   UNL     1       9.198  -1.166  22.276  0.00  0.00    +0.096 A 
ATOM      7  N   UNL     1       9.327  -1.097  23.645  0.00  0.00    -0.270 N 
ATOM      8  C   UNL     1       9.714   0.088  24.278  0.00  0.00    +0.352 A 
ATOM      9  O   UNL     1       9.787   0.145  25.505  0.00  0.00    -0.244 OA
ATOM     10  N   UNL     1      10.003   1.185  23.503  0.00  0.00    -0.178 NA
ENDROOT
BRANCH   7  11
ATOM     11  C   UNL     1       9.022  -2.225  24.512  0.00  0.00    +0.252 C 
ATOM     12  O   UNL     1       9.538  -3.456  23.983  0.00  0.00    -0.323 OA
ATOM     13  C   UNL     1       8.571  -4.455  24.313  0.00  0.00    +0.278 C 
ATOM     14  O   UNL     1       7.472  -3.872  25.030  0.00  0.00    -0.345 OA
ATOM     15  C   UNL     1       7.535  -2.489  24.679  0.00  0.00    +0.217 C 
BRANCH  13  16
ATOM     16  C   UNL     1       9.193  -5.559  25.175  0.00  0.00    +0.217 C 
BRANCH  16  17
ATOM     17  O   UNL     1      10.608  -5.399  25.272  0.00  0.00    -0.390 OA
ATOM     18  H   UNL     1      10.953  -6.262  25.572  0.00  0.00    +0.210 HD
ENDBRANCH  16  17
ENDBRANCH  13  16
ENDBRANCH   7  11
TORSDOF 3
ENDMDL
MODEL 2
REMARK VINA RESULT:      -5.7      2.475      5.545
REMARK  Name = 
REMARK  3 active torsions:
REMARK  status: ('A' for Active; 'I' for Inactive)
REMARK    1  A    between atoms: N_6  and  C_9
REMARK    2  A    between atoms: C_12  and  C_14
REMARK    3  A    between atoms: C_14  and  O_15
REMARK                            x       y       z     vdW  Elec       q    Type
REMARK                         _______ _______ _______ _____ _____    ______ ____
ROOT
ATOM      1  N   UNL     1       9.229  -5.320  26.059  0.00  0.00    -0.343 N 
ATOM      2  H   UNL     1       9.107  -5.397  27.061  0.00  0.00    +0.144 HD
ATOM      3  H   UNL     1      10.017  -5.857  25.706  0.00  0.00    +0.144 HD
ATOM      4  C   UNL     1       9.161  -4.071  25.507  0.00  0.00    +0.123 A 
ATOM      5  C   UNL     1       8.310  -3.043  26.135  0.00  0.00    +0.061 A 
ATOM      6  C   UNL     1       8.314  -1.847  25.551  0.00  0.00    +0.096 A 
ATOM      7  N   UNL     1       9.068  -1.610  24.424  0.00  0.00    -0.270 N 
ATOM      8  C   UNL     1       9.842  -2.620  23.845  0.00  0.00    +0.352 A 
ATOM      9  O   UNL     1      10.480  -2.403  22.815  0.00  0.00    -0.244 OA
ATOM     10  N   UNL     1       9.870  -3.855  24.444  0.00  0.00    -0.178 NA
ENDROOT
BRANCH   7  11
ATOM     11  C   UNL     1       9.065  -0.324  23.744  0.00  0.00    +0.252 C 
ATOM     12  O   UNL     1      10.193   0.480  24.123  0.00  0.00    -0.323 OA
ATOM     13  C   UNL     1       9.714   1.826  24.159  0.00  0.00    +0.278 C 
ATOM     14  O   UNL     1       8.321   1.872  23.814  0.00  0.00    -0.345 OA
ATOM     15  C   UNL     1       7.864   0.545  24.075  0.00  0.00    +0.217 C 
BRANCH  13  16
ATOM     16  C   UNL     1      10.495   2.714  23.185  0.00  0.00    +0.217 C 
BRANCH  16  17
ATOM     17  O   UNL     1      10.231   2.346  21.831  0.00  0.00    -0.390 OA
ATOM     18  H   UNL     1      10.525   1.417  21.746  0.00  0.00    +0.210 HD
ENDBRANCH  16  17
ENDBRANCH  13  16
ENDBRANCH   7  11
TORSDOF 3
ENDMDL
MODEL 3
REMARK VINA RESULT:      -5.7      2.711      5.521
REMARK  Name = 
REMARK  3 active torsions:
REMARK  status: ('A' for Active; 'I' for Inactive)
REMARK    1  A    between atoms: N_6  and  C_9
REMARK    2  A    between atoms: C_12  and  C_14
REMARK    3  A    between atoms: C_14  and  O_15
REMARK                            x       y       z     vdW  Elec       q    Type
REMARK                         _______ _______ _______ _____ _____    ______ ____
ROOT
ATOM      1  N   UNL     1       8.193  -5.792  26.962  0.00  0.00    -0.343 N 
ATOM      2  H   UNL     1       8.253  -6.654  26.435  0.00  0.00    +0.144 HD
ATOM      3  H   UNL     1       7.381  -5.746  27.572  0.00  0.00    +0.144 HD
ATOM      4  C   UNL     1       8.404  -4.622  26.287  0.00  0.00    +0.123 A 
ATOM      5  C   UNL     1       9.309  -4.606  25.122  0.00  0.00    +0.061 A 
ATOM      6  C   UNL     1       9.445  -3.434  24.505  0.00  0.00    +0.096 A 
ATOM      7  N   UNL     1       8.778  -2.316  24.953  0.00  0.00    -0.270 N 
ATOM      8  C   UNL     1       7.948  -2.367  26.076  0.00  0.00    +0.352 A 
ATOM      9  O   UNL     1       7.390  -1.351  26.487  0.00  0.00    -0.244 OA
ATOM     10  N   UNL     1       7.777  -3.572  26.714  0.00  0.00    -0.178 NA
ENDROOT
BRANCH   7  11
ATOM     11  C   UNL     1       8.934  -1.015  24.320  0.00  0.00    +0.252 C 
ATOM     12  O   UNL     1       8.986  -1.121  22.889  0.00  0.00    -0.323 OA
ATOM     13  C   UNL     1       9.920  -0.129  22.461  0.00  0.00    +0.278 C 
ATOM     14  O   UNL     1      10.446   0.586  23.590  0.00  0.00    -0.345 OA
ATOM     15  C   UNL     1      10.225  -0.303  24.686  0.00  0.00    +0.217 C 
BRANCH  13  16
ATOM     16  C   UNL     1       9.261   0.872  21.506  0.00  0.00    +0.217 C 
BRANCH  16  17
ATOM     17  O   UNL     1       9.939   2.127  21.530  0.00  0.00    -0.390 OA
ATOM     18  H   UNL     1      10.890   1.914  21.608  0.00  0.00    +0.210 HD
ENDBRANCH  16  17
ENDBRANCH  13  16
ENDBRANCH   7  11
TORSDOF 3
ENDMDL
MODEL 4
REMARK VINA RESULT:      -5.6      2.152      2.622
REMARK  Name = 
REMARK  3 active torsions:
REMARK  status: ('A' for Active; 'I' for Inactive)
REMARK    1  A    between atoms: N_6  and  C_9
REMARK    2  A    between atoms: C_12  and  C_14
REMARK    3  A    between atoms: C_14  and  O_15
REMARK                            x       y       z     vdW  Elec       q    Type
REMARK                         _______ _______ _______ _____ _____    ______ ____
ROOT
ATOM      1  N   UNL     1       9.205   2.440  21.678  0.00  0.00    -0.343 N 
ATOM      2  H   UNL     1       8.435   2.986  21.312  0.00  0.00    +0.144 HD
ATOM      3  H   UNL     1      10.058   2.530  21.134  0.00  0.00    +0.144 HD
ATOM      4  C   UNL     1       8.948   1.146  22.034  0.00  0.00    +0.123 A 
ATOM      5  C   UNL     1       7.605   0.777  22.520  0.00  0.00    +0.061 A 
ATOM      6  C   UNL     1       7.428  -0.507  22.826  0.00  0.00    +0.096 A 
ATOM      7  N   UNL     1       8.455  -1.415  22.698  0.00  0.00    -0.270 N 
ATOM      8  C   UNL     1       9.722  -1.020  22.257  0.00  0.00    +0.352 A 
ATOM      9  O   UNL     1      10.640  -1.835  22.185  0.00  0.00    -0.244 OA
ATOM     10  N   UNL     1       9.919   0.296  21.915  0.00  0.00    -0.178 NA
ENDROOT
BRANCH   7  11
ATOM     11  C   UNL     1       8.302  -2.816  23.057  0.00  0.00    +0.252 C 
ATOM     12  O   UNL     1       7.510  -3.529  22.094  0.00  0.00    -0.323 OA
ATOM     13  C   UNL     1       6.741  -4.471  22.845  0.00  0.00    +0.278 C 
ATOM     14  O   UNL     1       7.038  -4.356  24.246  0.00  0.00    -0.345 OA
ATOM     15  C   UNL     1       7.574  -3.039  24.372  0.00  0.00    +0.217 C 
BRANCH  13  16
ATOM     16  C   UNL     1       7.035  -5.905  22.393  0.00  0.00    +0.217 C 
BRANCH  16  17
ATOM     17  O   UNL     1       5.920  -6.461  21.696  0.00  0.00    -0.390 OA
ATOM     18  H   UNL     1       6.097  -7.421  21.634  0.00  0.00    +0.210 HD
ENDBRANCH  16  17
ENDBRANCH  13  16
ENDBRANCH   7  11
TORSDOF 3
ENDMDL
MODEL 5
REMARK VINA RESULT:      -5.5      1.539      1.747
REMARK  Name = 
REMARK  3 active torsions:
REMARK  status: ('A' for Active; 'I' for Inactive)
REMARK    1  A    between atoms: N_6  and  C_9
REMARK    2  A    between atoms: C_12  and  C_14
REMARK    3  A    between atoms: C_14  and  O_15
REMARK                            x       y       z     vdW  Elec       q    Type
REMARK                         _______ _______ _______ _____ _____    ______ ____
ROOT
ATOM      1  N   UNL     1       8.701   1.915  21.106  0.00  0.00    -0.343 N 
ATOM      2  H   UNL     1       7.779   2.316  20.986  0.00  0.00    +0.144 HD
ATOM      3  H   UNL     1       9.180   1.734  20.229  0.00  0.00    +0.144 HD
ATOM      4  C   UNL     1       8.831   0.884  21.994  0.00  0.00    +0.123 A 
ATOM      5  C   UNL     1       7.937   0.815  23.166  0.00  0.00    +0.061 A 
ATOM      6  C   UNL     1       8.112  -0.231  23.971  0.00  0.00    +0.096 A 
ATOM      7  N   UNL     1       9.082  -1.173  23.710  0.00  0.00    -0.270 N 
ATOM      8  C   UNL     1       9.925  -1.057  22.602  0.00  0.00    +0.352 A 
ATOM      9  O   UNL     1      10.812  -1.886  22.404  0.00  0.00    -0.244 OA
ATOM     10  N   UNL     1       9.747   0.002  21.746  0.00  0.00    -0.178 NA
ENDROOT
BRANCH   7  11
ATOM     11  C   UNL     1       9.319  -2.307  24.590  0.00  0.00    +0.252 C 
ATOM     12  O   UNL     1       8.775  -3.521  24.051  0.00  0.00    -0.323 OA
ATOM     13  C   UNL     1       8.286  -4.258  25.174  0.00  0.00    +0.278 C 
ATOM     14  O   UNL     1       8.514  -3.529  26.390  0.00  0.00    -0.345 OA
ATOM     15  C   UNL     1       8.658  -2.178  25.952  0.00  0.00    +0.217 C 
BRANCH  13  16
ATOM     16  C   UNL     1       8.975  -5.622  25.279  0.00  0.00    +0.217 C 
BRANCH  16  17
ATOM     17  O   UNL     1      10.392  -5.475  25.371  0.00  0.00    -0.390 OA
ATOM     18  H   UNL     1      10.725  -5.528  24.453  0.00  0.00    +0.210 HD
ENDBRANCH  16  17
ENDBRANCH  13  16
ENDBRANCH   7  11
TORSDOF 3
ENDMDL
MODEL 6
REMARK VINA RESULT:      -5.5      1.890      2.574
REMARK  Name = 
REMARK  3 active torsions:
REMARK  status: ('A' for Active; 'I' for Inactive)
REMARK    1  A    between atoms: N_6  and  C_9
REMARK    2  A    between atoms: C_12  and  C_14
REMARK    3  A    between atoms: C_14  and  O_15
REMARK                            x       y       z     vdW  Elec       q    Type
REMARK                         _______ _______ _______ _____ _____    ______ ____
ROOT
ATOM      1  N   UNL     1      10.495   3.452  23.098  0.00  0.00    -0.343 N 
ATOM      2  H   UNL     1      10.307   3.957  23.955  0.00  0.00    +0.144 HD
ATOM      3  H   UNL     1      10.137   3.919  22.268  0.00  0.00    +0.144 HD
ATOM      4  C   UNL     1      10.246   2.108  23.088  0.00  0.00    +0.123 A 
ATOM      5  C   UNL     1      10.380   1.334  24.336  0.00  0.00    +0.061 A 
ATOM      6  C   UNL     1      10.099   0.035  24.249  0.00  0.00    +0.096 A 
ATOM      7  N   UNL     1       9.718  -0.530  23.052  0.00  0.00    -0.270 N 
ATOM      8  C   UNL     1       9.628   0.235  21.886  0.00  0.00    +0.352 A 
ATOM      9  O   UNL     1       9.324  -0.292  20.816  0.00  0.00    -0.244 OA
ATOM     10  N   UNL     1       9.892   1.581  21.958  0.00  0.00    -0.178 NA
ENDROOT
BRANCH   7  11
ATOM     11  C   UNL     1       9.439  -1.952  22.919  0.00  0.00    +0.252 C 
ATOM     12  O   UNL     1       8.028  -2.217  22.902  0.00  0.00    -0.323 OA
ATOM     13  C   UNL     1       7.858  -3.451  23.604  0.00  0.00    +0.278 C 
ATOM     14  O   UNL     1       9.128  -3.952  24.053  0.00  0.00    -0.345 OA
ATOM     15  C   UNL     1       9.961  -2.792  24.072  0.00  0.00    +0.217 C 
BRANCH  13  16
ATOM     16  C   UNL     1       7.200  -4.506  22.709  0.00  0.00    +0.217 C 
BRANCH  16  17
ATOM     17  O   UNL     1       7.968  -5.709  22.683  0.00  0.00    -0.390 OA
ATOM     18  H   UNL     1       8.855  -5.451  22.366  0.00  0.00    +0.210 HD
ENDBRANCH  16  17
ENDBRANCH  13  16
ENDBRANCH   7  11
TORSDOF 3
ENDMDL
MODEL 7
REMARK VINA RESULT:      -5.4      3.750      6.063
REMARK  Name = 
REMARK  3 active torsions:
REMARK  status: ('A' for Active; 'I' for Inactive)
REMARK    1  A    between atoms: N_6  and  C_9
REMARK    2  A    between atoms: C_12  and  C_14
REMARK    3  A    between atoms: C_14  and  O_15
REMARK                            x       y       z     vdW  Elec       q    Type
REMARK                         _______ _______ _______ _____ _____    ______ ____
ROOT
ATOM      1  N   UNL     1       4.208  -7.124  23.747  0.00  0.00    -0.343 N 
ATOM      2  H   UNL     1       4.533  -7.824  24.402  0.00  0.00    +0.144 HD
ATOM      3  H   UNL     1       3.831  -7.518  22.889  0.00  0.00    +0.144 HD
ATOM      4  C   UNL     1       5.021  -6.050  23.514  0.00  0.00    +0.123 A 
ATOM      5  C   UNL     1       5.916  -5.569  24.583  0.00  0.00    +0.061 A 
ATOM      6  C   UNL     1       6.693  -4.534  24.272  0.00  0.00    +0.096 A 
ATOM      7  N   UNL     1       6.639  -3.957  23.022  0.00  0.00    -0.270 N 
ATOM      8  C   UNL     1       5.758  -4.427  22.044  0.00  0.00    +0.352 A 
ATOM      9  O   UNL     1       5.693  -3.877  20.946  0.00  0.00    -0.244 OA
ATOM     10  N   UNL     1       4.964  -5.509  22.338  0.00  0.00    -0.178 NA
ENDROOT
BRANCH   7  11
ATOM     11  C   UNL     1       7.449  -2.803  22.664  0.00  0.00    +0.252 C 
ATOM     12  O   UNL     1       8.766  -2.881  23.233  0.00  0.00    -0.323 OA
ATOM     13  C   UNL     1       9.117  -1.540  23.580  0.00  0.00    +0.278 C 
ATOM     14  O   UNL     1       8.052  -0.638  23.241  0.00  0.00    -0.345 OA
ATOM     15  C   UNL     1       6.902  -1.482  23.178  0.00  0.00    +0.217 C 
BRANCH  13  16
ATOM     16  C   UNL     1      10.389  -1.098  22.850  0.00  0.00    +0.217 C 
BRANCH  16  17
ATOM     17  O   UNL     1      10.369  -1.516  21.485  0.00  0.00    -0.390 OA
ATOM     18  H   UNL     1      11.304  -1.549  21.203  0.00  0.00    +0.210 HD
ENDBRANCH  16  17
ENDBRANCH  13  16
ENDBRANCH   7  11
TORSDOF 3
ENDMDL
MODEL 8
REMARK VINA RESULT:      -5.4      2.729      5.322
REMARK  Name = 
REMARK  3 active torsions:
REMARK  status: ('A' for Active; 'I' for Inactive)
REMARK    1  A    between atoms: N_6  and  C_9
REMARK    2  A    between atoms: C_12  and  C_14
REMARK    3  A    between atoms: C_14  and  O_15
REMARK                            x       y       z     vdW  Elec       q    Type
REMARK                         _______ _______ _______ _____ _____    ______ ____
ROOT
ATOM      1  N   UNL     1       5.780  -6.220  22.306  0.00  0.00    -0.343 N 
ATOM      2  H   UNL     1       4.813  -6.034  22.072  0.00  0.00    +0.144 HD
ATOM      3  H   UNL     1       5.895  -6.974  22.978  0.00  0.00    +0.144 HD
ATOM      4  C   UNL     1       6.581  -5.148  22.582  0.00  0.00    +0.123 A 
ATOM      5  C   UNL     1       6.311  -3.850  21.935  0.00  0.00    +0.061 A 
ATOM      6  C   UNL     1       7.122  -2.850  22.273  0.00  0.00    +0.096 A 
ATOM      7  N   UNL     1       8.151  -3.042  23.168  0.00  0.00    -0.270 N 
ATOM      8  C   UNL     1       8.389  -4.295  23.741  0.00  0.00    +0.352 A 
ATOM      9  O   UNL     1       9.336  -4.460  24.509  0.00  0.00    -0.244 OA
ATOM     10  N   UNL     1       7.550  -5.335  23.422  0.00  0.00    -0.178 NA
ENDROOT
BRANCH   7  11
ATOM     11  C   UNL     1       9.074  -1.978  23.530  0.00  0.00    +0.252 C 
ATOM     12  O   UNL     1       8.381  -0.779  23.912  0.00  0.00    -0.323 OA
ATOM     13  C   UNL     1       9.177   0.301  23.421  0.00  0.00    +0.278 C 
ATOM     14  O   UNL     1      10.342  -0.200  22.747  0.00  0.00    -0.345 OA
ATOM     15  C   UNL     1       9.980  -1.536  22.394  0.00  0.00    +0.217 C 
BRANCH  13  16
ATOM     16  C   UNL     1       9.624   1.218  24.564  0.00  0.00    +0.217 C 
BRANCH  16  17
ATOM     17  O   UNL     1      10.547   0.552  25.425  0.00  0.00    -0.390 OA
ATOM     18  H   UNL     1      10.257   0.757  26.336  0.00  0.00    +0.210 HD
ENDBRANCH  16  17
ENDBRANCH  13  16
ENDBRANCH   7  11
TORSDOF 3
ENDMDL
MODEL 9
REMARK VINA RESULT:      -5.3      3.524      6.106
REMARK  Name = 
REMARK  3 active torsions:
REMARK  status: ('A' for Active; 'I' for Inactive)
REMARK    1  A    between atoms: N_6  and  C_9
REMARK    2  A    between atoms: C_12  and  C_14
REMARK    3  A    between atoms: C_14  and  O_15
REMARK                            x       y       z     vdW  Elec       q    Type
REMARK                         _______ _______ _______ _____ _____    ______ ____
ROOT
ATOM      1  N   UNL     1       5.707  -6.576  28.396  0.00  0.00    -0.343 N 
ATOM      2  H   UNL     1       4.715  -6.419  28.521  0.00  0.00    +0.144 HD
ATOM      3  H   UNL     1       6.243  -6.483  29.255  0.00  0.00    +0.144 HD
ATOM      4  C   UNL     1       6.315  -5.966  27.335  0.00  0.00    +0.123 A 
ATOM      5  C   UNL     1       5.542  -5.701  26.107  0.00  0.00    +0.061 A 
ATOM      6  C   UNL     1       6.199  -5.084  25.126  0.00  0.00    +0.096 A 
ATOM      7  N   UNL     1       7.523  -4.733  25.271  0.00  0.00    -0.270 N 
ATOM      8  C   UNL     1       8.227  -5.025  26.442  0.00  0.00    +0.352 A 
ATOM      9  O   UNL     1       9.420  -4.740  26.541  0.00  0.00    -0.244 OA
ATOM     10  N   UNL     1       7.562  -5.641  27.474  0.00  0.00    -0.178 NA
ENDROOT
BRANCH   7  11
ATOM     11  C   UNL     1       8.276  -4.090  24.205  0.00  0.00    +0.252 C 
ATOM     12  O   UNL     1       8.582  -2.723  24.520  0.00  0.00    -0.323 OA
ATOM     13  C   UNL     1       8.492  -2.011  23.284  0.00  0.00    +0.278 C 
ATOM     14  O   UNL     1       8.138  -2.903  22.216  0.00  0.00    -0.345 OA
ATOM     15  C   UNL     1       7.527  -4.006  22.886  0.00  0.00    +0.217 C 
BRANCH  13  16
ATOM     16  C   UNL     1       9.823  -1.334  22.942  0.00  0.00    +0.217 C 
BRANCH  16  17
ATOM     17  O   UNL     1      10.195  -1.588  21.587  0.00  0.00    -0.390 OA
ATOM     18  H   UNL     1       9.667  -2.361  21.308  0.00  0.00    +0.210 HD
ENDBRANCH  16  17
ENDBRANCH  13  16
ENDBRANCH   7  11
TORSDOF 3
ENDMDL
