MODEL 1
REMARK VINA RESULT:      -7.0      0.000      0.000
REMARK  Name = 
REMARK  5 active torsions:
REMARK  status: ('A' for Active; 'I' for Inactive)
REMARK    1  A    between atoms: O_1  and  C_2
REMARK    2  A    between atoms: C_2  and  C_3
REMARK    3  A    between atoms: C_6  and  C_14
REMARK    4  A    between atoms: C_8  and  O_10
REMARK    5  A    between atoms: C_11  and  O_13
REMARK                            x       y       z     vdW  Elec       q    Type
REMARK                         _______ _______ _______ _____ _____    ______ ____
ROOT
ATOM      1  C   UNL     1       8.763  -4.599  26.516  0.00  0.00    +0.175 C 
ATOM      2  C   UNL     1       9.174  -4.984  25.094  0.00  0.00    +0.177 C 
ATOM      3  C   UNL     1       8.973  -3.720  24.261  0.00  0.00    +0.179 C 
ATOM      4  C   UNL     1       8.454  -2.677  25.265  0.00  0.00    +0.183 C 
ATOM      5  O   UNL     1       8.832  -3.160  26.572  0.00  0.00    -0.361 OA
ENDROOT
BRANCH   4   6
ATOM      6  C   UNL     1       8.992  -1.307  24.983  0.00  0.00    +0.027 A 
ATOM      7  C   UNL     1       9.188  -0.739  23.707  0.00  0.00    +0.101 A 
ATOM      8  N   UNL     1       8.938  -1.338  22.467  0.00  0.00    -0.235 NA
ATOM      9  C   UNL     1       9.211  -0.554  21.467  0.00  0.00    +0.199 A 
ATOM     10  N   UNL     1       9.706   0.732  21.538  0.00  0.00    -0.312 N 
ATOM     11  H   UNL     1       9.891   1.261  20.702  0.00  0.00    +0.170 HD
ATOM     12  C   UNL     1       9.980   1.361  22.729  0.00  0.00    +0.275 A 
ATOM     13  O   UNL     1      10.428   2.500  22.794  0.00  0.00    -0.266 OA
ATOM     14  C   UNL     1       9.681   0.527  23.842  0.00  0.00    +0.130 A 
ATOM     15  N   UNL     1       9.807   0.782  25.178  0.00  0.00    -0.355 N 
ATOM     16  H   UNL     1      10.146   1.649  25.576  0.00  0.00    +0.166 HD
ATOM     17  C   UNL     1       9.392  -0.327  25.883  0.00  0.00    +0.091 A 
ENDBRANCH   4   6
BRANCH   2  18
ATOM     18  O   UNL     1      10.572  -5.342  25.097  0.00  0.00    -0.386 OA
ATOM     19  H   UNL     1      11.024  -4.754  24.464  0.00  0.00    +0.210 HD
ENDBRANCH   2  18
BRANCH   3  20
ATOM     20  O   UNL     1       8.068  -3.932  23.175  0.00  0.00    -0.386 OA
ATOM     21  H   UNL     1       8.350  -3.310  22.471  0.00  0.00    +0.210 HD
ENDBRANCH   3  20
BRANCH   1  22
ATOM     22  C   UNL     1       7.360  -5.097  26.896  0.00  0.00    +0.190 C 
BRANCH  22  23
ATOM     23  O   UNL     1       7.393  -6.038  27.963  0.00  0.00    -0.392 OA
ATOM     24  H   UNL     1       8.302  -6.057  28.310  0.00  0.00    +0.210 HD
ENDBRANCH  22  23
ENDBRANCH   1  22
TORSDOF 5
ENDMDL
MODEL 2
REMARK VINA RESULT:      -6.8      2.488      5.891
REMARK  Name = 
REMARK  5 active torsions:
REMARK  status: ('A' for Active; 'I' for Inactive)
REMARK    1  A    between atoms: O_1  and  C_2
REMARK    2  A    between atoms: C_2  and  C_3
REMARK    3  A    between atoms: C_6  and  C_14
REMARK    4  A    between atoms: C_8  and  O_10
REMARK    5  A    between atoms: C_11  and  O_13
REMARK                            x       y       z     vdW  Elec       q    Type
REMARK                         _______ _______ _______ _____ _____    ______ ____
ROOT
ATOM      1  C   UNL     1       8.854  -0.356  22.000  0.00  0.00    +0.175 C 
ATOM      2  C   UNL     1      10.247  -0.529  22.607  0.00  0.00    +0.177 C 
ATOM      3  C   UNL     1      10.009  -0.804  24.090  0.00  0.00    +0.179 C 
ATOM      4  C   UNL     1       8.479  -0.772  24.246  0.00  0.00    +0.183 C 
ATOM      5  O   UNL     1       7.940  -0.983  22.923  0.00  0.00    -0.361 OA
ENDROOT
BRANCH   4   6
ATOM      6  C   UNL     1       7.992  -1.789  25.231  0.00  0.00    +0.027 A 
ATOM      7  C   UNL     1       8.467  -3.111  25.363  0.00  0.00    +0.101 A 
ATOM      8  N   UNL     1       9.463  -3.732  24.600  0.00  0.00    -0.235 NA
ATOM      9  C   UNL     1       9.686  -4.958  24.969  0.00  0.00    +0.199 A 
ATOM     10  N   UNL     1       9.047  -5.645  25.980  0.00  0.00    -0.312 N 
ATOM     11  H   UNL     1       9.288  -6.599  26.189  0.00  0.00    +0.170 HD
ATOM     12  C   UNL     1       8.055  -5.086  26.750  0.00  0.00    +0.275 A 
ATOM     13  O   UNL     1       7.480  -5.698  27.643  0.00  0.00    -0.266 OA
ATOM     14  C   UNL     1       7.796  -3.739  26.373  0.00  0.00    +0.130 A 
ATOM     15  N   UNL     1       6.900  -2.848  26.891  0.00  0.00    -0.355 N 
ATOM     16  H   UNL     1       6.267  -3.038  27.658  0.00  0.00    +0.166 HD
ATOM     17  C   UNL     1       7.008  -1.659  26.204  0.00  0.00    +0.091 A 
ENDBRANCH   4   6
BRANCH   2  18
ATOM     18  O   UNL     1      10.878  -1.675  22.000  0.00  0.00    -0.386 OA
ATOM     19  H   UNL     1      11.828  -1.472  21.913  0.00  0.00    +0.210 HD
ENDBRANCH   2  18
BRANCH   3  20
ATOM     20  O   UNL     1      10.663   0.155  24.925  0.00  0.00    -0.386 OA
ATOM     21  H   UNL     1      10.307   1.027  24.654  0.00  0.00    +0.210 HD
ENDBRANCH   3  20
BRANCH   1  22
ATOM     22  C   UNL     1       8.474   1.113  21.764  0.00  0.00    +0.190 C 
BRANCH  22  23
ATOM     23  O   UNL     1       9.608   1.924  21.477  0.00  0.00    -0.392 OA
ATOM     24  H   UNL     1       9.669   2.601  22.172  0.00  0.00    +0.210 HD
ENDBRANCH  22  23
ENDBRANCH   1  22
TORSDOF 5
ENDMDL
MODEL 3
REMARK VINA RESULT:      -6.6      1.530      2.503
REMARK  Name = 
REMARK  5 active torsions:
REMARK  status: ('A' for Active; 'I' for Inactive)
REMARK    1  A    between atoms: O_1  and  C_2
REMARK    2  A    between atoms: C_2  and  C_3
REMARK    3  A    between atoms: C_6  and  C_14
REMARK    4  A    between atoms: C_8  and  O_10
REMARK    5  A    between atoms: C_11  and  O_13
REMARK                            x       y       z     vdW  Elec       q    Type
REMARK                         _______ _______ _______ _____ _____    ______ ____
ROOT
ATOM      1  C   UNL     1       6.952  -4.836  23.528  0.00  0.00    +0.175 C 
ATOM      2  C   UNL     1       7.723  -5.288  24.768  0.00  0.00    +0.177 C 
ATOM      3  C   UNL     1       8.902  -4.325  24.884  0.00  0.00    +0.179 C 
ATOM      4  C   UNL     1       8.734  -3.368  23.691  0.00  0.00    +0.183 C 
ATOM      5  O   UNL     1       7.351  -3.470  23.290  0.00  0.00    -0.361 OA
ENDROOT
BRANCH   4   6
ATOM      6  C   UNL     1       9.129  -1.965  24.034  0.00  0.00    +0.027 A 
ATOM      7  C   UNL     1       9.301  -0.905  23.120  0.00  0.00    +0.101 A 
ATOM      8  N   UNL     1       9.156  -0.955  21.729  0.00  0.00    -0.235 NA
ATOM      9  C   UNL     1       9.372   0.193  21.160  0.00  0.00    +0.199 A 
ATOM     10  N   UNL     1       9.722   1.372  21.786  0.00  0.00    -0.312 N 
ATOM     11  H   UNL     1       9.874   2.213  21.256  0.00  0.00    +0.170 HD
ATOM     12  C   UNL     1       9.890   1.472  23.147  0.00  0.00    +0.275 A 
ATOM     13  O   UNL     1      10.209   2.516  23.704  0.00  0.00    -0.266 OA
ATOM     14  C   UNL     1       9.649   0.229  23.796  0.00  0.00    +0.130 A 
ATOM     15  N   UNL     1       9.706  -0.082  25.125  0.00  0.00    -0.355 N 
ATOM     16  H   UNL     1       9.937   0.567  25.866  0.00  0.00    +0.166 HD
ATOM     17  C   UNL     1       9.392  -1.414  25.283  0.00  0.00    +0.091 A 
ENDBRANCH   4   6
BRANCH   2  18
ATOM     18  O   UNL     1       6.869  -5.145  25.922  0.00  0.00    -0.386 OA
ATOM     19  H   UNL     1       6.598  -4.210  25.969  0.00  0.00    +0.210 HD
ENDBRANCH   2  18
BRANCH   3  20
ATOM     20  O   UNL     1      10.157  -5.009  24.864  0.00  0.00    -0.386 OA
ATOM     21  H   UNL     1      10.271  -5.323  23.942  0.00  0.00    +0.210 HD
ENDBRANCH   3  20
BRANCH   1  22
ATOM     22  C   UNL     1       7.223  -5.709  22.294  0.00  0.00    +0.190 C 
BRANCH  22  23
ATOM     23  O   UNL     1       6.221  -6.701  22.104  0.00  0.00    -0.392 OA
ATOM     24  H   UNL     1       5.384  -6.242  21.919  0.00  0.00    +0.210 HD
ENDBRANCH  22  23
ENDBRANCH   1  22
TORSDOF 5
ENDMDL
MODEL 4
REMARK VINA RESULT:      -6.6      4.311      7.300
REMARK  Name = 
REMARK  5 active torsions:
REMARK  status: ('A' for Active; 'I' for Inactive)
REMARK    1  A    between atoms: O_1  and  C_2
REMARK    2  A    between atoms: C_2  and  C_3
REMARK    3  A    between atoms: C_6  and  C_14
REMARK    4  A    between atoms: C_8  and  O_10
REMARK    5  A    between atoms: C_11  and  O_13
REMARK                            x       y       z     vdW  Elec       q    Type
REMARK                         _______ _______ _______ _____ _____    ______ ____
ROOT
ATOM      1  C   UNL     1       8.971  -3.419  24.834  0.00  0.00    +0.175 C 
ATOM      2  C   UNL     1       9.429  -4.604  25.685  0.00  0.00    +0.177 C 
ATOM      3  C   UNL     1       8.163  -5.409  25.968  0.00  0.00    +0.179 C 
ATOM      4  C   UNL     1       7.045  -4.630  25.255  0.00  0.00    +0.183 C 
ATOM      5  O   UNL     1       7.701  -3.803  24.269  0.00  0.00    -0.361 OA
ENDROOT
BRANCH   4   6
ATOM      6  C   UNL     1       6.021  -5.540  24.649  0.00  0.00    +0.027 A 
ATOM      7  C   UNL     1       5.000  -6.220  25.344  0.00  0.00    +0.101 A 
ATOM      8  N   UNL     1       4.752  -6.193  26.721  0.00  0.00    -0.235 NA
ATOM      9  C   UNL     1       3.728  -6.919  27.061  0.00  0.00    +0.199 A 
ATOM     10  N   UNL     1       2.933  -7.670  26.219  0.00  0.00    -0.312 N 
ATOM     11  H   UNL     1       2.162  -8.206  26.580  0.00  0.00    +0.170 HD
ATOM     12  C   UNL     1       3.142  -7.740  24.863  0.00  0.00    +0.275 A 
ATOM     13  O   UNL     1       2.442  -8.414  24.115  0.00  0.00    -0.266 OA
ATOM     14  C   UNL     1       4.252  -6.946  24.462  0.00  0.00    +0.130 A 
ATOM     15  N   UNL     1       4.774  -6.748  23.216  0.00  0.00    -0.355 N 
ATOM     16  H   UNL     1       4.418  -7.160  22.362  0.00  0.00    +0.166 HD
ATOM     17  C   UNL     1       5.851  -5.895  23.316  0.00  0.00    +0.091 A 
ENDBRANCH   4   6
BRANCH   2  18
ATOM     18  O   UNL     1      10.345  -5.404  24.910  0.00  0.00    -0.386 OA
ATOM     19  H   UNL     1      10.795  -4.807  24.284  0.00  0.00    +0.210 HD
ENDBRANCH   2  18
BRANCH   3  20
ATOM     20  O   UNL     1       7.920  -5.552  27.370  0.00  0.00    -0.386 OA
ATOM     21  H   UNL     1       8.748  -5.921  27.744  0.00  0.00    +0.210 HD
ENDBRANCH   3  20
BRANCH   1  22
ATOM     22  C   UNL     1       8.844  -2.112  25.632  0.00  0.00    +0.190 C 
BRANCH  22  23
ATOM     23  O   UNL     1       9.463  -1.014  24.972  0.00  0.00    -0.392 OA
ATOM     24  H   UNL     1       9.517  -1.233  24.026  0.00  0.00    +0.210 HD
ENDBRANCH  22  23
ENDBRANCH   1  22
TORSDOF 5
ENDMDL
MODEL 5
REMARK VINA RESULT:      -6.5      2.607      6.156
REMARK  Name = 
REMARK  5 active torsions:
REMARK  status: ('A' for Active; 'I' for Inactive)
REMARK    1  A    between atoms: O_1  and  C_2
REMARK    2  A    between atoms: C_2  and  C_3
REMARK    3  A    between atoms: C_6  and  C_14
REMARK    4  A    between atoms: C_8  and  O_10
REMARK    5  A    between atoms: C_11  and  O_13
REMARK                            x       y       z     vdW  Elec       q    Type
REMARK                         _______ _______ _______ _____ _____    ______ ____
ROOT
ATOM      1  C   UNL     1       9.768   0.847  23.730  0.00  0.00    +0.175 C 
ATOM      2  C   UNL     1       8.460   1.578  24.034  0.00  0.00    +0.177 C 
ATOM      3  C   UNL     1       7.444   0.478  24.332  0.00  0.00    +0.179 C 
ATOM      4  C   UNL     1       8.239  -0.830  24.180  0.00  0.00    +0.183 C 
ATOM      5  O   UNL     1       9.631  -0.468  24.307  0.00  0.00    -0.361 OA
ENDROOT
BRANCH   4   6
ATOM      6  C   UNL     1       7.823  -1.862  25.183  0.00  0.00    +0.027 A 
ATOM      7  C   UNL     1       8.393  -3.143  25.341  0.00  0.00    +0.101 A 
ATOM      8  N   UNL     1       9.434  -3.703  24.592  0.00  0.00    -0.235 NA
ATOM      9  C   UNL     1       9.746  -4.902  24.985  0.00  0.00    +0.199 A 
ATOM     10  N   UNL     1       9.155  -5.615  26.007  0.00  0.00    -0.312 N 
ATOM     11  H   UNL     1       9.464  -6.546  26.234  0.00  0.00    +0.170 HD
ATOM     12  C   UNL     1       8.121  -5.117  26.763  0.00  0.00    +0.275 A 
ATOM     13  O   UNL     1       7.589  -5.752  27.666  0.00  0.00    -0.266 OA
ATOM     14  C   UNL     1       7.766  -3.799  26.360  0.00  0.00    +0.130 A 
ATOM     15  N   UNL     1       6.804  -2.968  26.859  0.00  0.00    -0.355 N 
ATOM     16  H   UNL     1       6.183  -3.189  27.627  0.00  0.00    +0.166 HD
ATOM     17  C   UNL     1       6.828  -1.786  26.151  0.00  0.00    +0.091 A 
ENDBRANCH   4   6
BRANCH   2  18
ATOM     18  O   UNL     1       8.646   2.393  25.210  0.00  0.00    -0.386 OA
ATOM     19  H   UNL     1       7.815   2.877  25.363  0.00  0.00    +0.210 HD
ENDBRANCH   2  18
BRANCH   3  20
ATOM     20  O   UNL     1       6.316   0.537  23.455  0.00  0.00    -0.386 OA
ATOM     21  H   UNL     1       6.110   1.490  23.356  0.00  0.00    +0.210 HD
ENDBRANCH   3  20
BRANCH   1  22
ATOM     22  C   UNL     1      10.078   0.758  22.228  0.00  0.00    +0.190 C 
BRANCH  22  23
ATOM     23  O   UNL     1       9.770   1.966  21.542  0.00  0.00    -0.392 OA
ATOM     24  H   UNL     1       8.993   2.359  21.974  0.00  0.00    +0.210 HD
ENDBRANCH  22  23
ENDBRANCH   1  22
TORSDOF 5
ENDMDL
MODEL 6
REMARK VINA RESULT:      -6.5      2.972      6.059
REMARK  Name = 
REMARK  5 active torsions:
REMARK  status: ('A' for Active; 'I' for Inactive)
REMARK    1  A    between atoms: O_1  and  C_2
REMARK    2  A    between atoms: C_2  and  C_3
REMARK    3  A    between atoms: C_6  and  C_14
REMARK    4  A    between atoms: C_8  and  O_10
REMARK    5  A    between atoms: C_11  and  O_13
REMARK                            x       y       z     vdW  Elec       q    Type
REMARK                         _______ _______ _______ _____ _____    ______ ____
ROOT
ATOM      1  C   UNL     1       9.351   1.108  23.289  0.00  0.00    +0.175 C 
ATOM      2  C   UNL     1       9.629   0.609  21.871  0.00  0.00    +0.177 C 
ATOM      3  C   UNL     1       9.333  -0.889  21.906  0.00  0.00    +0.179 C 
ATOM      4  C   UNL     1       8.898  -1.160  23.356  0.00  0.00    +0.183 C 
ATOM      5  O   UNL     1       8.498   0.117  23.898  0.00  0.00    -0.361 OA
ENDROOT
BRANCH   4   6
ATOM      6  C   UNL     1       7.806  -2.182  23.435  0.00  0.00    +0.027 A 
ATOM      7  C   UNL     1       7.737  -3.254  24.348  0.00  0.00    +0.101 A 
ATOM      8  N   UNL     1       8.671  -3.583  25.338  0.00  0.00    -0.235 NA
ATOM      9  C   UNL     1       8.322  -4.626  26.031  0.00  0.00    +0.199 A 
ATOM     10  N   UNL     1       7.182  -5.385  25.862  0.00  0.00    -0.312 N 
ATOM     11  H   UNL     1       7.001  -6.182  26.449  0.00  0.00    +0.170 HD
ATOM     12  C   UNL     1       6.241  -5.113  24.898  0.00  0.00    +0.275 A 
ATOM     13  O   UNL     1       5.232  -5.791  24.741  0.00  0.00    -0.266 OA
ATOM     14  C   UNL     1       6.595  -3.969  24.130  0.00  0.00    +0.130 A 
ATOM     15  N   UNL     1       5.929  -3.378  23.094  0.00  0.00    -0.355 N 
ATOM     16  H   UNL     1       5.044  -3.691  22.716  0.00  0.00    +0.166 HD
ATOM     17  C   UNL     1       6.656  -2.290  22.662  0.00  0.00    +0.091 A 
ENDBRANCH   4   6
BRANCH   2  18
ATOM     18  O   UNL     1       8.717   1.259  20.963  0.00  0.00    -0.386 OA
ATOM     19  H   UNL     1       9.079   2.144  20.771  0.00  0.00    +0.210 HD
ENDBRANCH   2  18
BRANCH   3  20
ATOM     20  O   UNL     1      10.467  -1.669  21.521  0.00  0.00    -0.386 OA
ATOM     21  H   UNL     1      10.564  -1.534  20.554  0.00  0.00    +0.210 HD
ENDBRANCH   3  20
BRANCH   1  22
ATOM     22  C   UNL     1      10.626   1.319  24.119  0.00  0.00    +0.190 C 
BRANCH  22  23
ATOM     23  O   UNL     1      10.574   0.642  25.369  0.00  0.00    -0.392 OA
ATOM     24  H   UNL     1      11.015  -0.217  25.257  0.00  0.00    +0.210 HD
ENDBRANCH  22  23
ENDBRANCH   1  22
TORSDOF 5
ENDMDL
MODEL 7
REMARK VINA RESULT:      -6.4      2.531      6.345
REMARK  Name = 
REMARK  5 active torsions:
REMARK  status: ('A' for Active; 'I' for Inactive)
REMARK    1  A    between atoms: O_1  and  C_2
REMARK    2  A    between atoms: C_2  and  C_3
REMARK    3  A    between atoms: C_6  and  C_14
REMARK    4  A    between atoms: C_8  and  O_10
REMARK    5  A    between atoms: C_11  and  O_13
REMARK                            x       y       z     vdW  Elec       q    Type
REMARK                         _______ _______ _______ _____ _____    ______ ____
ROOT
ATOM      1  C   UNL     1       7.818   2.014  21.850  0.00  0.00    +0.175 C 
ATOM      2  C   UNL     1       9.089   2.446  22.582  0.00  0.00    +0.177 C 
ATOM      3  C   UNL     1       9.334   1.368  23.635  0.00  0.00    +0.179 C 
ATOM      4  C   UNL     1       8.178   0.373  23.441  0.00  0.00    +0.183 C 
ATOM      5  O   UNL     1       7.673   0.602  22.108  0.00  0.00    -0.361 OA
ENDROOT
BRANCH   4   6
ATOM      6  C   UNL     1       8.613  -1.045  23.652  0.00  0.00    +0.027 A 
ATOM      7  C   UNL     1       7.797  -2.189  23.537  0.00  0.00    +0.101 A 
ATOM      8  N   UNL     1       6.433  -2.228  23.225  0.00  0.00    -0.235 NA
ATOM      9  C   UNL     1       5.961  -3.438  23.184  0.00  0.00    +0.199 A 
ATOM     10  N   UNL     1       6.659  -4.604  23.422  0.00  0.00    -0.312 N 
ATOM     11  H   UNL     1       6.202  -5.499  23.371  0.00  0.00    +0.170 HD
ATOM     12  C   UNL     1       7.994  -4.621  23.745  0.00  0.00    +0.275 A 
ATOM     13  O   UNL     1       8.614  -5.655  23.965  0.00  0.00    -0.266 OA
ATOM     14  C   UNL     1       8.539  -3.307  23.787  0.00  0.00    +0.130 A 
ATOM     15  N   UNL     1       9.815  -2.904  24.062  0.00  0.00    -0.355 N 
ATOM     16  H   UNL     1      10.587  -3.521  24.280  0.00  0.00    +0.166 HD
ATOM     17  C   UNL     1       9.873  -1.529  23.983  0.00  0.00    +0.091 A 
ENDBRANCH   4   6
BRANCH   2  18
ATOM     18  O   UNL     1      10.183   2.460  21.642  0.00  0.00    -0.386 OA
ATOM     19  H   UNL     1      10.600   1.579  21.669  0.00  0.00    +0.210 HD
ENDBRANCH   2  18
BRANCH   3  20
ATOM     20  O   UNL     1       9.373   1.909  24.958  0.00  0.00    -0.386 OA
ATOM     21  H   UNL     1       9.261   2.877  24.850  0.00  0.00    +0.210 HD
ENDBRANCH   3  20
BRANCH   1  22
ATOM     22  C   UNL     1       6.567   2.785  22.300  0.00  0.00    +0.190 C 
BRANCH  22  23
ATOM     23  O   UNL     1       6.566   4.130  21.834  0.00  0.00    -0.392 OA
ATOM     24  H   UNL     1       5.931   4.185  21.099  0.00  0.00    +0.210 HD
ENDBRANCH  22  23
ENDBRANCH   1  22
TORSDOF 5
ENDMDL
MODEL 8
REMARK VINA RESULT:      -6.4      1.606      2.615
REMARK  Name = 
REMARK  5 active torsions:
REMARK  status: ('A' for Active; 'I' for Inactive)
REMARK    1  A    between atoms: O_1  and  C_2
REMARK    2  A    between atoms: C_2  and  C_3
REMARK    3  A    between atoms: C_6  and  C_14
REMARK    4  A    between atoms: C_8  and  O_10
REMARK    5  A    between atoms: C_11  and  O_13
REMARK                            x       y       z     vdW  Elec       q    Type
REMARK                         _______ _______ _______ _____ _____    ______ ____
ROOT
ATOM      1  C   UNL     1       8.084  -5.098  24.378  0.00  0.00    +0.175 C 
ATOM      2  C   UNL     1       7.052  -5.108  23.250  0.00  0.00    +0.177 C 
ATOM      3  C   UNL     1       6.932  -3.654  22.801  0.00  0.00    +0.179 C 
ATOM      4  C   UNL     1       7.912  -2.890  23.707  0.00  0.00    +0.183 C 
ATOM      5  O   UNL     1       8.835  -3.877  24.217  0.00  0.00    -0.361 OA
ENDROOT
BRANCH   4   6
ATOM      6  C   UNL     1       8.606  -1.781  22.977  0.00  0.00    +0.027 A 
ATOM      7  C   UNL     1       8.896  -0.501  23.494  0.00  0.00    +0.101 A 
ATOM      8  N   UNL     1       8.582  -0.013  24.768  0.00  0.00    -0.235 NA
ATOM      9  C   UNL     1       8.990   1.207  24.952  0.00  0.00    +0.199 A 
ATOM     10  N   UNL     1       9.653   2.002  24.040  0.00  0.00    -0.312 N 
ATOM     11  H   UNL     1       9.926   2.942  24.276  0.00  0.00    +0.170 HD
ATOM     12  C   UNL     1       9.973   1.576  22.773  0.00  0.00    +0.275 A 
ATOM     13  O   UNL     1      10.555   2.283  21.959  0.00  0.00    -0.266 OA
ATOM     14  C   UNL     1       9.546   0.238  22.548  0.00  0.00    +0.130 A 
ATOM     15  N   UNL     1       9.678  -0.541  21.434  0.00  0.00    -0.355 N 
ATOM     16  H   UNL     1      10.127  -0.255  20.573  0.00  0.00    +0.166 HD
ATOM     17  C   UNL     1       9.110  -1.772  21.682  0.00  0.00    +0.091 A 
ENDBRANCH   4   6
BRANCH   2  18
ATOM     18  O   UNL     1       7.561  -5.908  22.163  0.00  0.00    -0.386 OA
ATOM     19  H   UNL     1       7.314  -5.461  21.333  0.00  0.00    +0.210 HD
ENDBRANCH   2  18
BRANCH   3  20
ATOM     20  O   UNL     1       5.592  -3.167  22.913  0.00  0.00    -0.386 OA
ATOM     21  H   UNL     1       5.015  -3.932  22.703  0.00  0.00    +0.210 HD
ENDBRANCH   3  20
BRANCH   1  22
ATOM     22  C   UNL     1       7.454  -5.174  25.777  0.00  0.00    +0.190 C 
BRANCH  22  23
ATOM     23  O   UNL     1       8.279  -5.872  26.703  0.00  0.00    -0.392 OA
ATOM     24  H   UNL     1       8.905  -6.412  26.190  0.00  0.00    +0.210 HD
ENDBRANCH  22  23
ENDBRANCH   1  22
TORSDOF 5
ENDMDL
MODEL 9
REMARK VINA RESULT:      -6.2      1.546      1.955
REMARK  Name = 
REMARK  5 active torsions:
REMARK  status: ('A' for Active; 'I' for Inactive)
REMARK    1  A    between atoms: O_1  and  C_2
REMARK    2  A    between atoms: C_2  and  C_3
REMARK    3  A    between atoms: C_6  and  C_14
REMARK    4  A    between atoms: C_8  and  O_10
REMARK    5  A    between atoms: C_11  and  O_13
REMARK                            x       y       z     vdW  Elec       q    Type
REMARK                         _______ _______ _______ _____ _____    ______ ____
ROOT
ATOM      1  C   UNL     1       8.566  -4.525  26.497  0.00  0.00    +0.175 C 
ATOM      2  C   UNL     1       8.930  -5.232  25.191  0.00  0.00    +0.177 C 
ATOM      3  C   UNL     1       8.167  -4.483  24.101  0.00  0.00    +0.179 C 
ATOM      4  C   UNL     1       7.404  -3.381  24.855  0.00  0.00    +0.183 C 
ATOM      5  O   UNL     1       8.083  -3.219  26.119  0.00  0.00    -0.361 OA
ENDROOT
BRANCH   4   6
ATOM      6  C   UNL     1       7.339  -2.105  24.073  0.00  0.00    +0.027 A 
ATOM      7  C   UNL     1       8.418  -1.233  23.818  0.00  0.00    +0.101 A 
ATOM      8  N   UNL     1       9.741  -1.375  24.252  0.00  0.00    -0.235 NA
ATOM      9  C   UNL     1      10.509  -0.408  23.846  0.00  0.00    +0.199 A 
ATOM     10  N   UNL     1      10.134   0.678  23.082  0.00  0.00    -0.312 N 
ATOM     11  H   UNL     1      10.804   1.381  22.820  0.00  0.00    +0.170 HD
ATOM     12  C   UNL     1       8.846   0.871  22.642  0.00  0.00    +0.275 A 
ATOM     13  O   UNL     1       8.510   1.839  21.969  0.00  0.00    -0.266 OA
ATOM     14  C   UNL     1       7.986  -0.180  23.064  0.00  0.00    +0.130 A 
ATOM     15  N   UNL     1       6.651  -0.357  22.832  0.00  0.00    -0.355 N 
ATOM     16  H   UNL     1       6.065   0.268  22.294  0.00  0.00    +0.166 HD
ATOM     17  C   UNL     1       6.246  -1.525  23.441  0.00  0.00    +0.091 A 
ENDBRANCH   4   6
BRANCH   2  18
ATOM     18  O   UNL     1      10.348  -5.092  24.969  0.00  0.00    -0.386 OA
ATOM     19  H   UNL     1      10.709  -4.572  25.710  0.00  0.00    +0.210 HD
ENDBRANCH   2  18
BRANCH   3  20
ATOM     20  O   UNL     1       7.296  -5.347  23.367  0.00  0.00    -0.386 OA
ATOM     21  H   UNL     1       6.678  -5.723  24.029  0.00  0.00    +0.210 HD
ENDBRANCH   3  20
BRANCH   1  22
ATOM     22  C   UNL     1       7.514  -5.282  27.323  0.00  0.00    +0.190 C 
BRANCH  22  23
ATOM     23  O   UNL     1       6.744  -6.174  26.527  0.00  0.00    -0.392 OA
ATOM     24  H   UNL     1       5.930  -5.709  26.267  0.00  0.00    +0.210 HD
ENDBRANCH  22  23
ENDBRANCH   1  22
TORSDOF 5
ENDMDL
