MODEL 1
REMARK VINA RESULT:      -7.7      0.000      0.000
REMARK  Name = 
REMARK  10 active torsions:
REMARK  status: ('A' for Active; 'I' for Inactive)
REMARK    1  A    between atoms: C_2  and  C_3
REMARK    2  A    between atoms: C_3  and  C_4
REMARK    3  A    between atoms: C_7  and  O_8
REMARK    4  A    between atoms: O_8  and  C_9
REMARK    5  A    between atoms: C_9  and  C_10
REMARK    6  A    between atoms: C_10  and  C_11
REMARK    7  A    between atoms: C_15  and  C_16
REMARK    8  A    between atoms: C_17  and  O_18
REMARK    9  A    between atoms: C_19  and  C_20
REMARK   10  A    between atoms: C_21  and  C_22
REMARK                            x       y       z     vdW  Elec       q    Type
REMARK                         _______ _______ _______ _____ _____    ______ ____
ROOT
ATOM      1  C   UNL     1       9.095   2.266  22.174  0.00  0.00    +0.276 C 
ENDROOT
BRANCH   1   2
ATOM      2  C   UNL     1       9.457   3.032  23.465  0.00  0.00    +0.142 C 
ATOM      3  C   UNL     1      10.943   3.415  23.420  0.00  0.00    +0.059 C 
ATOM      4  O   UNL     1       9.298   2.135  24.590  0.00  0.00    -0.482 OA
ATOM      5  C   UNL     1       7.996   1.825  24.931  0.00  0.00    +0.128 A 
ATOM      6  C   UNL     1       6.905   2.638  24.561  0.00  0.00    +0.001 A 
ATOM      7  C   UNL     1       5.593   2.208  24.859  0.00  0.00    -0.002 A 
ATOM      8  C   UNL     1       5.420   1.016  25.592  0.00  0.00    +0.123 A 
ATOM      9  C   UNL     1       6.508   0.228  26.009  0.00  0.00    -0.002 A 
ATOM     10  C   UNL     1       6.272  -1.030  26.810  0.00  0.00    +0.048 C 
ATOM     11  C   UNL     1       4.388   2.995  24.405  0.00  0.00    +0.048 C 
ATOM     12  C   UNL     1       7.147   3.925  23.805  0.00  0.00    +0.043 C 
ATOM     13  C   UNL     1       7.815   0.632  25.662  0.00  0.00    -0.002 A 
ATOM     14  C   UNL     1       9.030  -0.187  26.026  0.00  0.00    +0.048 C 
ATOM     15  C   UNL     1       8.622   4.285  23.716  0.00  0.00    +0.056 C 
BRANCH   8  16
ATOM     16  O   UNL     1       4.167   0.569  25.929  0.00  0.00    -0.506 OA
ATOM     17  H   UNL     1       4.223  -0.295  26.362  0.00  0.00    +0.292 HD
ENDBRANCH   8  16
ENDBRANCH   1   2
BRANCH   1  18
ATOM     18  O   UNL     1       9.968   1.172  21.868  0.00  0.00    -0.488 OA
BRANCH  18  22
ATOM     19  C   UNL     1       8.553  -2.586  23.095  0.00  0.00    -0.046 A 
ATOM     20  C   UNL     1       9.920  -2.275  23.101  0.00  0.00    +0.007 A 
ATOM     21  C   UNL     1      10.367  -1.015  22.673  0.00  0.00    +0.046 A 
ATOM     22  C   UNL     1       9.455  -0.053  22.237  0.00  0.00    +0.121 A 
ATOM     23  C   UNL     1       8.096  -0.379  22.214  0.00  0.00    +0.046 A 
ATOM     24  C   UNL     1       7.648  -1.621  22.646  0.00  0.00    +0.007 A 
BRANCH  19  25
ATOM     25  C   UNL     1       8.036  -3.912  23.603  0.00  0.00    +0.059 C 
BRANCH  25  26
ATOM     26  C   UNL     1       8.000  -4.018  25.128  0.00  0.00    +0.146 C 
ATOM     27  C   UNL     1       9.065  -4.941  25.674  0.00  0.00    +0.234 C 
ATOM     28  O   UNL     1      10.167  -5.135  25.184  0.00  0.00    -0.274 OA
ATOM     29  N   UNL     1       8.645  -5.519  26.836  0.00  0.00    -0.246 N 
ATOM     30  H   UNL     1       9.249  -6.151  27.340  0.00  0.00    +0.158 HD
ATOM     31  C   UNL     1       7.306  -5.609  27.031  0.00  0.00    +0.279 C 
ATOM     32  O   UNL     1       6.762  -6.286  27.883  0.00  0.00    -0.263 OA
ATOM     33  S   UNL     1       6.450  -4.687  25.818  0.00  0.00    -0.054 S 
ENDBRANCH  25  26
ENDBRANCH  19  25
ENDBRANCH  18  22
ENDBRANCH   1  18
TORSDOF 6
ENDMDL
MODEL 2
REMARK VINA RESULT:      -7.1      2.677      3.140
REMARK  Name = 
REMARK  10 active torsions:
REMARK  status: ('A' for Active; 'I' for Inactive)
REMARK    1  A    between atoms: C_2  and  C_3
REMARK    2  A    between atoms: C_3  and  C_4
REMARK    3  A    between atoms: C_7  and  O_8
REMARK    4  A    between atoms: O_8  and  C_9
REMARK    5  A    between atoms: C_9  and  C_10
REMARK    6  A    between atoms: C_10  and  C_11
REMARK    7  A    between atoms: C_15  and  C_16
REMARK    8  A    between atoms: C_17  and  O_18
REMARK    9  A    between atoms: C_19  and  C_20
REMARK   10  A    between atoms: C_21  and  C_22
REMARK                            x       y       z     vdW  Elec       q    Type
REMARK                         _______ _______ _______ _____ _____    ______ ____
ROOT
ATOM      1  C   UNL     1       9.999  -0.202  22.826  0.00  0.00    +0.276 C 
ENDROOT
BRANCH   1   2
ATOM      2  C   UNL     1      10.354   0.848  23.902  0.00  0.00    +0.142 C 
ATOM      3  C   UNL     1      11.752   0.543  24.458  0.00  0.00    +0.059 C 
ATOM      4  O   UNL     1       9.432   0.700  25.007  0.00  0.00    -0.482 OA
ATOM      5  C   UNL     1       8.139   1.123  24.771  0.00  0.00    +0.128 A 
ATOM      6  C   UNL     1       7.819   2.040  23.749  0.00  0.00    +0.001 A 
ATOM      7  C   UNL     1       6.464   2.352  23.501  0.00  0.00    -0.002 A 
ATOM      8  C   UNL     1       5.477   1.798  24.341  0.00  0.00    +0.123 A 
ATOM      9  C   UNL     1       5.794   0.922  25.395  0.00  0.00    -0.002 A 
ATOM     10  C   UNL     1       4.701   0.371  26.279  0.00  0.00    +0.048 C 
ATOM     11  C   UNL     1       6.064   3.256  22.361  0.00  0.00    +0.048 C 
ATOM     12  C   UNL     1       8.921   2.633  22.899  0.00  0.00    +0.043 C 
ATOM     13  C   UNL     1       7.144   0.570  25.606  0.00  0.00    -0.002 A 
ATOM     14  C   UNL     1       7.559  -0.404  26.681  0.00  0.00    +0.048 C 
ATOM     15  C   UNL     1      10.309   2.294  23.418  0.00  0.00    +0.056 C 
BRANCH   8  16
ATOM     16  O   UNL     1       4.148   2.090  24.157  0.00  0.00    -0.506 OA
ATOM     17  H   UNL     1       3.918   2.912  24.612  0.00  0.00    +0.292 HD
ENDBRANCH   8  16
ENDBRANCH   1   2
BRANCH   1  18
ATOM     18  O   UNL     1      10.203  -1.560  23.233  0.00  0.00    -0.488 OA
BRANCH  18  22
ATOM     19  C   UNL     1       6.736  -3.520  24.563  0.00  0.00    -0.046 A 
ATOM     20  C   UNL     1       7.993  -3.781  25.127  0.00  0.00    +0.007 A 
ATOM     21  C   UNL     1       9.138  -3.121  24.654  0.00  0.00    +0.046 A 
ATOM     22  C   UNL     1       9.040  -2.194  23.616  0.00  0.00    +0.121 A 
ATOM     23  C   UNL     1       7.787  -1.956  23.045  0.00  0.00    +0.046 A 
ATOM     24  C   UNL     1       6.649  -2.600  23.517  0.00  0.00    +0.007 A 
BRANCH  19  25
ATOM     25  C   UNL     1       5.478  -4.171  25.087  0.00  0.00    +0.059 C 
BRANCH  25  26
ATOM     26  C   UNL     1       5.264  -5.598  24.580  0.00  0.00    +0.146 C 
ATOM     27  C   UNL     1       4.297  -5.667  23.420  0.00  0.00    +0.234 C 
ATOM     28  O   UNL     1       4.130  -4.803  22.573  0.00  0.00    -0.274 OA
ATOM     29  N   UNL     1       3.641  -6.863  23.416  0.00  0.00    -0.246 N 
ATOM     30  H   UNL     1       2.970  -7.076  22.693  0.00  0.00    +0.158 HD
ATOM     31  C   UNL     1       3.547  -7.519  24.600  0.00  0.00    +0.279 C 
ATOM     32  O   UNL     1       2.816  -8.464  24.826  0.00  0.00    -0.263 OA
ATOM     33  S   UNL     1       4.559  -6.754  25.802  0.00  0.00    -0.054 S 
ENDBRANCH  25  26
ENDBRANCH  19  25
ENDBRANCH  18  22
ENDBRANCH   1  18
TORSDOF 6
ENDMDL
MODEL 3
REMARK VINA RESULT:      -7.0      3.273      5.038
REMARK  Name = 
REMARK  10 active torsions:
REMARK  status: ('A' for Active; 'I' for Inactive)
REMARK    1  A    between atoms: C_2  and  C_3
REMARK    2  A    between atoms: C_3  and  C_4
REMARK    3  A    between atoms: C_7  and  O_8
REMARK    4  A    between atoms: O_8  and  C_9
REMARK    5  A    between atoms: C_9  and  C_10
REMARK    6  A    between atoms: C_10  and  C_11
REMARK    7  A    between atoms: C_15  and  C_16
REMARK    8  A    between atoms: C_17  and  O_18
REMARK    9  A    between atoms: C_19  and  C_20
REMARK   10  A    between atoms: C_21  and  C_22
REMARK                            x       y       z     vdW  Elec       q    Type
REMARK                         _______ _______ _______ _____ _____    ______ ____
ROOT
ATOM      1  C   UNL     1       8.049  -1.659  22.524  0.00  0.00    +0.276 C 
ENDROOT
BRANCH   1   2
ATOM      2  C   UNL     1       9.223  -1.483  23.512  0.00  0.00    +0.142 C 
ATOM      3  C   UNL     1      10.541  -1.463  22.726  0.00  0.00    +0.059 C 
ATOM      4  O   UNL     1       9.275  -2.646  24.372  0.00  0.00    -0.482 OA
ATOM      5  C   UNL     1       8.268  -2.744  25.312  0.00  0.00    +0.128 A 
ATOM      6  C   UNL     1       7.526  -1.626  25.742  0.00  0.00    +0.001 A 
ATOM      7  C   UNL     1       6.446  -1.815  26.633  0.00  0.00    -0.002 A 
ATOM      8  C   UNL     1       6.197  -3.111  27.129  0.00  0.00    +0.123 A 
ATOM      9  C   UNL     1       6.968  -4.223  26.743  0.00  0.00    -0.002 A 
ATOM     10  C   UNL     1       6.673  -5.588  27.320  0.00  0.00    +0.048 C 
ATOM     11  C   UNL     1       5.564  -0.665  27.052  0.00  0.00    +0.048 C 
ATOM     12  C   UNL     1       7.857  -0.251  25.205  0.00  0.00    +0.043 C 
ATOM     13  C   UNL     1       8.011  -4.039  25.812  0.00  0.00    -0.002 A 
ATOM     14  C   UNL     1       8.848  -5.190  25.308  0.00  0.00    +0.048 C 
ATOM     15  C   UNL     1       9.137  -0.234  24.385  0.00  0.00    +0.056 C 
BRANCH   8  16
ATOM     16  O   UNL     1       5.176  -3.343  28.016  0.00  0.00    -0.506 OA
ATOM     17  H   UNL     1       5.130  -4.285  28.238  0.00  0.00    +0.292 HD
ENDBRANCH   8  16
ENDBRANCH   1   2
BRANCH   1  18
ATOM     18  O   UNL     1       8.029  -2.920  21.845  0.00  0.00    -0.488 OA
BRANCH  18  22
ATOM     19  C   UNL     1       4.759  -5.267  23.039  0.00  0.00    -0.046 A 
ATOM     20  C   UNL     1       4.752  -3.871  23.172  0.00  0.00    +0.007 A 
ATOM     21  C   UNL     1       5.864  -3.112  22.777  0.00  0.00    +0.046 A 
ATOM     22  C   UNL     1       6.992  -3.737  22.244  0.00  0.00    +0.121 A 
ATOM     23  C   UNL     1       6.999  -5.130  22.135  0.00  0.00    +0.046 A 
ATOM     24  C   UNL     1       5.896  -5.885  22.516  0.00  0.00    +0.007 A 
BRANCH  19  25
ATOM     25  C   UNL     1       3.557  -6.107  23.402  0.00  0.00    +0.059 C 
BRANCH  25  26
ATOM     26  C   UNL     1       3.587  -6.641  24.835  0.00  0.00    +0.146 C 
ATOM     27  C   UNL     1       2.695  -7.846  25.029  0.00  0.00    +0.234 C 
ATOM     28  O   UNL     1       2.436  -8.690  24.184  0.00  0.00    -0.274 OA
ATOM     29  N   UNL     1       2.231  -7.895  26.310  0.00  0.00    -0.246 N 
ATOM     30  H   UNL     1       1.634  -8.652  26.609  0.00  0.00    +0.158 HD
ATOM     31  C   UNL     1       2.186  -6.726  26.995  0.00  0.00    +0.279 C 
ATOM     32  O   UNL     1       1.598  -6.546  28.045  0.00  0.00    -0.263 OA
ATOM     33  S   UNL     1       3.013  -5.467  26.108  0.00  0.00    -0.054 S 
ENDBRANCH  25  26
ENDBRANCH  19  25
ENDBRANCH  18  22
ENDBRANCH   1  18
TORSDOF 6
ENDMDL
MODEL 4
REMARK VINA RESULT:      -7.0      3.543      7.818
REMARK  Name = 
REMARK  10 active torsions:
REMARK  status: ('A' for Active; 'I' for Inactive)
REMARK    1  A    between atoms: C_2  and  C_3
REMARK    2  A    between atoms: C_3  and  C_4
REMARK    3  A    between atoms: C_7  and  O_8
REMARK    4  A    between atoms: O_8  and  C_9
REMARK    5  A    between atoms: C_9  and  C_10
REMARK    6  A    between atoms: C_10  and  C_11
REMARK    7  A    between atoms: C_15  and  C_16
REMARK    8  A    between atoms: C_17  and  O_18
REMARK    9  A    between atoms: C_19  and  C_20
REMARK   10  A    between atoms: C_21  and  C_22
REMARK                            x       y       z     vdW  Elec       q    Type
REMARK                         _______ _______ _______ _____ _____    ______ ____
ROOT
ATOM      1  C   UNL     1       4.073  -3.400  27.282  0.00  0.00    +0.276 C 
ENDROOT
BRANCH   1   2
ATOM      2  C   UNL     1       4.521  -4.816  27.705  0.00  0.00    +0.142 C 
ATOM      3  C   UNL     1       4.952  -4.786  29.178  0.00  0.00    +0.059 C 
ATOM      4  O   UNL     1       5.698  -5.171  26.940  0.00  0.00    -0.482 OA
ATOM      5  C   UNL     1       5.484  -5.448  25.604  0.00  0.00    +0.128 A 
ATOM      6  C   UNL     1       4.221  -5.821  25.103  0.00  0.00    +0.001 A 
ATOM      7  C   UNL     1       4.054  -5.993  23.711  0.00  0.00    -0.002 A 
ATOM      8  C   UNL     1       5.181  -5.866  22.873  0.00  0.00    +0.123 A 
ATOM      9  C   UNL     1       6.455  -5.544  23.374  0.00  0.00    -0.002 A 
ATOM     10  C   UNL     1       7.635  -5.440  22.437  0.00  0.00    +0.048 C 
ATOM     11  C   UNL     1       2.703  -6.302  23.115  0.00  0.00    +0.048 C 
ATOM     12  C   UNL     1       3.052  -5.977  26.050  0.00  0.00    +0.043 C 
ATOM     13  C   UNL     1       6.607  -5.320  24.759  0.00  0.00    -0.002 A 
ATOM     14  C   UNL     1       7.930  -4.919  25.365  0.00  0.00    +0.048 C 
ATOM     15  C   UNL     1       3.466  -5.901  27.511  0.00  0.00    +0.056 C 
BRANCH   8  16
ATOM     16  O   UNL     1       5.076  -6.048  21.517  0.00  0.00    -0.506 OA
ATOM     17  H   UNL     1       4.150  -5.998  21.241  0.00  0.00    +0.292 HD
ENDBRANCH   8  16
ENDBRANCH   1   2
BRANCH   1  18
ATOM     18  O   UNL     1       4.983  -2.355  27.646  0.00  0.00    -0.488 OA
BRANCH  18  22
ATOM     19  C   UNL     1       7.646  -1.235  24.600  0.00  0.00    -0.046 A 
ATOM     20  C   UNL     1       8.048  -1.303  25.942  0.00  0.00    +0.007 A 
ATOM     21  C   UNL     1       7.133  -1.668  26.942  0.00  0.00    +0.046 A 
ATOM     22  C   UNL     1       5.811  -1.969  26.614  0.00  0.00    +0.121 A 
ATOM     23  C   UNL     1       5.414  -1.877  25.277  0.00  0.00    +0.046 A 
ATOM     24  C   UNL     1       6.318  -1.527  24.282  0.00  0.00    +0.007 A 
BRANCH  19  25
ATOM     25  C   UNL     1       8.620  -0.900  23.494  0.00  0.00    +0.059 C 
BRANCH  25  26
ATOM     26  C   UNL     1       8.707   0.594  23.179  0.00  0.00    +0.146 C 
ATOM     27  C   UNL     1       9.315   0.871  21.823  0.00  0.00    +0.234 C 
ATOM     28  O   UNL     1       9.226   0.154  20.837  0.00  0.00    -0.274 OA
ATOM     29  N   UNL     1       9.962   2.071  21.827  0.00  0.00    -0.246 N 
ATOM     30  H   UNL     1      10.409   2.413  20.989  0.00  0.00    +0.158 HD
ATOM     31  C   UNL     1      10.392   2.536  23.026  0.00  0.00    +0.279 C 
ATOM     32  O   UNL     1      11.172   3.455  23.187  0.00  0.00    -0.263 OA
ATOM     33  S   UNL     1       9.742   1.564  24.325  0.00  0.00    -0.054 S 
ENDBRANCH  25  26
ENDBRANCH  19  25
ENDBRANCH  18  22
ENDBRANCH   1  18
TORSDOF 6
ENDMDL
MODEL 5
REMARK VINA RESULT:      -6.9      3.210      7.826
REMARK  Name = 
REMARK  10 active torsions:
REMARK  status: ('A' for Active; 'I' for Inactive)
REMARK    1  A    between atoms: C_2  and  C_3
REMARK    2  A    between atoms: C_3  and  C_4
REMARK    3  A    between atoms: C_7  and  O_8
REMARK    4  A    between atoms: O_8  and  C_9
REMARK    5  A    between atoms: C_9  and  C_10
REMARK    6  A    between atoms: C_10  and  C_11
REMARK    7  A    between atoms: C_15  and  C_16
REMARK    8  A    between atoms: C_17  and  O_18
REMARK    9  A    between atoms: C_19  and  C_20
REMARK   10  A    between atoms: C_21  and  C_22
REMARK                            x       y       z     vdW  Elec       q    Type
REMARK                         _______ _______ _______ _____ _____    ______ ____
ROOT
ATOM      1  C   UNL     1       2.825  -4.685  25.314  0.00  0.00    +0.276 C 
ENDROOT
BRANCH   1   2
ATOM      2  C   UNL     1       3.204  -6.173  25.482  0.00  0.00    +0.142 C 
ATOM      3  C   UNL     1       2.130  -6.870  26.329  0.00  0.00    +0.059 C 
ATOM      4  O   UNL     1       4.436  -6.249  26.237  0.00  0.00    -0.482 OA
ATOM      5  C   UNL     1       5.577  -5.853  25.566  0.00  0.00    +0.128 A 
ATOM      6  C   UNL     1       5.653  -5.824  24.159  0.00  0.00    +0.001 A 
ATOM      7  C   UNL     1       6.817  -5.315  23.541  0.00  0.00    -0.002 A 
ATOM      8  C   UNL     1       7.901  -4.928  24.355  0.00  0.00    +0.123 A 
ATOM      9  C   UNL     1       7.850  -5.003  25.759  0.00  0.00    -0.002 A 
ATOM     10  C   UNL     1       9.046  -4.596  26.585  0.00  0.00    +0.048 C 
ATOM     11  C   UNL     1       6.913  -5.177  22.042  0.00  0.00    +0.048 C 
ATOM     12  C   UNL     1       4.473  -6.284  23.332  0.00  0.00    +0.043 C 
ATOM     13  C   UNL     1       6.666  -5.462  26.374  0.00  0.00    -0.002 A 
ATOM     14  C   UNL     1       6.513  -5.520  27.874  0.00  0.00    +0.048 C 
ATOM     15  C   UNL     1       3.385  -6.934  24.172  0.00  0.00    +0.056 C 
BRANCH   8  16
ATOM     16  O   UNL     1       9.063  -4.450  23.803  0.00  0.00    -0.506 OA
ATOM     17  H   UNL     1       9.796  -5.058  23.982  0.00  0.00    +0.292 HD
ENDBRANCH   8  16
ENDBRANCH   1   2
BRANCH   1  18
ATOM     18  O   UNL     1       3.154  -3.859  26.437  0.00  0.00    -0.488 OA
BRANCH  18  22
ATOM     19  C   UNL     1       6.338  -1.193  25.814  0.00  0.00    -0.046 A 
ATOM     20  C   UNL     1       5.897  -1.526  27.103  0.00  0.00    +0.007 A 
ATOM     21  C   UNL     1       4.821  -2.410  27.282  0.00  0.00    +0.046 A 
ATOM     22  C   UNL     1       4.177  -2.971  26.179  0.00  0.00    +0.121 A 
ATOM     23  C   UNL     1       4.609  -2.617  24.898  0.00  0.00    +0.046 A 
ATOM     24  C   UNL     1       5.680  -1.750  24.716  0.00  0.00    +0.007 A 
BRANCH  19  25
ATOM     25  C   UNL     1       7.528  -0.289  25.589  0.00  0.00    +0.059 C 
BRANCH  25  26
ATOM     26  C   UNL     1       7.958  -0.188  24.125  0.00  0.00    +0.146 C 
ATOM     27  C   UNL     1       9.296  -0.841  23.863  0.00  0.00    +0.234 C 
ATOM     28  O   UNL     1       9.750  -1.809  24.453  0.00  0.00    -0.274 OA
ATOM     29  N   UNL     1       9.936  -0.219  22.832  0.00  0.00    -0.246 N 
ATOM     30  H   UNL     1      10.837  -0.546  22.518  0.00  0.00    +0.158 HD
ATOM     31  C   UNL     1       9.589   1.067  22.576  0.00  0.00    +0.279 C 
ATOM     32  O   UNL     1      10.204   1.835  21.860  0.00  0.00    -0.263 OA
ATOM     33  S   UNL     1       8.174   1.512  23.501  0.00  0.00    -0.054 S 
ENDBRANCH  25  26
ENDBRANCH  19  25
ENDBRANCH  18  22
ENDBRANCH   1  18
TORSDOF 6
ENDMDL
MODEL 6
REMARK VINA RESULT:      -6.9      3.142      6.678
REMARK  Name = 
REMARK  10 active torsions:
REMARK  status: ('A' for Active; 'I' for Inactive)
REMARK    1  A    between atoms: C_2  and  C_3
REMARK    2  A    between atoms: C_3  and  C_4
REMARK    3  A    between atoms: C_7  and  O_8
REMARK    4  A    between atoms: O_8  and  C_9
REMARK    5  A    between atoms: C_9  and  C_10
REMARK    6  A    between atoms: C_10  and  C_11
REMARK    7  A    between atoms: C_15  and  C_16
REMARK    8  A    between atoms: C_17  and  O_18
REMARK    9  A    between atoms: C_19  and  C_20
REMARK   10  A    between atoms: C_21  and  C_22
REMARK                            x       y       z     vdW  Elec       q    Type
REMARK                         _______ _______ _______ _____ _____    ______ ____
ROOT
ATOM      1  C   UNL     1       8.436  -4.273  25.003  0.00  0.00    +0.276 C 
ENDROOT
BRANCH   1   2
ATOM      2  C   UNL     1       7.182  -4.534  24.139  0.00  0.00    +0.142 C 
ATOM      3  C   UNL     1       7.581  -5.373  22.918  0.00  0.00    +0.059 C 
ATOM      4  O   UNL     1       6.707  -3.266  23.629  0.00  0.00    -0.482 OA
ATOM      5  C   UNL     1       6.111  -2.431  24.553  0.00  0.00    +0.128 A 
ATOM      6  C   UNL     1       5.574  -2.909  25.766  0.00  0.00    +0.001 A 
ATOM      7  C   UNL     1       5.069  -1.986  26.708  0.00  0.00    -0.002 A 
ATOM      8  C   UNL     1       5.042  -0.618  26.369  0.00  0.00    +0.123 A 
ATOM      9  C   UNL     1       5.529  -0.140  25.138  0.00  0.00    -0.002 A 
ATOM     10  C   UNL     1       5.459   1.333  24.814  0.00  0.00    +0.048 C 
ATOM     11  C   UNL     1       4.568  -2.438  28.058  0.00  0.00    +0.048 C 
ATOM     12  C   UNL     1       5.597  -4.391  26.066  0.00  0.00    +0.043 C 
ATOM     13  C   UNL     1       6.083  -1.059  24.222  0.00  0.00    -0.002 A 
ATOM     14  C   UNL     1       6.674  -0.619  22.905  0.00  0.00    +0.048 C 
ATOM     15  C   UNL     1       6.037  -5.225  24.873  0.00  0.00    +0.056 C 
BRANCH   8  16
ATOM     16  O   UNL     1       4.538   0.316  27.239  0.00  0.00    -0.506 OA
ATOM     17  H   UNL     1       5.126   1.083  27.288  0.00  0.00    +0.292 HD
ENDBRANCH   8  16
ENDBRANCH   1   2
BRANCH   1  18
ATOM     18  O   UNL     1       9.601  -3.898  24.259  0.00  0.00    -0.488 OA
BRANCH  18  22
ATOM     19  C   UNL     1      10.032   0.270  23.983  0.00  0.00    -0.046 A 
ATOM     20  C   UNL     1       9.590  -0.349  25.161  0.00  0.00    +0.007 A 
ATOM     21  C   UNL     1       9.443  -1.744  25.222  0.00  0.00    +0.046 A 
ATOM     22  C   UNL     1       9.735  -2.534  24.109  0.00  0.00    +0.121 A 
ATOM     23  C   UNL     1      10.153  -1.907  22.933  0.00  0.00    +0.046 A 
ATOM     24  C   UNL     1      10.311  -0.528  22.871  0.00  0.00    +0.007 A 
BRANCH  19  25
ATOM     25  C   UNL     1      10.255   1.762  23.903  0.00  0.00    +0.059 C 
BRANCH  25  26
ATOM     26  C   UNL     1       8.963   2.576  23.823  0.00  0.00    +0.146 C 
ATOM     27  C   UNL     1       8.478   2.766  22.404  0.00  0.00    +0.234 C 
ATOM     28  O   UNL     1       8.634   1.980  21.481  0.00  0.00    -0.274 OA
ATOM     29  N   UNL     1       7.795   3.940  22.286  0.00  0.00    -0.246 N 
ATOM     30  H   UNL     1       7.388   4.209  21.402  0.00  0.00    +0.158 HD
ATOM     31  C   UNL     1       8.075   4.910  23.192  0.00  0.00    +0.279 C 
ATOM     32  O   UNL     1       7.738   6.076  23.103  0.00  0.00    -0.263 OA
ATOM     33  S   UNL     1       9.081   4.276  24.473  0.00  0.00    -0.054 S 
ENDBRANCH  25  26
ENDBRANCH  19  25
ENDBRANCH  18  22
ENDBRANCH   1  18
TORSDOF 6
ENDMDL
MODEL 7
REMARK VINA RESULT:      -6.7      1.880      2.230
REMARK  Name = 
REMARK  10 active torsions:
REMARK  status: ('A' for Active; 'I' for Inactive)
REMARK    1  A    between atoms: C_2  and  C_3
REMARK    2  A    between atoms: C_3  and  C_4
REMARK    3  A    between atoms: C_7  and  O_8
REMARK    4  A    between atoms: O_8  and  C_9
REMARK    5  A    between atoms: C_9  and  C_10
REMARK    6  A    between atoms: C_10  and  C_11
REMARK    7  A    between atoms: C_15  and  C_16
REMARK    8  A    between atoms: C_17  and  O_18
REMARK    9  A    between atoms: C_19  and  C_20
REMARK   10  A    between atoms: C_21  and  C_22
REMARK                            x       y       z     vdW  Elec       q    Type
REMARK                         _______ _______ _______ _____ _____    ______ ____
ROOT
ATOM      1  C   UNL     1       7.581   3.475  22.994  0.00  0.00    +0.276 C 
ENDROOT
BRANCH   1   2
ATOM      2  C   UNL     1       8.392   3.967  24.212  0.00  0.00    +0.142 C 
ATOM      3  C   UNL     1       9.459   4.963  23.735  0.00  0.00    +0.059 C 
ATOM      4  O   UNL     1       9.105   2.840  24.774  0.00  0.00    -0.482 OA
ATOM      5  C   UNL     1       8.330   1.912  25.443  0.00  0.00    +0.128 A 
ATOM      6  C   UNL     1       7.057   2.225  25.959  0.00  0.00    +0.001 A 
ATOM      7  C   UNL     1       6.279   1.201  26.545  0.00  0.00    -0.002 A 
ATOM      8  C   UNL     1       6.839  -0.087  26.669  0.00  0.00    +0.123 A 
ATOM      9  C   UNL     1       8.131  -0.392  26.202  0.00  0.00    -0.002 A 
ATOM     10  C   UNL     1       8.693  -1.783  26.377  0.00  0.00    +0.048 C 
ATOM     11  C   UNL     1       4.875   1.463  27.029  0.00  0.00    +0.048 C 
ATOM     12  C   UNL     1       6.517   3.632  25.830  0.00  0.00    +0.043 C 
ATOM     13  C   UNL     1       8.883   0.620  25.569  0.00  0.00    -0.002 A 
ATOM     14  C   UNL     1      10.254   0.358  24.993  0.00  0.00    +0.048 C 
ATOM     15  C   UNL     1       7.556   4.614  25.312  0.00  0.00    +0.056 C 
BRANCH   8  16
ATOM     16  O   UNL     1       6.135  -1.110  27.253  0.00  0.00    -0.506 OA
ATOM     17  H   UNL     1       6.134  -1.011  28.216  0.00  0.00    +0.292 HD
ENDBRANCH   8  16
ENDBRANCH   1   2
BRANCH   1  18
ATOM     18  O   UNL     1       8.364   2.829  21.982  0.00  0.00    -0.488 OA
BRANCH  18  22
ATOM     19  C   UNL     1       8.309  -1.367  22.120  0.00  0.00    -0.046 A 
ATOM     20  C   UNL     1       9.390  -0.661  21.572  0.00  0.00    +0.007 A 
ATOM     21  C   UNL     1       9.376   0.742  21.527  0.00  0.00    +0.046 A 
ATOM     22  C   UNL     1       8.286   1.454  22.028  0.00  0.00    +0.121 A 
ATOM     23  C   UNL     1       7.203   0.742  22.552  0.00  0.00    +0.046 A 
ATOM     24  C   UNL     1       7.217  -0.646  22.609  0.00  0.00    +0.007 A 
BRANCH  19  25
ATOM     25  C   UNL     1       8.318  -2.873  22.235  0.00  0.00    +0.059 C 
BRANCH  25  26
ATOM     26  C   UNL     1       7.345  -3.418  23.281  0.00  0.00    +0.146 C 
ATOM     27  C   UNL     1       7.930  -4.556  24.087  0.00  0.00    +0.234 C 
ATOM     28  O   UNL     1       9.109  -4.699  24.374  0.00  0.00    -0.274 OA
ATOM     29  N   UNL     1       6.946  -5.408  24.494  0.00  0.00    -0.246 N 
ATOM     30  H   UNL     1       7.169  -6.213  25.060  0.00  0.00    +0.158 HD
ATOM     31  C   UNL     1       5.805  -5.426  23.762  0.00  0.00    +0.279 C 
ATOM     32  O   UNL     1       4.931  -6.270  23.840  0.00  0.00    -0.263 OA
ATOM     33  S   UNL     1       5.799  -4.114  22.608  0.00  0.00    -0.054 S 
ENDBRANCH  25  26
ENDBRANCH  19  25
ENDBRANCH  18  22
ENDBRANCH   1  18
TORSDOF 6
ENDMDL
MODEL 8
REMARK VINA RESULT:      -6.5      1.664      2.335
REMARK  Name = 
REMARK  10 active torsions:
REMARK  status: ('A' for Active; 'I' for Inactive)
REMARK    1  A    between atoms: C_2  and  C_3
REMARK    2  A    between atoms: C_3  and  C_4
REMARK    3  A    between atoms: C_7  and  O_8
REMARK    4  A    between atoms: O_8  and  C_9
REMARK    5  A    between atoms: C_9  and  C_10
REMARK    6  A    between atoms: C_10  and  C_11
REMARK    7  A    between atoms: C_15  and  C_16
REMARK    8  A    between atoms: C_17  and  O_18
REMARK    9  A    between atoms: C_19  and  C_20
REMARK   10  A    between atoms: C_21  and  C_22
REMARK                            x       y       z     vdW  Elec       q    Type
REMARK                         _______ _______ _______ _____ _____    ______ ____
ROOT
ATOM      1  C   UNL     1       9.247   3.564  23.044  0.00  0.00    +0.276 C 
ENDROOT
BRANCH   1   2
ATOM      2  C   UNL     1       8.871   4.891  23.739  0.00  0.00    +0.142 C 
ATOM      3  C   UNL     1      10.155   5.623  24.150  0.00  0.00    +0.059 C 
ATOM      4  O   UNL     1       8.165   4.582  24.964  0.00  0.00    -0.482 OA
ATOM      5  C   UNL     1       6.881   4.095  24.811  0.00  0.00    +0.128 A 
ATOM      6  C   UNL     1       6.129   4.306  23.638  0.00  0.00    +0.001 A 
ATOM      7  C   UNL     1       4.861   3.696  23.512  0.00  0.00    -0.002 A 
ATOM      8  C   UNL     1       4.353   2.959  24.602  0.00  0.00    +0.123 A 
ATOM      9  C   UNL     1       5.079   2.787  25.795  0.00  0.00    -0.002 A 
ATOM     10  C   UNL     1       4.482   2.006  26.941  0.00  0.00    +0.048 C 
ATOM     11  C   UNL     1       4.055   3.816  22.242  0.00  0.00    +0.048 C 
ATOM     12  C   UNL     1       6.707   5.135  22.512  0.00  0.00    +0.043 C 
ATOM     13  C   UNL     1       6.367   3.353  25.896  0.00  0.00    -0.002 A 
ATOM     14  C   UNL     1       7.229   3.169  27.121  0.00  0.00    +0.048 C 
ATOM     15  C   UNL     1       8.005   5.825  22.898  0.00  0.00    +0.056 C 
BRANCH   8  16
ATOM     16  O   UNL     1       3.116   2.367  24.539  0.00  0.00    -0.506 OA
ATOM     17  H   UNL     1       2.440   2.962  24.893  0.00  0.00    +0.292 HD
ENDBRANCH   8  16
ENDBRANCH   1   2
BRANCH   1  18
ATOM     18  O   UNL     1      10.111   2.717  23.811  0.00  0.00    -0.488 OA
BRANCH  18  22
ATOM     19  C   UNL     1       8.426  -1.093  24.335  0.00  0.00    -0.046 A 
ATOM     20  C   UNL     1       7.849  -0.143  23.480  0.00  0.00    +0.007 A 
ATOM     21  C   UNL     1       8.426   1.128  23.333  0.00  0.00    +0.046 A 
ATOM     22  C   UNL     1       9.584   1.463  24.037  0.00  0.00    +0.121 A 
ATOM     23  C   UNL     1      10.140   0.519  24.904  0.00  0.00    +0.046 A 
ATOM     24  C   UNL     1       9.577  -0.745  25.044  0.00  0.00    +0.007 A 
BRANCH  19  25
ATOM     25  C   UNL     1       7.861  -2.487  24.472  0.00  0.00    +0.059 C 
BRANCH  25  26
ATOM     26  C   UNL     1       8.237  -3.180  25.783  0.00  0.00    +0.146 C 
ATOM     27  C   UNL     1       9.088  -4.411  25.570  0.00  0.00    +0.234 C 
ATOM     28  O   UNL     1       9.890  -4.581  24.665  0.00  0.00    -0.274 OA
ATOM     29  N   UNL     1       8.868  -5.320  26.563  0.00  0.00    -0.246 N 
ATOM     30  H   UNL     1       9.374  -6.193  26.578  0.00  0.00    +0.158 HD
ATOM     31  C   UNL     1       7.679  -5.249  27.212  0.00  0.00    +0.279 C 
ATOM     32  O   UNL     1       7.227  -6.103  27.951  0.00  0.00    -0.263 OA
ATOM     33  S   UNL     1       6.825  -3.791  26.763  0.00  0.00    -0.054 S 
ENDBRANCH  25  26
ENDBRANCH  19  25
ENDBRANCH  18  22
ENDBRANCH   1  18
TORSDOF 6
ENDMDL
MODEL 9
REMARK VINA RESULT:      -6.5      3.181      7.687
REMARK  Name = 
REMARK  10 active torsions:
REMARK  status: ('A' for Active; 'I' for Inactive)
REMARK    1  A    between atoms: C_2  and  C_3
REMARK    2  A    between atoms: C_3  and  C_4
REMARK    3  A    between atoms: C_7  and  O_8
REMARK    4  A    between atoms: O_8  and  C_9
REMARK    5  A    between atoms: C_9  and  C_10
REMARK    6  A    between atoms: C_10  and  C_11
REMARK    7  A    between atoms: C_15  and  C_16
REMARK    8  A    between atoms: C_17  and  O_18
REMARK    9  A    between atoms: C_19  and  C_20
REMARK   10  A    between atoms: C_21  and  C_22
REMARK                            x       y       z     vdW  Elec       q    Type
REMARK                         _______ _______ _______ _____ _____    ______ ____
ROOT
ATOM      1  C   UNL     1       4.064  -4.675  25.886  0.00  0.00    +0.276 C 
ENDROOT
BRANCH   1   2
ATOM      2  C   UNL     1       4.889  -5.963  25.677  0.00  0.00    +0.142 C 
ATOM      3  C   UNL     1       4.597  -6.937  26.827  0.00  0.00    +0.059 C 
ATOM      4  O   UNL     1       6.294  -5.627  25.771  0.00  0.00    -0.482 OA
ATOM      5  C   UNL     1       6.813  -4.913  24.708  0.00  0.00    +0.128 A 
ATOM      6  C   UNL     1       6.204  -4.903  23.437  0.00  0.00    +0.001 A 
ATOM      7  C   UNL     1       6.735  -4.073  22.425  0.00  0.00    -0.002 A 
ATOM      8  C   UNL     1       7.910  -3.342  22.695  0.00  0.00    +0.123 A 
ATOM      9  C   UNL     1       8.551  -3.388  23.946  0.00  0.00    -0.002 A 
ATOM     10  C   UNL     1       9.819  -2.601  24.180  0.00  0.00    +0.048 C 
ATOM     11  C   UNL     1       6.068  -3.956  21.076  0.00  0.00    +0.048 C 
ATOM     12  C   UNL     1       4.965  -5.734  23.189  0.00  0.00    +0.043 C 
ATOM     13  C   UNL     1       7.987  -4.176  24.972  0.00  0.00    -0.002 A 
ATOM     14  C   UNL     1       8.585  -4.235  26.357  0.00  0.00    +0.048 C 
ATOM     15  C   UNL     1       4.643  -6.667  24.346  0.00  0.00    +0.056 C 
BRANCH   8  16
ATOM     16  O   UNL     1       8.479  -2.540  21.737  0.00  0.00    -0.506 OA
ATOM     17  H   UNL     1       7.843  -2.356  21.031  0.00  0.00    +0.292 HD
ENDBRANCH   8  16
ENDBRANCH   1   2
BRANCH   1  18
ATOM     18  O   UNL     1       4.539  -3.829  26.940  0.00  0.00    -0.488 OA
BRANCH  18  22
ATOM     19  C   UNL     1       6.624  -0.415  25.664  0.00  0.00    -0.046 A 
ATOM     20  C   UNL     1       6.819  -0.964  26.939  0.00  0.00    +0.007 A 
ATOM     21  C   UNL     1       6.099  -2.099  27.345  0.00  0.00    +0.046 A 
ATOM     22  C   UNL     1       5.179  -2.697  26.483  0.00  0.00    +0.121 A 
ATOM     23  C   UNL     1       4.974  -2.129  25.223  0.00  0.00    +0.046 A 
ATOM     24  C   UNL     1       5.692  -1.012  24.813  0.00  0.00    +0.007 A 
BRANCH  19  25
ATOM     25  C   UNL     1       7.423   0.771  25.178  0.00  0.00    +0.059 C 
BRANCH  25  26
ATOM     26  C   UNL     1       6.828   1.454  23.946  0.00  0.00    +0.146 C 
ATOM     27  C   UNL     1       7.668   1.257  22.705  0.00  0.00    +0.234 C 
ATOM     28  O   UNL     1       8.357   0.280  22.453  0.00  0.00    -0.274 OA
ATOM     29  N   UNL     1       7.528   2.319  21.861  0.00  0.00    -0.246 N 
ATOM     30  H   UNL     1       8.011   2.335  20.975  0.00  0.00    +0.158 HD
ATOM     31  C   UNL     1       7.146   3.498  22.411  0.00  0.00    +0.279 C 
ATOM     32  O   UNL     1       7.194   4.581  21.860  0.00  0.00    -0.263 OA
ATOM     33  S   UNL     1       6.661   3.266  24.074  0.00  0.00    -0.054 S 
ENDBRANCH  25  26
ENDBRANCH  19  25
ENDBRANCH  18  22
ENDBRANCH   1  18
TORSDOF 6
ENDMDL
