MODEL 1
REMARK VINA RESULT:      -4.6      0.000      0.000
REMARK  Name = 
REMARK  6 active torsions:
REMARK  status: ('A' for Active; 'I' for Inactive)
REMARK    1  A    between atoms: C_1  and  C_2
REMARK    2  A    between atoms: C_2  and  O_3
REMARK    3  A    between atoms: O_3  and  C_4
REMARK    4  A    between atoms: C_4  and  C_6
REMARK    5  A    between atoms: C_7  and  C_8
REMARK    6  A    between atoms: C_11  and  C_12
REMARK                            x       y       z     vdW  Elec       q    Type
REMARK                         _______ _______ _______ _____ _____    ______ ____
ROOT
ATOM      1  C   UNL     1       7.223  -5.021  25.001  0.00  0.00    +0.102 A 
ATOM      2  C   UNL     1       6.184  -5.540  25.835  0.00  0.00    +0.074 A 
ATOM      3  C   UNL     1       4.716  -5.538  25.603  0.00  0.00    +0.068 C 
ATOM      4  N   UNL     1       6.664  -6.062  26.971  0.00  0.00    -0.178 NA
ATOM      5  N   UNL     1       7.986  -5.879  26.882  0.00  0.00    -0.281 N 
ATOM      6  H   UNL     1       8.563  -6.190  27.656  0.00  0.00    +0.189 HD
ATOM      7  C   UNL     1       8.383  -5.257  25.732  0.00  0.00    +0.047 A 
ATOM      8  C   UNL     1       9.815  -4.951  25.496  0.00  0.00    +0.066 C 
ENDROOT
BRANCH   1   9
ATOM      9  C   UNL     1       7.114  -4.349  23.709  0.00  0.00    +0.343 C 
ATOM     10  O   UNL     1       6.522  -3.288  23.542  0.00  0.00    -0.245 OA
BRANCH   9  11
ATOM     11  O   UNL     1       7.697  -5.064  22.707  0.00  0.00    -0.461 OA
BRANCH  11  13
ATOM     12  C   UNL     1       6.183  -5.702  20.923  0.00  0.00    +0.048 C 
ATOM     13  C   UNL     1       6.940  -6.150  22.156  0.00  0.00    +0.229 C 
ENDBRANCH  11  13
ENDBRANCH   9  11
ENDBRANCH   1   9
TORSDOF 3
ENDMDL
MODEL 2
REMARK VINA RESULT:      -4.6      5.744      6.899
REMARK  Name = 
REMARK  6 active torsions:
REMARK  status: ('A' for Active; 'I' for Inactive)
REMARK    1  A    between atoms: C_1  and  C_2
REMARK    2  A    between atoms: C_2  and  O_3
REMARK    3  A    between atoms: O_3  and  C_4
REMARK    4  A    between atoms: C_4  and  C_6
REMARK    5  A    between atoms: C_7  and  C_8
REMARK    6  A    between atoms: C_11  and  C_12
REMARK                            x       y       z     vdW  Elec       q    Type
REMARK                         _______ _______ _______ _____ _____    ______ ____
ROOT
ATOM      1  C   UNL     1       9.906  -0.397  23.451  0.00  0.00    +0.102 A 
ATOM      2  C   UNL     1       9.712  -1.778  23.138  0.00  0.00    +0.074 A 
ATOM      3  C   UNL     1       9.737  -2.951  24.050  0.00  0.00    +0.068 C 
ATOM      4  N   UNL     1       9.508  -1.974  21.829  0.00  0.00    -0.178 NA
ATOM      5  N   UNL     1       9.578  -0.748  21.300  0.00  0.00    -0.281 N 
ATOM      6  H   UNL     1       9.466  -0.655  20.296  0.00  0.00    +0.189 HD
ATOM      7  C   UNL     1       9.818   0.238  22.216  0.00  0.00    +0.047 A 
ATOM      8  C   UNL     1       9.956   1.651  21.784  0.00  0.00    +0.066 C 
ENDROOT
BRANCH   1   9
ATOM      9  C   UNL     1      10.186   0.222  24.743  0.00  0.00    +0.343 C 
ATOM     10  O   UNL     1      11.283   0.666  25.062  0.00  0.00    -0.245 OA
BRANCH   9  11
ATOM     11  O   UNL     1       9.103   0.197  25.571  0.00  0.00    -0.461 OA
BRANCH  11  13
ATOM     12  C   UNL     1       8.253   2.431  25.163  0.00  0.00    +0.048 C 
ATOM     13  C   UNL     1       7.952   0.947  25.161  0.00  0.00    +0.229 C 
ENDBRANCH  11  13
ENDBRANCH   9  11
ENDBRANCH   1   9
TORSDOF 3
ENDMDL
MODEL 3
REMARK VINA RESULT:      -4.5      1.181      2.105
REMARK  Name = 
REMARK  6 active torsions:
REMARK  status: ('A' for Active; 'I' for Inactive)
REMARK    1  A    between atoms: C_1  and  C_2
REMARK    2  A    between atoms: C_2  and  O_3
REMARK    3  A    between atoms: O_3  and  C_4
REMARK    4  A    between atoms: C_4  and  C_6
REMARK    5  A    between atoms: C_7  and  C_8
REMARK    6  A    between atoms: C_11  and  C_12
REMARK                            x       y       z     vdW  Elec       q    Type
REMARK                         _______ _______ _______ _____ _____    ______ ____
ROOT
ATOM      1  C   UNL     1       7.376  -5.148  24.946  0.00  0.00    +0.102 A 
ATOM      2  C   UNL     1       6.287  -5.555  25.778  0.00  0.00    +0.074 A 
ATOM      3  C   UNL     1       4.834  -5.569  25.468  0.00  0.00    +0.068 C 
ATOM      4  N   UNL     1       6.698  -5.941  26.992  0.00  0.00    -0.178 NA
ATOM      5  N   UNL     1       8.025  -5.780  26.955  0.00  0.00    -0.281 N 
ATOM      6  H   UNL     1       8.556  -6.001  27.791  0.00  0.00    +0.189 HD
ATOM      7  C   UNL     1       8.492  -5.304  25.762  0.00  0.00    +0.047 A 
ATOM      8  C   UNL     1       9.940  -5.040  25.569  0.00  0.00    +0.066 C 
ENDROOT
BRANCH   1   9
ATOM      9  C   UNL     1       7.346  -4.635  23.579  0.00  0.00    +0.343 C 
ATOM     10  O   UNL     1       7.416  -5.346  22.583  0.00  0.00    -0.245 OA
BRANCH   9  11
ATOM     11  O   UNL     1       7.290  -3.274  23.542  0.00  0.00    -0.461 OA
BRANCH  11  13
ATOM     12  C   UNL     1       9.426  -2.155  23.277  0.00  0.00    +0.048 C 
ATOM     13  C   UNL     1       8.149  -2.612  22.603  0.00  0.00    +0.229 C 
ENDBRANCH  11  13
ENDBRANCH   9  11
ENDBRANCH   1   9
TORSDOF 3
ENDMDL
MODEL 4
REMARK VINA RESULT:      -4.4      4.853      5.509
REMARK  Name = 
REMARK  6 active torsions:
REMARK  status: ('A' for Active; 'I' for Inactive)
REMARK    1  A    between atoms: C_1  and  C_2
REMARK    2  A    between atoms: C_2  and  O_3
REMARK    3  A    between atoms: O_3  and  C_4
REMARK    4  A    between atoms: C_4  and  C_6
REMARK    5  A    between atoms: C_7  and  C_8
REMARK    6  A    between atoms: C_11  and  C_12
REMARK                            x       y       z     vdW  Elec       q    Type
REMARK                         _______ _______ _______ _____ _____    ______ ____
ROOT
ATOM      1  C   UNL     1       9.554  -1.034  24.167  0.00  0.00    +0.102 A 
ATOM      2  C   UNL     1       8.755  -1.716  25.137  0.00  0.00    +0.074 A 
ATOM      3  C   UNL     1       7.926  -2.938  24.966  0.00  0.00    +0.068 C 
ATOM      4  N   UNL     1       8.782  -1.108  26.329  0.00  0.00    -0.178 NA
ATOM      5  N   UNL     1       9.574  -0.048  26.137  0.00  0.00    -0.281 N 
ATOM      6  H   UNL     1       9.729   0.579  26.920  0.00  0.00    +0.189 HD
ATOM      7  C   UNL     1      10.063   0.056  24.866  0.00  0.00    +0.047 A 
ATOM      8  C   UNL     1      10.932   1.196  24.482  0.00  0.00    +0.066 C 
ENDROOT
BRANCH   1   9
ATOM      9  C   UNL     1       9.759  -1.353  22.757  0.00  0.00    +0.343 C 
ATOM     10  O   UNL     1      10.700  -2.021  22.341  0.00  0.00    -0.245 OA
BRANCH   9  11
ATOM     11  O   UNL     1       8.820  -0.777  21.956  0.00  0.00    -0.461 OA
BRANCH  11  13
ATOM     12  C   UNL     1       8.313   1.575  21.649  0.00  0.00    +0.048 C 
ATOM     13  C   UNL     1       9.202   0.414  21.256  0.00  0.00    +0.229 C 
ENDBRANCH  11  13
ENDBRANCH   9  11
ENDBRANCH   1   9
TORSDOF 3
ENDMDL
MODEL 5
REMARK VINA RESULT:      -4.4      5.157      6.014
REMARK  Name = 
REMARK  6 active torsions:
REMARK  status: ('A' for Active; 'I' for Inactive)
REMARK    1  A    between atoms: C_1  and  C_2
REMARK    2  A    between atoms: C_2  and  O_3
REMARK    3  A    between atoms: O_3  and  C_4
REMARK    4  A    between atoms: C_4  and  C_6
REMARK    5  A    between atoms: C_7  and  C_8
REMARK    6  A    between atoms: C_11  and  C_12
REMARK                            x       y       z     vdW  Elec       q    Type
REMARK                         _______ _______ _______ _____ _____    ______ ____
ROOT
ATOM      1  C   UNL     1       9.505  -0.239  23.573  0.00  0.00    +0.102 A 
ATOM      2  C   UNL     1       9.720   1.158  23.356  0.00  0.00    +0.074 A 
ATOM      3  C   UNL     1      10.150   1.851  22.114  0.00  0.00    +0.068 C 
ATOM      4  N   UNL     1       9.511   1.877  24.466  0.00  0.00    -0.178 NA
ATOM      5  N   UNL     1       9.177   0.968  25.387  0.00  0.00    -0.281 N 
ATOM      6  H   UNL     1       8.986   1.292  26.329  0.00  0.00    +0.189 HD
ATOM      7  C   UNL     1       9.160  -0.316  24.919  0.00  0.00    +0.047 A 
ATOM      8  C   UNL     1       8.839  -1.446  25.825  0.00  0.00    +0.066 C 
ENDROOT
BRANCH   1   9
ATOM      9  C   UNL     1       9.657  -1.349  22.636  0.00  0.00    +0.343 C 
ATOM     10  O   UNL     1      10.719  -1.926  22.432  0.00  0.00    -0.245 OA
BRANCH   9  11
ATOM     11  O   UNL     1       8.498  -1.628  21.977  0.00  0.00    -0.461 OA
BRANCH  11  13
ATOM     12  C   UNL     1       6.307  -2.341  22.736  0.00  0.00    +0.048 C 
ATOM     13  C   UNL     1       7.736  -2.749  22.443  0.00  0.00    +0.229 C 
ENDBRANCH  11  13
ENDBRANCH   9  11
ENDBRANCH   1   9
TORSDOF 3
ENDMDL
MODEL 6
REMARK VINA RESULT:      -4.4      1.097      2.538
REMARK  Name = 
REMARK  6 active torsions:
REMARK  status: ('A' for Active; 'I' for Inactive)
REMARK    1  A    between atoms: C_1  and  C_2
REMARK    2  A    between atoms: C_2  and  O_3
REMARK    3  A    between atoms: O_3  and  C_4
REMARK    4  A    between atoms: C_4  and  C_6
REMARK    5  A    between atoms: C_7  and  C_8
REMARK    6  A    between atoms: C_11  and  C_12
REMARK                            x       y       z     vdW  Elec       q    Type
REMARK                         _______ _______ _______ _____ _____    ______ ____
ROOT
ATOM      1  C   UNL     1       6.445  -5.397  25.728  0.00  0.00    +0.102 A 
ATOM      2  C   UNL     1       7.492  -5.245  26.690  0.00  0.00    +0.074 A 
ATOM      3  C   UNL     1       8.764  -4.486  26.568  0.00  0.00    +0.068 C 
ATOM      4  N   UNL     1       7.240  -5.920  27.818  0.00  0.00    -0.178 NA
ATOM      5  N   UNL     1       6.060  -6.506  27.592  0.00  0.00    -0.281 N 
ATOM      6  H   UNL     1       5.673  -7.095  28.323  0.00  0.00    +0.189 HD
ATOM      7  C   UNL     1       5.534  -6.238  26.360  0.00  0.00    +0.047 A 
ATOM      8  C   UNL     1       4.244  -6.839  25.942  0.00  0.00    +0.066 C 
ENDROOT
BRANCH   1   9
ATOM      9  C   UNL     1       6.354  -4.854  24.375  0.00  0.00    +0.343 C 
ATOM     10  O   UNL     1       6.258  -3.657  24.127  0.00  0.00    -0.245 OA
BRANCH   9  11
ATOM     11  O   UNL     1       6.330  -5.833  23.429  0.00  0.00    -0.461 OA
BRANCH  11  13
ATOM     12  C   UNL     1       6.269  -5.697  21.008  0.00  0.00    +0.048 C 
ATOM     13  C   UNL     1       7.126  -5.623  22.254  0.00  0.00    +0.229 C 
ENDBRANCH  11  13
ENDBRANCH   9  11
ENDBRANCH   1   9
TORSDOF 3
ENDMDL
MODEL 7
REMARK VINA RESULT:      -4.4      3.039      4.334
REMARK  Name = 
REMARK  6 active torsions:
REMARK  status: ('A' for Active; 'I' for Inactive)
REMARK    1  A    between atoms: C_1  and  C_2
REMARK    2  A    between atoms: C_2  and  O_3
REMARK    3  A    between atoms: O_3  and  C_4
REMARK    4  A    between atoms: C_4  and  C_6
REMARK    5  A    between atoms: C_7  and  C_8
REMARK    6  A    between atoms: C_11  and  C_12
REMARK                            x       y       z     vdW  Elec       q    Type
REMARK                         _______ _______ _______ _____ _____    ______ ____
ROOT
ATOM      1  C   UNL     1       6.624  -4.164  23.265  0.00  0.00    +0.102 A 
ATOM      2  C   UNL     1       6.314  -4.592  21.936  0.00  0.00    +0.074 A 
ATOM      3  C   UNL     1       6.684  -5.861  21.258  0.00  0.00    +0.068 C 
ATOM      4  N   UNL     1       5.615  -3.671  21.261  0.00  0.00    -0.178 NA
ATOM      5  N   UNL     1       5.482  -2.662  22.127  0.00  0.00    -0.281 N 
ATOM      6  H   UNL     1       4.988  -1.831  21.818  0.00  0.00    +0.189 HD
ATOM      7  C   UNL     1       6.067  -2.891  23.341  0.00  0.00    +0.047 A 
ATOM      8  C   UNL     1       6.035  -1.855  24.402  0.00  0.00    +0.066 C 
ENDROOT
BRANCH   1   9
ATOM      9  C   UNL     1       7.389  -4.856  24.298  0.00  0.00    +0.343 C 
ATOM     10  O   UNL     1       6.883  -5.386  25.280  0.00  0.00    -0.245 OA
BRANCH   9  11
ATOM     11  O   UNL     1       8.732  -4.793  24.073  0.00  0.00    -0.461 OA
BRANCH  11  13
ATOM     12  C   UNL     1       9.862  -2.654  23.905  0.00  0.00    +0.048 C 
ATOM     13  C   UNL     1       9.470  -3.806  24.806  0.00  0.00    +0.229 C 
ENDBRANCH  11  13
ENDBRANCH   9  11
ENDBRANCH   1   9
TORSDOF 3
ENDMDL
MODEL 8
REMARK VINA RESULT:      -4.4      2.254      3.348
REMARK  Name = 
REMARK  6 active torsions:
REMARK  status: ('A' for Active; 'I' for Inactive)
REMARK    1  A    between atoms: C_1  and  C_2
REMARK    2  A    between atoms: C_2  and  O_3
REMARK    3  A    between atoms: O_3  and  C_4
REMARK    4  A    between atoms: C_4  and  C_6
REMARK    5  A    between atoms: C_7  and  C_8
REMARK    6  A    between atoms: C_11  and  C_12
REMARK                            x       y       z     vdW  Elec       q    Type
REMARK                         _______ _______ _______ _____ _____    ______ ____
ROOT
ATOM      1  C   UNL     1       7.700  -4.849  24.663  0.00  0.00    +0.102 A 
ATOM      2  C   UNL     1       6.899  -5.294  25.761  0.00  0.00    +0.074 A 
ATOM      3  C   UNL     1       7.212  -5.261  27.214  0.00  0.00    +0.068 C 
ATOM      4  N   UNL     1       5.736  -5.819  25.356  0.00  0.00    -0.178 NA
ATOM      5  N   UNL     1       5.783  -5.727  24.023  0.00  0.00    -0.281 N 
ATOM      6  H   UNL     1       4.996  -6.087  23.493  0.00  0.00    +0.189 HD
ATOM      7  C   UNL     1       6.932  -5.162  23.546  0.00  0.00    +0.047 A 
ATOM      8  C   UNL     1       7.152  -5.018  22.086  0.00  0.00    +0.066 C 
ENDROOT
BRANCH   1   9
ATOM      9  C   UNL     1       9.034  -4.256  24.679  0.00  0.00    +0.343 C 
ATOM     10  O   UNL     1      10.065  -4.902  24.828  0.00  0.00    -0.245 OA
BRANCH   9  11
ATOM     11  O   UNL     1       8.994  -2.899  24.567  0.00  0.00    -0.461 OA
BRANCH  11  13
ATOM     12  C   UNL     1       9.103  -1.832  22.391  0.00  0.00    +0.048 C 
ATOM     13  C   UNL     1       9.875  -2.298  23.608  0.00  0.00    +0.229 C 
ENDBRANCH  11  13
ENDBRANCH   9  11
ENDBRANCH   1   9
TORSDOF 3
ENDMDL
MODEL 9
REMARK VINA RESULT:      -4.3      3.000      4.415
REMARK  Name = 
REMARK  6 active torsions:
REMARK  status: ('A' for Active; 'I' for Inactive)
REMARK    1  A    between atoms: C_1  and  C_2
REMARK    2  A    between atoms: C_2  and  O_3
REMARK    3  A    between atoms: O_3  and  C_4
REMARK    4  A    between atoms: C_4  and  C_6
REMARK    5  A    between atoms: C_7  and  C_8
REMARK    6  A    between atoms: C_11  and  C_12
REMARK                            x       y       z     vdW  Elec       q    Type
REMARK                         _______ _______ _______ _____ _____    ______ ____
ROOT
ATOM      1  C   UNL     1       7.137  -3.846  23.233  0.00  0.00    +0.102 A 
ATOM      2  C   UNL     1       6.625  -4.506  22.072  0.00  0.00    +0.074 A 
ATOM      3  C   UNL     1       7.033  -5.811  21.490  0.00  0.00    +0.068 C 
ATOM      4  N   UNL     1       5.672  -3.790  21.464  0.00  0.00    -0.178 NA
ATOM      5  N   UNL     1       5.571  -2.683  22.206  0.00  0.00    -0.281 N 
ATOM      6  H   UNL     1       4.906  -1.974  21.916  0.00  0.00    +0.189 HD
ATOM      7  C   UNL     1       6.422  -2.652  23.275  0.00  0.00    +0.047 A 
ATOM      8  C   UNL     1       6.456  -1.476  24.179  0.00  0.00    +0.066 C 
ENDROOT
BRANCH   1   9
ATOM      9  C   UNL     1       8.194  -4.274  24.143  0.00  0.00    +0.343 C 
ATOM     10  O   UNL     1       9.340  -3.840  24.108  0.00  0.00    -0.245 OA
BRANCH   9  11
ATOM     11  O   UNL     1       7.775  -5.251  24.996  0.00  0.00    -0.461 OA
BRANCH  11  13
ATOM     12  C   UNL     1       6.978  -4.117  26.986  0.00  0.00    +0.048 C 
ATOM     13  C   UNL     1       8.018  -5.044  26.393  0.00  0.00    +0.229 C 
ENDBRANCH  11  13
ENDBRANCH   9  11
ENDBRANCH   1   9
TORSDOF 3
ENDMDL
