MODEL 1
REMARK VINA RESULT:      -5.7      0.000      0.000
REMARK  Name = 
REMARK  2 active torsions:
REMARK  status: ('A' for Active; 'I' for Inactive)
REMARK    1  A    between atoms: N_1  and  C_2
REMARK    2  A    between atoms: C_4  and  N_5
REMARK                            x       y       z     vdW  Elec       q    Type
REMARK                         _______ _______ _______ _____ _____    ______ ____
ROOT
ATOM      1  C   UNL     1       4.609  -5.989  23.856  0.00  0.00    +0.027 A 
ATOM      2  C   UNL     1       5.811  -5.310  23.666  0.00  0.00    +0.037 A 
ATOM      3  C   UNL     1       6.724  -5.169  24.719  0.00  0.00    +0.056 A 
ATOM      4  C   UNL     1       6.458  -5.732  25.970  0.00  0.00    +0.074 A 
ATOM      5  C   UNL     1       7.441  -5.547  27.069  0.00  0.00    +0.273 A 
ATOM      6  N   UNL     1       8.621  -4.917  26.756  0.00  0.00    -0.263 N 
ATOM      7  H   UNL     1       9.278  -4.753  27.512  0.00  0.00    +0.190 HD
ATOM      8  N   UNL     1       8.869  -4.358  25.516  0.00  0.00    -0.263 N 
ATOM      9  H   UNL     1       9.738  -3.854  25.362  0.00  0.00    +0.190 HD
ATOM     10  O   UNL     1       7.218  -5.916  28.218  0.00  0.00    -0.266 OA
ATOM     11  C   UNL     1       5.257  -6.439  26.177  0.00  0.00    +0.040 A 
ATOM     12  C   UNL     1       7.980  -4.432  24.475  0.00  0.00    +0.271 A 
ATOM     13  O   UNL     1       8.220  -3.906  23.394  0.00  0.00    -0.266 OA
ATOM     14  C   UNL     1       4.377  -6.600  25.092  0.00  0.00    +0.046 A 
ENDROOT
BRANCH   1  15
ATOM     15  N   UNL     1       3.778  -6.265  22.767  0.00  0.00    -0.358 N 
ATOM     16  H   UNL     1       3.437  -7.221  22.727  0.00  0.00    +0.142 HD
ATOM     17  H   UNL     1       4.136  -5.946  21.872  0.00  0.00    +0.142 HD
ENDBRANCH   1  15
BRANCH  11  18
ATOM     18  N   UNL     1       5.012  -7.192  27.342  0.00  0.00    -0.357 N 
ATOM     19  H   UNL     1       4.049  -7.088  27.682  0.00  0.00    +0.142 HD
ATOM     20  H   UNL     1       5.308  -8.161  27.298  0.00  0.00    +0.142 HD
ENDBRANCH  11  18
TORSDOF 2
ENDMDL
MODEL 2
REMARK VINA RESULT:      -5.5      1.528      1.813
REMARK  Name = 
REMARK  2 active torsions:
REMARK  status: ('A' for Active; 'I' for Inactive)
REMARK    1  A    between atoms: N_1  and  C_2
REMARK    2  A    between atoms: C_4  and  N_5
REMARK                            x       y       z     vdW  Elec       q    Type
REMARK                         _______ _______ _______ _____ _____    ______ ____
ROOT
ATOM      1  C   UNL     1       6.297  -5.033  22.486  0.00  0.00    +0.027 A 
ATOM      2  C   UNL     1       7.506  -4.783  23.132  0.00  0.00    +0.037 A 
ATOM      3  C   UNL     1       7.654  -5.056  24.498  0.00  0.00    +0.056 A 
ATOM      4  C   UNL     1       6.600  -5.613  25.229  0.00  0.00    +0.074 A 
ATOM      5  C   UNL     1       6.786  -5.873  26.680  0.00  0.00    +0.273 A 
ATOM      6  N   UNL     1       8.037  -5.649  27.202  0.00  0.00    -0.263 N 
ATOM      7  H   UNL     1       8.159  -5.787  28.201  0.00  0.00    +0.190 HD
ATOM      8  N   UNL     1       9.069  -5.092  26.470  0.00  0.00    -0.263 N 
ATOM      9  H   UNL     1       9.955  -4.897  26.927  0.00  0.00    +0.190 HD
ATOM     10  O   UNL     1       5.869  -6.252  27.402  0.00  0.00    -0.266 OA
ATOM     11  C   UNL     1       5.377  -5.891  24.589  0.00  0.00    +0.040 A 
ATOM     12  C   UNL     1       8.949  -4.765  25.145  0.00  0.00    +0.271 A 
ATOM     13  O   UNL     1       9.875  -4.250  24.529  0.00  0.00    -0.266 OA
ATOM     14  C   UNL     1       5.269  -5.644  23.209  0.00  0.00    +0.046 A 
ENDROOT
BRANCH   1  15
ATOM     15  N   UNL     1       6.205  -4.910  21.096  0.00  0.00    -0.358 N 
ATOM     16  H   UNL     1       6.868  -5.479  20.577  0.00  0.00    +0.142 HD
ATOM     17  H   UNL     1       6.171  -3.953  20.759  0.00  0.00    +0.142 HD
ENDBRANCH   1  15
BRANCH  11  18
ATOM     18  N   UNL     1       4.346  -6.624  25.210  0.00  0.00    -0.357 N 
ATOM     19  H   UNL     1       4.281  -6.434  26.217  0.00  0.00    +0.142 HD
ATOM     20  H   UNL     1       3.446  -6.578  24.745  0.00  0.00    +0.142 HD
ENDBRANCH  11  18
TORSDOF 2
ENDMDL
MODEL 3
REMARK VINA RESULT:      -5.5      5.252      7.004
REMARK  Name = 
REMARK  2 active torsions:
REMARK  status: ('A' for Active; 'I' for Inactive)
REMARK    1  A    between atoms: N_1  and  C_2
REMARK    2  A    between atoms: C_4  and  N_5
REMARK                            x       y       z     vdW  Elec       q    Type
REMARK                         _______ _______ _______ _____ _____    ______ ____
ROOT
ATOM      1  C   UNL     1       9.938   1.606  22.843  0.00  0.00    +0.027 A 
ATOM      2  C   UNL     1      10.084   0.220  22.839  0.00  0.00    +0.037 A 
ATOM      3  C   UNL     1       9.615  -0.549  23.913  0.00  0.00    +0.056 A 
ATOM      4  C   UNL     1       8.966   0.058  24.991  0.00  0.00    +0.074 A 
ATOM      5  C   UNL     1       8.497  -0.787  26.120  0.00  0.00    +0.273 A 
ATOM      6  N   UNL     1       8.635  -2.147  25.985  0.00  0.00    -0.263 N 
ATOM      7  H   UNL     1       8.353  -2.726  26.770  0.00  0.00    +0.190 HD
ATOM      8  N   UNL     1       9.285  -2.735  24.916  0.00  0.00    -0.263 N 
ATOM      9  H   UNL     1       9.406  -3.743  24.900  0.00  0.00    +0.190 HD
ATOM     10  O   UNL     1       8.024  -0.307  27.146  0.00  0.00    -0.266 OA
ATOM     11  C   UNL     1       8.791   1.456  25.004  0.00  0.00    +0.040 A 
ATOM     12  C   UNL     1       9.802  -2.013  23.872  0.00  0.00    +0.271 A 
ATOM     13  O   UNL     1      10.394  -2.562  22.949  0.00  0.00    -0.266 OA
ATOM     14  C   UNL     1       9.236   2.199  23.897  0.00  0.00    +0.046 A 
ENDROOT
BRANCH   1  15
ATOM     15  N   UNL     1      10.262   2.350  21.705  0.00  0.00    -0.358 N 
ATOM     16  H   UNL     1      10.244   1.821  20.837  0.00  0.00    +0.142 HD
ATOM     17  H   UNL     1      11.100   2.915  21.795  0.00  0.00    +0.142 HD
ENDBRANCH   1  15
BRANCH  11  18
ATOM     18  N   UNL     1       7.983   2.109  25.955  0.00  0.00    -0.357 N 
ATOM     19  H   UNL     1       8.303   1.952  26.917  0.00  0.00    +0.142 HD
ATOM     20  H   UNL     1       7.796   3.088  25.761  0.00  0.00    +0.142 HD
ENDBRANCH  11  18
TORSDOF 2
ENDMDL
MODEL 4
REMARK VINA RESULT:      -5.4      1.860      3.889
REMARK  Name = 
REMARK  2 active torsions:
REMARK  status: ('A' for Active; 'I' for Inactive)
REMARK    1  A    between atoms: N_1  and  C_2
REMARK    2  A    between atoms: C_4  and  N_5
REMARK                            x       y       z     vdW  Elec       q    Type
REMARK                         _______ _______ _______ _____ _____    ______ ____
ROOT
ATOM      1  C   UNL     1       8.859  -3.583  24.155  0.00  0.00    +0.027 A 
ATOM      2  C   UNL     1       7.647  -3.543  23.467  0.00  0.00    +0.037 A 
ATOM      3  C   UNL     1       6.556  -4.309  23.900  0.00  0.00    +0.056 A 
ATOM      4  C   UNL     1       6.656  -5.103  25.046  0.00  0.00    +0.074 A 
ATOM      5  C   UNL     1       5.485  -5.915  25.466  0.00  0.00    +0.273 A 
ATOM      6  N   UNL     1       4.321  -5.752  24.754  0.00  0.00    -0.263 N 
ATOM      7  H   UNL     1       3.530  -6.334  25.012  0.00  0.00    +0.190 HD
ATOM      8  N   UNL     1       4.237  -4.969  23.618  0.00  0.00    -0.263 N 
ATOM      9  H   UNL     1       3.364  -4.933  23.101  0.00  0.00    +0.190 HD
ATOM     10  O   UNL     1       5.541  -6.718  26.393  0.00  0.00    -0.266 OA
ATOM     11  C   UNL     1       7.866  -5.141  25.766  0.00  0.00    +0.040 A 
ATOM     12  C   UNL     1       5.295  -4.244  23.135  0.00  0.00    +0.271 A 
ATOM     13  O   UNL     1       5.196  -3.577  22.111  0.00  0.00    -0.266 OA
ATOM     14  C   UNL     1       8.932  -4.333  25.333  0.00  0.00    +0.046 A 
ENDROOT
BRANCH   1  15
ATOM     15  N   UNL     1       9.888  -2.701  23.815  0.00  0.00    -0.358 N 
ATOM     16  H   UNL     1       9.896  -1.837  24.349  0.00  0.00    +0.142 HD
ATOM     17  H   UNL     1       9.994  -2.540  22.819  0.00  0.00    +0.142 HD
ENDBRANCH   1  15
BRANCH  11  18
ATOM     18  N   UNL     1       7.979  -5.761  27.026  0.00  0.00    -0.357 N 
ATOM     19  H   UNL     1       8.614  -5.259  27.656  0.00  0.00    +0.142 HD
ATOM     20  H   UNL     1       7.097  -5.999  27.468  0.00  0.00    +0.142 HD
ENDBRANCH  11  18
TORSDOF 2
ENDMDL
MODEL 5
REMARK VINA RESULT:      -5.4      5.919      7.477
REMARK  Name = 
REMARK  2 active torsions:
REMARK  status: ('A' for Active; 'I' for Inactive)
REMARK    1  A    between atoms: N_1  and  C_2
REMARK    2  A    between atoms: C_4  and  N_5
REMARK                            x       y       z     vdW  Elec       q    Type
REMARK                         _______ _______ _______ _____ _____    ______ ____
ROOT
ATOM      1  C   UNL     1       8.595  -0.142  26.036  0.00  0.00    +0.027 A 
ATOM      2  C   UNL     1       9.226  -1.022  25.159  0.00  0.00    +0.037 A 
ATOM      3  C   UNL     1       9.276  -0.745  23.786  0.00  0.00    +0.056 A 
ATOM      4  C   UNL     1       8.720   0.432  23.278  0.00  0.00    +0.074 A 
ATOM      5  C   UNL     1       8.776   0.683  21.815  0.00  0.00    +0.273 A 
ATOM      6  N   UNL     1       9.476  -0.218  21.049  0.00  0.00    -0.263 N 
ATOM      7  H   UNL     1       9.483  -0.071  20.044  0.00  0.00    +0.190 HD
ATOM      8  N   UNL     1      10.016  -1.382  21.563  0.00  0.00    -0.263 N 
ATOM      9  H   UNL     1      10.474  -2.037  20.936  0.00  0.00    +0.190 HD
ATOM     10  O   UNL     1       8.209   1.638  21.290  0.00  0.00    -0.266 OA
ATOM     11  C   UNL     1       8.096   1.344  24.151  0.00  0.00    +0.040 A 
ATOM     12  C   UNL     1       9.945  -1.711  22.891  0.00  0.00    +0.271 A 
ATOM     13  O   UNL     1      10.413  -2.763  23.313  0.00  0.00    -0.266 OA
ATOM     14  C   UNL     1       8.095   1.061  25.528  0.00  0.00    +0.046 A 
ENDROOT
BRANCH   1  15
ATOM     15  N   UNL     1       8.687  -0.341  27.417  0.00  0.00    -0.358 N 
ATOM     16  H   UNL     1       8.635   0.510  27.970  0.00  0.00    +0.142 HD
ATOM     17  H   UNL     1       9.452  -0.943  27.706  0.00  0.00    +0.142 HD
ENDBRANCH   1  15
BRANCH  11  18
ATOM     18  N   UNL     1       7.689   2.628  23.742  0.00  0.00    -0.357 N 
ATOM     19  H   UNL     1       7.985   3.362  24.395  0.00  0.00    +0.142 HD
ATOM     20  H   UNL     1       7.898   2.858  22.776  0.00  0.00    +0.142 HD
ENDBRANCH  11  18
TORSDOF 2
ENDMDL
MODEL 6
REMARK VINA RESULT:      -5.4      2.021      3.578
REMARK  Name = 
REMARK  2 active torsions:
REMARK  status: ('A' for Active; 'I' for Inactive)
REMARK    1  A    between atoms: N_1  and  C_2
REMARK    2  A    between atoms: C_4  and  N_5
REMARK                            x       y       z     vdW  Elec       q    Type
REMARK                         _______ _______ _______ _____ _____    ______ ____
ROOT
ATOM      1  C   UNL     1       6.501  -3.927  22.624  0.00  0.00    +0.027 A 
ATOM      2  C   UNL     1       5.860  -4.704  23.587  0.00  0.00    +0.037 A 
ATOM      3  C   UNL     1       6.523  -5.067  24.767  0.00  0.00    +0.056 A 
ATOM      4  C   UNL     1       7.828  -4.632  25.011  0.00  0.00    +0.074 A 
ATOM      5  C   UNL     1       8.506  -5.051  26.264  0.00  0.00    +0.273 A 
ATOM      6  N   UNL     1       7.762  -5.763  27.173  0.00  0.00    -0.263 N 
ATOM      7  H   UNL     1       8.232  -6.086  28.013  0.00  0.00    +0.190 HD
ATOM      8  N   UNL     1       6.473  -6.194  26.917  0.00  0.00    -0.263 N 
ATOM      9  H   UNL     1       5.993  -6.766  27.605  0.00  0.00    +0.190 HD
ATOM     10  O   UNL     1       9.687  -4.800  26.487  0.00  0.00    -0.266 OA
ATOM     11  C   UNL     1       8.486  -3.829  24.058  0.00  0.00    +0.040 A 
ATOM     12  C   UNL     1       5.809  -5.901  25.754  0.00  0.00    +0.271 A 
ATOM     13  O   UNL     1       4.675  -6.317  25.547  0.00  0.00    -0.266 OA
ATOM     14  C   UNL     1       7.784  -3.447  22.902  0.00  0.00    +0.046 A 
ENDROOT
BRANCH   1  15
ATOM     15  N   UNL     1       5.786  -3.436  21.528  0.00  0.00    -0.358 N 
ATOM     16  H   UNL     1       6.359  -2.999  20.812  0.00  0.00    +0.142 HD
ATOM     17  H   UNL     1       4.977  -2.874  21.771  0.00  0.00    +0.142 HD
ENDBRANCH   1  15
BRANCH  11  18
ATOM     18  N   UNL     1       9.719  -3.199  24.320  0.00  0.00    -0.357 N 
ATOM     19  H   UNL     1      10.520  -3.754  23.998  0.00  0.00    +0.142 HD
ATOM     20  H   UNL     1       9.775  -2.228  24.032  0.00  0.00    +0.142 HD
ENDBRANCH  11  18
TORSDOF 2
ENDMDL
MODEL 7
REMARK VINA RESULT:      -5.2      1.867      3.332
REMARK  Name = 
REMARK  2 active torsions:
REMARK  status: ('A' for Active; 'I' for Inactive)
REMARK    1  A    between atoms: N_1  and  C_2
REMARK    2  A    between atoms: C_4  and  N_5
REMARK                            x       y       z     vdW  Elec       q    Type
REMARK                         _______ _______ _______ _____ _____    ______ ____
ROOT
ATOM      1  C   UNL     1       6.935  -3.964  23.194  0.00  0.00    +0.027 A 
ATOM      2  C   UNL     1       7.409  -4.184  24.486  0.00  0.00    +0.037 A 
ATOM      3  C   UNL     1       6.741  -5.060  25.351  0.00  0.00    +0.056 A 
ATOM      4  C   UNL     1       5.604  -5.750  24.924  0.00  0.00    +0.074 A 
ATOM      5  C   UNL     1       4.910  -6.657  25.874  0.00  0.00    +0.273 A 
ATOM      6  N   UNL     1       5.498  -6.850  27.101  0.00  0.00    -0.263 N 
ATOM      7  H   UNL     1       5.007  -7.437  27.768  0.00  0.00    +0.190 HD
ATOM      8  N   UNL     1       6.619  -6.155  27.514  0.00  0.00    -0.263 N 
ATOM      9  H   UNL     1       6.975  -6.299  28.455  0.00  0.00    +0.190 HD
ATOM     10  O   UNL     1       3.845  -7.204  25.601  0.00  0.00    -0.266 OA
ATOM     11  C   UNL     1       5.120  -5.556  23.615  0.00  0.00    +0.040 A 
ATOM     12  C   UNL     1       7.272  -5.254  26.715  0.00  0.00    +0.271 A 
ATOM     13  O   UNL     1       8.251  -4.636  27.120  0.00  0.00    -0.266 OA
ATOM     14  C   UNL     1       5.832  -4.703  22.755  0.00  0.00    +0.046 A 
ENDROOT
BRANCH   1  15
ATOM     15  N   UNL     1       7.691  -3.217  22.286  0.00  0.00    -0.358 N 
ATOM     16  H   UNL     1       8.287  -3.771  21.677  0.00  0.00    +0.142 HD
ATOM     17  H   UNL     1       8.183  -2.429  22.695  0.00  0.00    +0.142 HD
ENDBRANCH   1  15
BRANCH  11  18
ATOM     18  N   UNL     1       4.103  -6.356  23.056  0.00  0.00    -0.357 N 
ATOM     19  H   UNL     1       3.327  -5.800  22.681  0.00  0.00    +0.142 HD
ATOM     20  H   UNL     1       4.424  -7.068  22.408  0.00  0.00    +0.142 HD
ENDBRANCH  11  18
TORSDOF 2
ENDMDL
MODEL 8
REMARK VINA RESULT:      -5.2      4.620      7.136
REMARK  Name = 
REMARK  2 active torsions:
REMARK  status: ('A' for Active; 'I' for Inactive)
REMARK    1  A    between atoms: N_1  and  C_2
REMARK    2  A    between atoms: C_4  and  N_5
REMARK                            x       y       z     vdW  Elec       q    Type
REMARK                         _______ _______ _______ _____ _____    ______ ____
ROOT
ATOM      1  C   UNL     1      10.184   1.456  23.669  0.00  0.00    +0.027 A 
ATOM      2  C   UNL     1       9.806   0.754  24.811  0.00  0.00    +0.037 A 
ATOM      3  C   UNL     1       9.235  -0.522  24.707  0.00  0.00    +0.056 A 
ATOM      4  C   UNL     1       9.063  -1.123  23.457  0.00  0.00    +0.074 A 
ATOM      5  C   UNL     1       8.438  -2.468  23.383  0.00  0.00    +0.273 A 
ATOM      6  N   UNL     1       8.161  -3.098  24.573  0.00  0.00    -0.263 N 
ATOM      7  H   UNL     1       7.697  -4.000  24.528  0.00  0.00    +0.190 HD
ATOM      8  N   UNL     1       8.330  -2.490  25.803  0.00  0.00    -0.263 N 
ATOM      9  H   UNL     1       8.053  -2.985  26.645  0.00  0.00    +0.190 HD
ATOM     10  O   UNL     1       8.154  -3.003  22.315  0.00  0.00    -0.266 OA
ATOM     11  C   UNL     1       9.458  -0.437  22.292  0.00  0.00    +0.040 A 
ATOM     12  C   UNL     1       8.839  -1.225  25.943  0.00  0.00    +0.271 A 
ATOM     13  O   UNL     1       8.954  -0.704  27.047  0.00  0.00    -0.266 OA
ATOM     14  C   UNL     1      10.064   0.824  22.427  0.00  0.00    +0.046 A 
ENDROOT
BRANCH   1  15
ATOM     15  N   UNL     1      10.897   2.654  23.784  0.00  0.00    -0.358 N 
ATOM     16  H   UNL     1      10.892   3.230  22.947  0.00  0.00    +0.142 HD
ATOM     17  H   UNL     1      11.826   2.555  24.180  0.00  0.00    +0.142 HD
ENDBRANCH   1  15
BRANCH  11  18
ATOM     18  N   UNL     1       9.493  -1.052  21.025  0.00  0.00    -0.357 N 
ATOM     19  H   UNL     1       9.652  -0.381  20.266  0.00  0.00    +0.142 HD
ATOM     20  H   UNL     1      10.095  -1.867  20.960  0.00  0.00    +0.142 HD
ENDBRANCH  11  18
TORSDOF 2
ENDMDL
MODEL 9
REMARK VINA RESULT:      -5.1      3.364      4.641
REMARK  Name = 
REMARK  2 active torsions:
REMARK  status: ('A' for Active; 'I' for Inactive)
REMARK    1  A    between atoms: N_1  and  C_2
REMARK    2  A    between atoms: C_4  and  N_5
REMARK                            x       y       z     vdW  Elec       q    Type
REMARK                         _______ _______ _______ _____ _____    ______ ____
ROOT
ATOM      1  C   UNL     1       9.018  -4.922  25.328  0.00  0.00    +0.027 A 
ATOM      2  C   UNL     1       8.460  -5.130  24.068  0.00  0.00    +0.037 A 
ATOM      3  C   UNL     1       7.456  -4.280  23.585  0.00  0.00    +0.056 A 
ATOM      4  C   UNL     1       7.019  -3.192  24.345  0.00  0.00    +0.074 A 
ATOM      5  C   UNL     1       5.941  -2.322  23.809  0.00  0.00    +0.273 A 
ATOM      6  N   UNL     1       5.506  -2.579  22.531  0.00  0.00    -0.263 N 
ATOM      7  H   UNL     1       4.742  -2.012  22.175  0.00  0.00    +0.190 HD
ATOM      8  N   UNL     1       5.941  -3.662  21.791  0.00  0.00    -0.263 N 
ATOM      9  H   UNL     1       5.540  -3.832  20.874  0.00  0.00    +0.190 HD
ATOM     10  O   UNL     1       5.433  -1.422  24.471  0.00  0.00    -0.266 OA
ATOM     11  C   UNL     1       7.586  -2.954  25.613  0.00  0.00    +0.040 A 
ATOM     12  C   UNL     1       6.885  -4.544  22.249  0.00  0.00    +0.271 A 
ATOM     13  O   UNL     1       7.233  -5.510  21.579  0.00  0.00    -0.266 OA
ATOM     14  C   UNL     1       8.618  -3.798  26.057  0.00  0.00    +0.046 A 
ENDROOT
BRANCH   1  15
ATOM     15  N   UNL     1      10.125  -5.672  25.738  0.00  0.00    -0.358 N 
ATOM     16  H   UNL     1      10.889  -5.121  26.120  0.00  0.00    +0.142 HD
ATOM     17  H   UNL     1      10.444  -6.357  25.061  0.00  0.00    +0.142 HD
ENDBRANCH   1  15
BRANCH  11  18
ATOM     18  N   UNL     1       7.336  -1.777  26.346  0.00  0.00    -0.357 N 
ATOM     19  H   UNL     1       7.074  -0.987  25.744  0.00  0.00    +0.142 HD
ATOM     20  H   UNL     1       6.712  -1.888  27.138  0.00  0.00    +0.142 HD
ENDBRANCH  11  18
TORSDOF 2
ENDMDL
