MODEL 1
REMARK VINA RESULT:      -4.6      0.000      0.000
REMARK  Name = 
REMARK  9 active torsions:
REMARK  status: ('A' for Active; 'I' for Inactive)
REMARK    1  A    between atoms: C_1  and  C_2
REMARK    2  A    between atoms: C_2  and  C_3
REMARK    3  A    between atoms: C_3  and  C_4
REMARK    4  A    between atoms: C_4  and  C_5
REMARK    5  A    between atoms: C_5  and  C_7
REMARK    6  A    between atoms: C_5  and  C_12
REMARK    7  A    between atoms: C_7  and  N_8
REMARK    8  A    between atoms: N_8  and  O_9
REMARK    9  A    between atoms: C_12  and  O_13
REMARK                            x       y       z     vdW  Elec       q    Type
REMARK                         _______ _______ _______ _____ _____    ______ ____
ROOT
ATOM      1  C   UNL     1       9.686  -2.195  23.937  0.00  0.00    +0.117 C 
ENDROOT
BRANCH   1   2
ATOM      2  C   UNL     1       9.374  -1.767  22.510  0.00  0.00    +0.309 C 
ATOM      3  O   UNL     1       8.262  -1.549  22.058  0.00  0.00    -0.251 OA
BRANCH   2   4
ATOM      4  O   UNL     1      10.478  -1.645  21.734  0.00  0.00    -0.480 OA
ATOM      5  H   UNL     1      11.150  -2.339  21.859  0.00  0.00    +0.295 HD
ENDBRANCH   2   4
ENDBRANCH   1   2
BRANCH   1   6
ATOM      6  C   UNL     1       9.384  -1.050  24.921  0.00  0.00    +0.016 C 
BRANCH   6   7
ATOM      7  C   UNL     1      10.403   0.093  24.857  0.00  0.00    +0.001 C 
BRANCH   7   9
ATOM      8  C   UNL     1      10.189   1.845  23.063  0.00  0.00    +0.004 C 
ATOM      9  C   UNL     1       9.749   1.418  24.456  0.00  0.00    -0.003 C 
ENDBRANCH   7   9
ENDBRANCH   6   7
ENDBRANCH   1   6
BRANCH   1  10
ATOM     10  C   UNL     1       8.977  -3.531  24.251  0.00  0.00    +0.154 C 
BRANCH  10  11
ATOM     11  N   UNL     1       9.550  -4.260  25.381  0.00  0.00    -0.186 N 
ATOM     12  C   UNL     1       8.810  -4.527  26.516  0.00  0.00    +0.352 C 
ATOM     13  O   UNL     1       7.740  -4.020  26.827  0.00  0.00    -0.277 OA
BRANCH  11  14
ATOM     14  O   UNL     1      10.389  -5.330  24.993  0.00  0.00    -0.293 OA
ATOM     15  H   UNL     1       9.760  -5.919  24.537  0.00  0.00    +0.242 HD
ENDBRANCH  11  14
ENDBRANCH  10  11
ENDBRANCH   1  10
TORSDOF 8
ENDMDL
MODEL 2
REMARK VINA RESULT:      -4.5      2.219      5.266
REMARK  Name = 
REMARK  9 active torsions:
REMARK  status: ('A' for Active; 'I' for Inactive)
REMARK    1  A    between atoms: C_1  and  C_2
REMARK    2  A    between atoms: C_2  and  C_3
REMARK    3  A    between atoms: C_3  and  C_4
REMARK    4  A    between atoms: C_4  and  C_5
REMARK    5  A    between atoms: C_5  and  C_7
REMARK    6  A    between atoms: C_5  and  C_12
REMARK    7  A    between atoms: C_7  and  N_8
REMARK    8  A    between atoms: N_8  and  O_9
REMARK    9  A    between atoms: C_12  and  O_13
REMARK                            x       y       z     vdW  Elec       q    Type
REMARK                         _______ _______ _______ _____ _____    ______ ____
ROOT
ATOM      1  C   UNL     1       8.827  -3.988  24.250  0.00  0.00    +0.117 C 
ENDROOT
BRANCH   1   2
ATOM      2  C   UNL     1       9.367  -4.663  25.502  0.00  0.00    +0.309 C 
ATOM      3  O   UNL     1       9.063  -4.384  26.650  0.00  0.00    -0.251 OA
BRANCH   2   4
ATOM      4  O   UNL     1      10.263  -5.644  25.237  0.00  0.00    -0.480 OA
ATOM      5  H   UNL     1       9.891  -6.544  25.197  0.00  0.00    +0.295 HD
ENDBRANCH   2   4
ENDBRANCH   1   2
BRANCH   1   6
ATOM      6  C   UNL     1       7.287  -3.998  24.253  0.00  0.00    +0.016 C 
BRANCH   6   7
ATOM      7  C   UNL     1       6.687  -5.288  23.681  0.00  0.00    +0.001 C 
BRANCH   7   9
ATOM      8  C   UNL     1       6.334  -5.751  21.233  0.00  0.00    +0.004 C 
ATOM      9  C   UNL     1       7.352  -5.691  22.363  0.00  0.00    -0.003 C 
ENDBRANCH   7   9
ENDBRANCH   6   7
ENDBRANCH   1   6
BRANCH   1  10
ATOM     10  C   UNL     1       9.469  -2.592  24.087  0.00  0.00    +0.154 C 
BRANCH  10  11
ATOM     11  N   UNL     1       9.318  -2.016  22.752  0.00  0.00    -0.186 N 
ATOM     12  C   UNL     1       8.415  -1.001  22.504  0.00  0.00    +0.352 C 
ATOM     13  O   UNL     1       7.507  -0.634  23.239  0.00  0.00    -0.277 OA
BRANCH  11  14
ATOM     14  O   UNL     1      10.543  -1.859  22.065  0.00  0.00    -0.293 OA
ATOM     15  H   UNL     1      10.998  -2.695  22.279  0.00  0.00    +0.242 HD
ENDBRANCH  11  14
ENDBRANCH  10  11
ENDBRANCH   1  10
TORSDOF 8
ENDMDL
MODEL 3
REMARK VINA RESULT:      -4.5      1.993      2.723
REMARK  Name = 
REMARK  9 active torsions:
REMARK  status: ('A' for Active; 'I' for Inactive)
REMARK    1  A    between atoms: C_1  and  C_2
REMARK    2  A    between atoms: C_2  and  C_3
REMARK    3  A    between atoms: C_3  and  C_4
REMARK    4  A    between atoms: C_4  and  C_5
REMARK    5  A    between atoms: C_5  and  C_7
REMARK    6  A    between atoms: C_5  and  C_12
REMARK    7  A    between atoms: C_7  and  N_8
REMARK    8  A    between atoms: N_8  and  O_9
REMARK    9  A    between atoms: C_12  and  O_13
REMARK                            x       y       z     vdW  Elec       q    Type
REMARK                         _______ _______ _______ _____ _____    ______ ____
ROOT
ATOM      1  C   UNL     1      10.043  -0.834  24.487  0.00  0.00    +0.117 C 
ENDROOT
BRANCH   1   2
ATOM      2  C   UNL     1      10.174  -1.918  23.427  0.00  0.00    +0.309 C 
ATOM      3  O   UNL     1      10.406  -1.734  22.244  0.00  0.00    -0.251 OA
BRANCH   2   4
ATOM      4  O   UNL     1       9.998  -3.169  23.915  0.00  0.00    -0.480 OA
ATOM      5  H   UNL     1      10.789  -3.739  23.887  0.00  0.00    +0.295 HD
ENDBRANCH   2   4
ENDBRANCH   1   2
BRANCH   1   6
ATOM      6  C   UNL     1      10.813   0.430  24.063  0.00  0.00    +0.016 C 
BRANCH   6   7
ATOM      7  C   UNL     1       9.900   1.580  23.624  0.00  0.00    +0.001 C 
BRANCH   7   9
ATOM      8  C   UNL     1       8.542   1.571  21.506  0.00  0.00    +0.004 C 
ATOM      9  C   UNL     1       9.924   1.781  22.107  0.00  0.00    -0.003 C 
ENDBRANCH   7   9
ENDBRANCH   6   7
ENDBRANCH   1   6
BRANCH   1  10
ATOM     10  C   UNL     1       8.552  -0.608  24.825  0.00  0.00    +0.154 C 
BRANCH  10  11
ATOM     11  N   UNL     1       8.177  -1.016  26.178  0.00  0.00    -0.186 N 
ATOM     12  C   UNL     1       7.772  -2.307  26.454  0.00  0.00    +0.352 C 
ATOM     13  O   UNL     1       7.451  -3.163  25.641  0.00  0.00    -0.277 OA
BRANCH  11  14
ATOM     14  O   UNL     1       9.000  -0.457  27.182  0.00  0.00    -0.293 OA
ATOM     15  H   UNL     1       9.141  -1.222  27.771  0.00  0.00    +0.242 HD
ENDBRANCH  11  14
ENDBRANCH  10  11
ENDBRANCH   1  10
TORSDOF 8
ENDMDL
MODEL 4
REMARK VINA RESULT:      -4.5      2.190      3.156
REMARK  Name = 
REMARK  9 active torsions:
REMARK  status: ('A' for Active; 'I' for Inactive)
REMARK    1  A    between atoms: C_1  and  C_2
REMARK    2  A    between atoms: C_2  and  C_3
REMARK    3  A    between atoms: C_3  and  C_4
REMARK    4  A    between atoms: C_4  and  C_5
REMARK    5  A    between atoms: C_5  and  C_7
REMARK    6  A    between atoms: C_5  and  C_12
REMARK    7  A    between atoms: C_7  and  N_8
REMARK    8  A    between atoms: N_8  and  O_9
REMARK    9  A    between atoms: C_12  and  O_13
REMARK                            x       y       z     vdW  Elec       q    Type
REMARK                         _______ _______ _______ _____ _____    ______ ____
ROOT
ATOM      1  C   UNL     1      10.229   0.756  23.283  0.00  0.00    +0.117 C 
ENDROOT
BRANCH   1   2
ATOM      2  C   UNL     1       9.804   1.202  21.892  0.00  0.00    +0.309 C 
ATOM      3  O   UNL     1       9.084   0.577  21.132  0.00  0.00    -0.251 OA
BRANCH   2   4
ATOM      4  O   UNL     1      10.316   2.404  21.535  0.00  0.00    -0.480 OA
ATOM      5  H   UNL     1      10.791   2.877  22.242  0.00  0.00    +0.295 HD
ENDBRANCH   2   4
ENDBRANCH   1   2
BRANCH   1   6
ATOM      6  C   UNL     1      10.151   1.932  24.274  0.00  0.00    +0.016 C 
BRANCH   6   7
ATOM      7  C   UNL     1       8.752   2.139  24.864  0.00  0.00    +0.001 C 
BRANCH   7   9
ATOM      8  C   UNL     1       9.390   4.477  24.187  0.00  0.00    +0.004 C 
ATOM      9  C   UNL     1       8.374   3.621  24.929  0.00  0.00    -0.003 C 
ENDBRANCH   7   9
ENDBRANCH   6   7
ENDBRANCH   1   6
BRANCH   1  10
ATOM     10  C   UNL     1       9.431  -0.501  23.698  0.00  0.00    +0.154 C 
BRANCH  10  11
ATOM     11  N   UNL     1      10.120  -1.762  23.432  0.00  0.00    -0.186 N 
ATOM     12  C   UNL     1       9.718  -2.942  24.025  0.00  0.00    +0.352 C 
ATOM     13  O   UNL     1       8.954  -3.060  24.974  0.00  0.00    -0.277 OA
BRANCH  11  14
ATOM     14  O   UNL     1      10.510  -1.916  22.081  0.00  0.00    -0.293 OA
ATOM     15  H   UNL     1      11.380  -1.475  22.075  0.00  0.00    +0.242 HD
ENDBRANCH  11  14
ENDBRANCH  10  11
ENDBRANCH   1  10
TORSDOF 8
ENDMDL
MODEL 5
REMARK VINA RESULT:      -4.4      2.933      5.606
REMARK  Name = 
REMARK  9 active torsions:
REMARK  status: ('A' for Active; 'I' for Inactive)
REMARK    1  A    between atoms: C_1  and  C_2
REMARK    2  A    between atoms: C_2  and  C_3
REMARK    3  A    between atoms: C_3  and  C_4
REMARK    4  A    between atoms: C_4  and  C_5
REMARK    5  A    between atoms: C_5  and  C_7
REMARK    6  A    between atoms: C_5  and  C_12
REMARK    7  A    between atoms: C_7  and  N_8
REMARK    8  A    between atoms: N_8  and  O_9
REMARK    9  A    between atoms: C_12  and  O_13
REMARK                            x       y       z     vdW  Elec       q    Type
REMARK                         _______ _______ _______ _____ _____    ______ ____
ROOT
ATOM      1  C   UNL     1       8.260  -1.424  22.822  0.00  0.00    +0.117 C 
ENDROOT
BRANCH   1   2
ATOM      2  C   UNL     1       9.676  -1.977  22.756  0.00  0.00    +0.309 C 
ATOM      3  O   UNL     1      10.190  -2.720  23.576  0.00  0.00    -0.251 OA
BRANCH   2   4
ATOM      4  O   UNL     1      10.366  -1.557  21.668  0.00  0.00    -0.480 OA
ATOM      5  H   UNL     1      11.225  -1.995  21.529  0.00  0.00    +0.295 HD
ENDBRANCH   2   4
ENDBRANCH   1   2
BRANCH   1   6
ATOM      6  C   UNL     1       7.288  -2.494  23.352  0.00  0.00    +0.016 C 
BRANCH   6   7
ATOM      7  C   UNL     1       6.887  -3.529  22.295  0.00  0.00    +0.001 C 
BRANCH   7   9
ATOM      8  C   UNL     1       6.894  -5.957  21.637  0.00  0.00    +0.004 C 
ATOM      9  C   UNL     1       7.294  -4.947  22.702  0.00  0.00    -0.003 C 
ENDBRANCH   7   9
ENDBRANCH   6   7
ENDBRANCH   1   6
BRANCH   1  10
ATOM     10  C   UNL     1       8.253  -0.091  23.603  0.00  0.00    +0.154 C 
BRANCH  10  11
ATOM     11  N   UNL     1       7.816   1.061  22.815  0.00  0.00    -0.186 N 
ATOM     12  C   UNL     1       8.633   1.630  21.858  0.00  0.00    +0.352 C 
ATOM     13  O   UNL     1       9.833   1.437  21.712  0.00  0.00    -0.277 OA
BRANCH  11  14
ATOM     14  O   UNL     1       6.458   0.996  22.428  0.00  0.00    -0.293 OA
ATOM     15  H   UNL     1       6.016   0.843  23.284  0.00  0.00    +0.242 HD
ENDBRANCH  11  14
ENDBRANCH  10  11
ENDBRANCH   1  10
TORSDOF 8
ENDMDL
MODEL 6
REMARK VINA RESULT:      -4.4      1.709      2.213
REMARK  Name = 
REMARK  9 active torsions:
REMARK  status: ('A' for Active; 'I' for Inactive)
REMARK    1  A    between atoms: C_1  and  C_2
REMARK    2  A    between atoms: C_2  and  C_3
REMARK    3  A    between atoms: C_3  and  C_4
REMARK    4  A    between atoms: C_4  and  C_5
REMARK    5  A    between atoms: C_5  and  C_7
REMARK    6  A    between atoms: C_5  and  C_12
REMARK    7  A    between atoms: C_7  and  N_8
REMARK    8  A    between atoms: N_8  and  O_9
REMARK    9  A    between atoms: C_12  and  O_13
REMARK                            x       y       z     vdW  Elec       q    Type
REMARK                         _______ _______ _______ _____ _____    ______ ____
ROOT
ATOM      1  C   UNL     1       8.449  -3.253  23.440  0.00  0.00    +0.117 C 
ENDROOT
BRANCH   1   2
ATOM      2  C   UNL     1       7.103  -2.558  23.581  0.00  0.00    +0.309 C 
ATOM      3  O   UNL     1       6.750  -1.559  22.977  0.00  0.00    -0.251 OA
BRANCH   2   4
ATOM      4  O   UNL     1       6.283  -3.155  24.479  0.00  0.00    -0.480 OA
ATOM      5  H   UNL     1       5.852  -2.550  25.110  0.00  0.00    +0.295 HD
ENDBRANCH   2   4
ENDBRANCH   1   2
BRANCH   1   6
ATOM      6  C   UNL     1       9.589  -2.313  23.875  0.00  0.00    +0.016 C 
BRANCH   6   7
ATOM      7  C   UNL     1      10.305  -1.640  22.698  0.00  0.00    +0.001 C 
BRANCH   7   9
ATOM      8  C   UNL     1       9.377   0.362  21.491  0.00  0.00    +0.004 C 
ATOM      9  C   UNL     1      10.132  -0.119  22.721  0.00  0.00    -0.003 C 
ENDBRANCH   7   9
ENDBRANCH   6   7
ENDBRANCH   1   6
BRANCH   1  10
ATOM     10  C   UNL     1       8.415  -4.616  24.165  0.00  0.00    +0.154 C 
BRANCH  10  11
ATOM     11  N   UNL     1       9.255  -4.679  25.360  0.00  0.00    -0.186 N 
ATOM     12  C   UNL     1       8.715  -4.570  26.626  0.00  0.00    +0.352 C 
ATOM     13  O   UNL     1       7.588  -4.185  26.910  0.00  0.00    -0.277 OA
BRANCH  11  14
ATOM     14  O   UNL     1      10.290  -5.639  25.271  0.00  0.00    -0.293 OA
ATOM     15  H   UNL     1      11.059  -5.128  25.583  0.00  0.00    +0.242 HD
ENDBRANCH  11  14
ENDBRANCH  10  11
ENDBRANCH   1  10
TORSDOF 8
ENDMDL
MODEL 7
REMARK VINA RESULT:      -4.4      2.943      3.965
REMARK  Name = 
REMARK  9 active torsions:
REMARK  status: ('A' for Active; 'I' for Inactive)
REMARK    1  A    between atoms: C_1  and  C_2
REMARK    2  A    between atoms: C_2  and  C_3
REMARK    3  A    between atoms: C_3  and  C_4
REMARK    4  A    between atoms: C_4  and  C_5
REMARK    5  A    between atoms: C_5  and  C_7
REMARK    6  A    between atoms: C_5  and  C_12
REMARK    7  A    between atoms: C_7  and  N_8
REMARK    8  A    between atoms: N_8  and  O_9
REMARK    9  A    between atoms: C_12  and  O_13
REMARK                            x       y       z     vdW  Elec       q    Type
REMARK                         _______ _______ _______ _____ _____    ______ ____
ROOT
ATOM      1  C   UNL     1       8.811   0.831  21.987  0.00  0.00    +0.117 C 
ENDROOT
BRANCH   1   2
ATOM      2  C   UNL     1       7.448   1.501  22.073  0.00  0.00    +0.309 C 
ATOM      3  O   UNL     1       7.186   2.634  21.705  0.00  0.00    -0.251 OA
BRANCH   2   4
ATOM      4  O   UNL     1       6.496   0.710  22.624  0.00  0.00    -0.480 OA
ATOM      5  H   UNL     1       5.886   1.162  23.235  0.00  0.00    +0.295 HD
ENDBRANCH   2   4
ENDBRANCH   1   2
BRANCH   1   6
ATOM      6  C   UNL     1       9.932   1.887  21.989  0.00  0.00    +0.016 C 
BRANCH   6   7
ATOM      7  C   UNL     1      10.384   2.293  23.396  0.00  0.00    +0.001 C 
BRANCH   7   9
ATOM      8  C   UNL     1       8.762   3.677  24.732  0.00  0.00    +0.004 C 
ATOM      9  C   UNL     1       9.928   3.710  23.755  0.00  0.00    -0.003 C 
ENDBRANCH   7   9
ENDBRANCH   6   7
ENDBRANCH   1   6
BRANCH   1  10
ATOM     10  C   UNL     1       8.934  -0.252  23.082  0.00  0.00    +0.154 C 
BRANCH  10  11
ATOM     11  N   UNL     1       9.166  -1.600  22.566  0.00  0.00    -0.186 N 
ATOM     12  C   UNL     1       8.117  -2.439  22.247  0.00  0.00    +0.352 C 
ATOM     13  O   UNL     1       6.942  -2.292  22.558  0.00  0.00    -0.277 OA
BRANCH  11  14
ATOM     14  O   UNL     1      10.244  -1.676  21.654  0.00  0.00    -0.293 OA
ATOM     15  H   UNL     1      10.289  -0.759  21.326  0.00  0.00    +0.242 HD
ENDBRANCH  11  14
ENDBRANCH  10  11
ENDBRANCH   1  10
TORSDOF 8
ENDMDL
MODEL 8
REMARK VINA RESULT:      -4.4      2.263      3.147
REMARK  Name = 
REMARK  9 active torsions:
REMARK  status: ('A' for Active; 'I' for Inactive)
REMARK    1  A    between atoms: C_1  and  C_2
REMARK    2  A    between atoms: C_2  and  C_3
REMARK    3  A    between atoms: C_3  and  C_4
REMARK    4  A    between atoms: C_4  and  C_5
REMARK    5  A    between atoms: C_5  and  C_7
REMARK    6  A    between atoms: C_5  and  C_12
REMARK    7  A    between atoms: C_7  and  N_8
REMARK    8  A    between atoms: N_8  and  O_9
REMARK    9  A    between atoms: C_12  and  O_13
REMARK                            x       y       z     vdW  Elec       q    Type
REMARK                         _______ _______ _______ _____ _____    ______ ____
ROOT
ATOM      1  C   UNL     1       8.762  -1.342  22.688  0.00  0.00    +0.117 C 
ENDROOT
BRANCH   1   2
ATOM      2  C   UNL     1       9.777  -1.623  23.787  0.00  0.00    +0.309 C 
ATOM      3  O   UNL     1      10.233  -0.799  24.563  0.00  0.00    -0.251 OA
BRANCH   2   4
ATOM      4  O   UNL     1      10.165  -2.919  23.841  0.00  0.00    -0.480 OA
ATOM      5  H   UNL     1       9.652  -3.479  24.451  0.00  0.00    +0.295 HD
ENDBRANCH   2   4
ENDBRANCH   1   2
BRANCH   1   6
ATOM      6  C   UNL     1       9.422  -0.572  21.529  0.00  0.00    +0.016 C 
BRANCH   6   7
ATOM      7  C   UNL     1       9.030   0.909  21.482  0.00  0.00    +0.001 C 
BRANCH   7   9
ATOM      8  C   UNL     1       9.603   2.486  23.357  0.00  0.00    +0.004 C 
ATOM      9  C   UNL     1      10.110   1.804  22.095  0.00  0.00    -0.003 C 
ENDBRANCH   7   9
ENDBRANCH   6   7
ENDBRANCH   1   6
BRANCH   1  10
ATOM     10  C   UNL     1       8.054  -2.653  22.281  0.00  0.00    +0.154 C 
BRANCH  10  11
ATOM     11  N   UNL     1       6.771  -2.871  22.948  0.00  0.00    -0.186 N 
ATOM     12  C   UNL     1       6.677  -3.627  24.100  0.00  0.00    +0.352 C 
ATOM     13  O   UNL     1       7.533  -4.372  24.558  0.00  0.00    -0.277 OA
BRANCH  11  14
ATOM     14  O   UNL     1       5.939  -1.728  22.956  0.00  0.00    -0.293 OA
ATOM     15  H   UNL     1       6.222  -1.284  23.777  0.00  0.00    +0.242 HD
ENDBRANCH  11  14
ENDBRANCH  10  11
ENDBRANCH   1  10
TORSDOF 8
ENDMDL
MODEL 9
REMARK VINA RESULT:      -4.4      2.511      3.931
REMARK  Name = 
REMARK  9 active torsions:
REMARK  status: ('A' for Active; 'I' for Inactive)
REMARK    1  A    between atoms: C_1  and  C_2
REMARK    2  A    between atoms: C_2  and  C_3
REMARK    3  A    between atoms: C_3  and  C_4
REMARK    4  A    between atoms: C_4  and  C_5
REMARK    5  A    between atoms: C_5  and  C_7
REMARK    6  A    between atoms: C_5  and  C_12
REMARK    7  A    between atoms: C_7  and  N_8
REMARK    8  A    between atoms: N_8  and  O_9
REMARK    9  A    between atoms: C_12  and  O_13
REMARK                            x       y       z     vdW  Elec       q    Type
REMARK                         _______ _______ _______ _____ _____    ______ ____
ROOT
ATOM      1  C   UNL     1       8.451  -3.012  23.853  0.00  0.00    +0.117 C 
ENDROOT
BRANCH   1   2
ATOM      2  C   UNL     1       8.650  -4.412  24.414  0.00  0.00    +0.309 C 
ATOM      3  O   UNL     1       9.724  -4.942  24.644  0.00  0.00    -0.251 OA
BRANCH   2   4
ATOM      4  O   UNL     1       7.487  -5.067  24.646  0.00  0.00    -0.480 OA
ATOM      5  H   UNL     1       7.394  -5.921  24.186  0.00  0.00    +0.295 HD
ENDBRANCH   2   4
ENDBRANCH   1   2
BRANCH   1   6
ATOM      6  C   UNL     1       9.763  -2.210  23.928  0.00  0.00    +0.016 C 
BRANCH   6   7
ATOM      7  C   UNL     1      10.173  -1.587  22.589  0.00  0.00    +0.001 C 
BRANCH   7   9
ATOM      8  C   UNL     1       9.250   0.447  21.431  0.00  0.00    +0.004 C 
ATOM      9  C   UNL     1      10.064  -0.061  22.613  0.00  0.00    -0.003 C 
ENDBRANCH   7   9
ENDBRANCH   6   7
ENDBRANCH   1   6
BRANCH   1  10
ATOM     10  C   UNL     1       7.817  -3.095  22.446  0.00  0.00    +0.154 C 
BRANCH  10  11
ATOM     11  N   UNL     1       6.469  -2.537  22.364  0.00  0.00    -0.186 N 
ATOM     12  C   UNL     1       5.351  -3.318  22.581  0.00  0.00    +0.352 C 
ATOM     13  O   UNL     1       5.310  -4.541  22.622  0.00  0.00    -0.277 OA
BRANCH  11  14
ATOM     14  O   UNL     1       6.363  -1.239  22.915  0.00  0.00    -0.293 OA
ATOM     15  H   UNL     1       7.020  -1.276  23.634  0.00  0.00    +0.242 HD
ENDBRANCH  11  14
ENDBRANCH  10  11
ENDBRANCH   1  10
TORSDOF 8
ENDMDL
