MODEL 1
REMARK VINA RESULT:      -6.4      0.000      0.000
REMARK  Name = 
REMARK  19 active torsions:
REMARK  status: ('A' for Active; 'I' for Inactive)
REMARK    1  A    between atoms: O_1  and  C_2
REMARK    2  A    between atoms: C_2  and  C_3
REMARK    3  A    between atoms: C_2  and  C_23
REMARK    4  A    between atoms: C_3  and  N_4
REMARK    5  A    between atoms: N_4  and  C_5
REMARK    6  A    between atoms: C_5  and  C_6
REMARK    7  A    between atoms: C_6  and  C_7
REMARK    8  A    between atoms: C_7  and  C_8
REMARK    9  A    between atoms: C_8  and  C_9
REMARK   10  A    between atoms: C_9  and  C_10
REMARK   11  A    between atoms: C_10  and  N_11
REMARK   12  A    between atoms: N_11  and  C_12
REMARK   13  A    between atoms: C_12  and  C_13
REMARK   14  A    between atoms: C_13  and  O_14
REMARK   15  A    between atoms: C_13  and  C_15
REMARK   16  A    between atoms: C_17  and  O_18
REMARK   17  A    between atoms: C_19  and  O_20
REMARK   18  A    between atoms: C_25  and  O_26
REMARK   19  A    between atoms: C_27  and  O_28
REMARK                            x       y       z     vdW  Elec       q    Type
REMARK                         _______ _______ _______ _____ _____    ______ ____
ROOT
ATOM      1  C   UNL     1       6.609   0.877  23.908  0.00  0.00    +0.001 C 
ENDROOT
BRANCH   1   2
ATOM      2  C   UNL     1       7.068  -0.159  24.925  0.00  0.00    +0.001 C 
BRANCH   2   3
ATOM      3  C   UNL     1       6.880  -1.567  24.362  0.00  0.00    +0.015 C 
BRANCH   3   4
ATOM      4  C   UNL     1       6.577  -1.509  22.870  0.00  0.00    +0.081 C 
BRANCH   4   5
ATOM      5  N   UNL     1       7.137  -2.684  22.211  0.00  0.00    -0.313 NA
ATOM      6  H   UNL     1       7.749  -3.203  22.842  0.00  0.00    +0.122 HD
BRANCH   5   7
ATOM      7  C   UNL     1       6.059  -3.567  21.748  0.00  0.00    +0.117 C 
BRANCH   7   8
ATOM      8  C   UNL     1       6.304  -5.040  22.152  0.00  0.00    +0.158 C 
BRANCH   8   9
ATOM      9  C   UNL     1       6.821  -5.132  23.573  0.00  0.00    -0.014 A 
ATOM     10  C   UNL     1       5.939  -5.142  24.675  0.00  0.00    +0.010 A 
ATOM     11  C   UNL     1       6.419  -5.317  25.973  0.00  0.00    +0.049 A 
ATOM     12  C   UNL     1       7.780  -5.471  26.176  0.00  0.00    +0.158 A 
ATOM     13  C   UNL     1       8.669  -5.440  25.104  0.00  0.00    +0.159 A 
ATOM     14  C   UNL     1       8.199  -5.268  23.806  0.00  0.00    +0.055 A 
BRANCH  13  15
ATOM     15  O   UNL     1       9.999  -5.599  25.378  0.00  0.00    -0.503 OA
ATOM     16  H   UNL     1      10.150  -6.532  25.604  0.00  0.00    +0.292 HD
ENDBRANCH  13  15
BRANCH  12  17
ATOM     17  O   UNL     1       8.246  -5.665  27.444  0.00  0.00    -0.503 OA
ATOM     18  H   UNL     1       8.528  -4.776  27.737  0.00  0.00    +0.292 HD
ENDBRANCH  12  17
ENDBRANCH   8   9
BRANCH   8  19
ATOM     19  O   UNL     1       7.231  -5.663  21.258  0.00  0.00    -0.386 OA
ATOM     20  H   UNL     1       6.754  -6.352  20.772  0.00  0.00    +0.210 HD
ENDBRANCH   8  19
ENDBRANCH   7   8
ENDBRANCH   5   7
ENDBRANCH   4   5
ENDBRANCH   3   4
ENDBRANCH   2   3
ENDBRANCH   1   2
BRANCH   1  21
ATOM     21  C   UNL     1       5.968   2.091  24.582  0.00  0.00    +0.015 C 
BRANCH  21  22
ATOM     22  C   UNL     1       6.566   3.418  24.103  0.00  0.00    +0.081 C 
BRANCH  22  23
ATOM     23  N   UNL     1       7.969   3.524  24.510  0.00  0.00    -0.313 NA
ATOM     24  H   UNL     1       8.057   4.325  25.135  0.00  0.00    +0.122 HD
BRANCH  23  25
ATOM     25  C   UNL     1       8.837   3.790  23.353  0.00  0.00    +0.117 C 
BRANCH  25  26
ATOM     26  C   UNL     1      10.259   3.238  23.608  0.00  0.00    +0.158 C 
BRANCH  26  27
ATOM     27  C   UNL     1      10.295   1.744  23.381  0.00  0.00    -0.014 A 
ATOM     28  C   UNL     1      10.674   0.891  24.436  0.00  0.00    +0.010 A 
ATOM     29  C   UNL     1      10.649  -0.495  24.277  0.00  0.00    +0.049 A 
ATOM     30  C   UNL     1      10.239  -1.028  23.066  0.00  0.00    +0.158 A 
ATOM     31  C   UNL     1       9.869  -0.199  22.010  0.00  0.00    +0.159 A 
ATOM     32  C   UNL     1       9.895   1.182  22.157  0.00  0.00    +0.055 A 
BRANCH  30  33
ATOM     33  O   UNL     1      10.192  -2.384  22.916  0.00  0.00    -0.503 OA
ATOM     34  H   UNL     1       9.686  -2.517  22.089  0.00  0.00    +0.292 HD
ENDBRANCH  30  33
BRANCH  31  35
ATOM     35  O   UNL     1       9.475  -0.792  20.842  0.00  0.00    -0.503 OA
ATOM     36  H   UNL     1       9.404  -1.749  21.005  0.00  0.00    +0.292 HD
ENDBRANCH  31  35
ENDBRANCH  26  27
BRANCH  26  37
ATOM     37  O   UNL     1      11.192   3.889  22.735  0.00  0.00    -0.386 OA
ATOM     38  H   UNL     1      10.873   4.806  22.663  0.00  0.00    +0.210 HD
ENDBRANCH  26  37
ENDBRANCH  25  26
ENDBRANCH  23  25
ENDBRANCH  22  23
ENDBRANCH  21  22
ENDBRANCH   1  21
TORSDOF 19
ENDMDL
MODEL 2
REMARK VINA RESULT:      -6.3      1.002      6.935
REMARK  Name = 
REMARK  19 active torsions:
REMARK  status: ('A' for Active; 'I' for Inactive)
REMARK    1  A    between atoms: O_1  and  C_2
REMARK    2  A    between atoms: C_2  and  C_3
REMARK    3  A    between atoms: C_2  and  C_23
REMARK    4  A    between atoms: C_3  and  N_4
REMARK    5  A    between atoms: N_4  and  C_5
REMARK    6  A    between atoms: C_5  and  C_6
REMARK    7  A    between atoms: C_6  and  C_7
REMARK    8  A    between atoms: C_7  and  C_8
REMARK    9  A    between atoms: C_8  and  C_9
REMARK   10  A    between atoms: C_9  and  C_10
REMARK   11  A    between atoms: C_10  and  N_11
REMARK   12  A    between atoms: N_11  and  C_12
REMARK   13  A    between atoms: C_12  and  C_13
REMARK   14  A    between atoms: C_13  and  O_14
REMARK   15  A    between atoms: C_13  and  C_15
REMARK   16  A    between atoms: C_17  and  O_18
REMARK   17  A    between atoms: C_19  and  O_20
REMARK   18  A    between atoms: C_25  and  O_26
REMARK   19  A    between atoms: C_27  and  O_28
REMARK                            x       y       z     vdW  Elec       q    Type
REMARK                         _______ _______ _______ _____ _____    ______ ____
ROOT
ATOM      1  C   UNL     1       6.609   1.032  22.810  0.00  0.00    +0.001 C 
ENDROOT
BRANCH   1   2
ATOM      2  C   UNL     1       6.050   2.447  22.868  0.00  0.00    +0.001 C 
BRANCH   2   3
ATOM      3  C   UNL     1       6.937   3.395  22.060  0.00  0.00    +0.015 C 
BRANCH   3   4
ATOM      4  C   UNL     1       7.112   4.718  22.794  0.00  0.00    +0.081 C 
BRANCH   4   5
ATOM      5  N   UNL     1       8.524   5.083  22.818  0.00  0.00    -0.313 NA
ATOM      6  H   UNL     1       8.649   6.048  23.125  0.00  0.00    +0.122 HD
BRANCH   5   7
ATOM      7  C   UNL     1       9.262   4.189  23.719  0.00  0.00    +0.117 C 
BRANCH   7   8
ATOM      8  C   UNL     1      10.476   3.534  23.018  0.00  0.00    +0.158 C 
BRANCH   8   9
ATOM      9  C   UNL     1      10.404   2.024  23.112  0.00  0.00    -0.014 A 
ATOM     10  C   UNL     1      10.626   1.354  24.334  0.00  0.00    +0.010 A 
ATOM     11  C   UNL     1      10.470  -0.030  24.429  0.00  0.00    +0.049 A 
ATOM     12  C   UNL     1      10.103  -0.748  23.303  0.00  0.00    +0.158 A 
ATOM     13  C   UNL     1       9.903  -0.108  22.083  0.00  0.00    +0.159 A 
ATOM     14  C   UNL     1      10.055   1.271  21.979  0.00  0.00    +0.055 A 
BRANCH  13  15
ATOM     15  O   UNL     1       9.541  -0.879  21.013  0.00  0.00    -0.503 OA
ATOM     16  H   UNL     1      10.346  -1.282  20.646  0.00  0.00    +0.292 HD
ENDBRANCH  13  15
BRANCH  12  17
ATOM     17  O   UNL     1       9.928  -2.097  23.404  0.00  0.00    -0.503 OA
ATOM     18  H   UNL     1      10.810  -2.438  23.649  0.00  0.00    +0.292 HD
ENDBRANCH  12  17
ENDBRANCH   8   9
BRANCH   8  19
ATOM     19  O   UNL     1      11.702   3.998  23.592  0.00  0.00    -0.386 OA
ATOM     20  H   UNL     1      11.613   4.950  23.746  0.00  0.00    +0.210 HD
ENDBRANCH   8  19
ENDBRANCH   7   8
ENDBRANCH   5   7
ENDBRANCH   4   5
ENDBRANCH   3   4
ENDBRANCH   2   3
ENDBRANCH   1   2
BRANCH   1  21
ATOM     21  C   UNL     1       6.689   0.396  24.199  0.00  0.00    +0.015 C 
BRANCH  21  22
ATOM     22  C   UNL     1       6.504  -1.124  24.165  0.00  0.00    +0.081 C 
BRANCH  22  23
ATOM     23  N   UNL     1       6.803  -1.646  22.829  0.00  0.00    -0.313 NA
ATOM     24  H   UNL     1       6.714  -0.879  22.163  0.00  0.00    +0.122 HD
BRANCH  23  25
ATOM     25  C   UNL     1       5.826  -2.672  22.430  0.00  0.00    +0.117 C 
BRANCH  25  26
ATOM     26  C   UNL     1       6.498  -4.064  22.375  0.00  0.00    +0.158 C 
BRANCH  26  27
ATOM     27  C   UNL     1       6.911  -4.507  23.759  0.00  0.00    -0.014 A 
ATOM     28  C   UNL     1       5.935  -4.625  24.769  0.00  0.00    +0.010 A 
ATOM     29  C   UNL     1       6.275  -5.099  26.036  0.00  0.00    +0.049 A 
ATOM     30  C   UNL     1       7.587  -5.460  26.293  0.00  0.00    +0.158 A 
ATOM     31  C   UNL     1       8.565  -5.342  25.309  0.00  0.00    +0.159 A 
ATOM     32  C   UNL     1       8.238  -4.867  24.045  0.00  0.00    +0.055 A 
BRANCH  30  33
ATOM     33  O   UNL     1       7.917  -5.945  27.526  0.00  0.00    -0.503 OA
ATOM     34  H   UNL     1       8.732  -6.463  27.370  0.00  0.00    +0.292 HD
ENDBRANCH  30  33
BRANCH  31  35
ATOM     35  O   UNL     1       9.841  -5.716  25.630  0.00  0.00    -0.503 OA
ATOM     36  H   UNL     1       9.833  -6.038  26.549  0.00  0.00    +0.292 HD
ENDBRANCH  31  35
ENDBRANCH  26  27
BRANCH  26  37
ATOM     37  O   UNL     1       5.588  -5.015  21.805  0.00  0.00    -0.386 OA
ATOM     38  H   UNL     1       6.001  -5.291  20.969  0.00  0.00    +0.210 HD
ENDBRANCH  26  37
ENDBRANCH  25  26
ENDBRANCH  23  25
ENDBRANCH  22  23
ENDBRANCH  21  22
ENDBRANCH   1  21
TORSDOF 19
ENDMDL
MODEL 3
REMARK VINA RESULT:      -6.1      2.460      4.555
REMARK  Name = 
REMARK  19 active torsions:
REMARK  status: ('A' for Active; 'I' for Inactive)
REMARK    1  A    between atoms: O_1  and  C_2
REMARK    2  A    between atoms: C_2  and  C_3
REMARK    3  A    between atoms: C_2  and  C_23
REMARK    4  A    between atoms: C_3  and  N_4
REMARK    5  A    between atoms: N_4  and  C_5
REMARK    6  A    between atoms: C_5  and  C_6
REMARK    7  A    between atoms: C_6  and  C_7
REMARK    8  A    between atoms: C_7  and  C_8
REMARK    9  A    between atoms: C_8  and  C_9
REMARK   10  A    between atoms: C_9  and  C_10
REMARK   11  A    between atoms: C_10  and  N_11
REMARK   12  A    between atoms: N_11  and  C_12
REMARK   13  A    between atoms: C_12  and  C_13
REMARK   14  A    between atoms: C_13  and  O_14
REMARK   15  A    between atoms: C_13  and  C_15
REMARK   16  A    between atoms: C_17  and  O_18
REMARK   17  A    between atoms: C_19  and  O_20
REMARK   18  A    between atoms: C_25  and  O_26
REMARK   19  A    between atoms: C_27  and  O_28
REMARK                            x       y       z     vdW  Elec       q    Type
REMARK                         _______ _______ _______ _____ _____    ______ ____
ROOT
ATOM      1  C   UNL     1       5.015  -3.661  26.555  0.00  0.00    +0.001 C 
ENDROOT
BRANCH   1   2
ATOM      2  C   UNL     1       4.703  -5.029  25.964  0.00  0.00    +0.001 C 
BRANCH   2   3
ATOM      3  C   UNL     1       5.863  -5.990  26.222  0.00  0.00    +0.015 C 
BRANCH   3   4
ATOM      4  C   UNL     1       6.794  -5.428  27.289  0.00  0.00    +0.081 C 
BRANCH   4   5
ATOM      5  N   UNL     1       8.180  -5.678  26.911  0.00  0.00    -0.313 NA
ATOM      6  H   UNL     1       8.235  -6.313  26.113  0.00  0.00    +0.122 HD
BRANCH   5   7
ATOM      7  C   UNL     1       8.848  -4.415  26.571  0.00  0.00    +0.117 C 
BRANCH   7   8
ATOM      8  C   UNL     1       9.465  -4.450  25.152  0.00  0.00    +0.158 C 
BRANCH   8   9
ATOM      9  C   UNL     1       8.421  -4.134  24.101  0.00  0.00    -0.014 A 
ATOM     10  C   UNL     1       7.824  -5.153  23.330  0.00  0.00    +0.010 A 
ATOM     11  C   UNL     1       6.800  -4.861  22.427  0.00  0.00    +0.049 A 
ATOM     12  C   UNL     1       6.377  -3.550  22.287  0.00  0.00    +0.158 A 
ATOM     13  C   UNL     1       6.969  -2.526  23.021  0.00  0.00    +0.159 A 
ATOM     14  C   UNL     1       7.990  -2.809  23.924  0.00  0.00    +0.055 A 
BRANCH  13  15
ATOM     15  O   UNL     1       6.501  -1.256  22.832  0.00  0.00    -0.503 OA
ATOM     16  H   UNL     1       6.827  -0.940  21.973  0.00  0.00    +0.292 HD
ENDBRANCH  13  15
BRANCH  12  17
ATOM     17  O   UNL     1       5.360  -3.270  21.421  0.00  0.00    -0.503 OA
ATOM     18  H   UNL     1       4.674  -3.934  21.630  0.00  0.00    +0.292 HD
ENDBRANCH  12  17
ENDBRANCH   8   9
BRANCH   8  19
ATOM     19  O   UNL     1      10.049  -5.729  24.886  0.00  0.00    -0.386 OA
ATOM     20  H   UNL     1       9.569  -6.122  24.140  0.00  0.00    +0.210 HD
ENDBRANCH   8  19
ENDBRANCH   7   8
ENDBRANCH   5   7
ENDBRANCH   4   5
ENDBRANCH   3   4
ENDBRANCH   2   3
ENDBRANCH   1   2
BRANCH   1  21
ATOM     21  C   UNL     1       4.613  -2.528  25.609  0.00  0.00    +0.015 C 
BRANCH  21  22
ATOM     22  C   UNL     1       4.785  -1.142  26.239  0.00  0.00    +0.081 C 
BRANCH  22  23
ATOM     23  N   UNL     1       5.333  -0.200  25.261  0.00  0.00    -0.313 NA
ATOM     24  H   UNL     1       6.171  -0.617  24.855  0.00  0.00    +0.122 HD
BRANCH  23  25
ATOM     25  C   UNL     1       5.752   1.053  25.908  0.00  0.00    +0.117 C 
BRANCH  25  26
ATOM     26  C   UNL     1       7.264   1.014  26.230  0.00  0.00    +0.158 C 
BRANCH  26  27
ATOM     27  C   UNL     1       8.074   1.379  25.007  0.00  0.00    -0.014 A 
ATOM     28  C   UNL     1       9.236   0.645  24.700  0.00  0.00    +0.010 A 
ATOM     29  C   UNL     1       9.964   0.913  23.541  0.00  0.00    +0.049 A 
ATOM     30  C   UNL     1       9.528   1.911  22.685  0.00  0.00    +0.158 A 
ATOM     31  C   UNL     1       8.385   2.652  22.977  0.00  0.00    +0.159 A 
ATOM     32  C   UNL     1       7.656   2.395  24.131  0.00  0.00    +0.055 A 
BRANCH  30  33
ATOM     33  O   UNL     1      10.226   2.160  21.539  0.00  0.00    -0.503 OA
ATOM     34  H   UNL     1       9.932   1.460  20.922  0.00  0.00    +0.292 HD
ENDBRANCH  30  33
BRANCH  31  35
ATOM     35  O   UNL     1       8.010   3.623  22.090  0.00  0.00    -0.503 OA
ATOM     36  H   UNL     1       8.743   3.745  21.459  0.00  0.00    +0.292 HD
ENDBRANCH  31  35
ENDBRANCH  26  27
BRANCH  26  37
ATOM     37  O   UNL     1       7.553   1.924  27.299  0.00  0.00    -0.386 OA
ATOM     38  H   UNL     1       7.748   1.360  28.067  0.00  0.00    +0.210 HD
ENDBRANCH  26  37
ENDBRANCH  25  26
ENDBRANCH  23  25
ENDBRANCH  22  23
ENDBRANCH  21  22
ENDBRANCH   1  21
TORSDOF 19
ENDMDL
MODEL 4
REMARK VINA RESULT:      -6.1      1.440      2.788
REMARK  Name = 
REMARK  19 active torsions:
REMARK  status: ('A' for Active; 'I' for Inactive)
REMARK    1  A    between atoms: O_1  and  C_2
REMARK    2  A    between atoms: C_2  and  C_3
REMARK    3  A    between atoms: C_2  and  C_23
REMARK    4  A    between atoms: C_3  and  N_4
REMARK    5  A    between atoms: N_4  and  C_5
REMARK    6  A    between atoms: C_5  and  C_6
REMARK    7  A    between atoms: C_6  and  C_7
REMARK    8  A    between atoms: C_7  and  C_8
REMARK    9  A    between atoms: C_8  and  C_9
REMARK   10  A    between atoms: C_9  and  C_10
REMARK   11  A    between atoms: C_10  and  N_11
REMARK   12  A    between atoms: N_11  and  C_12
REMARK   13  A    between atoms: C_12  and  C_13
REMARK   14  A    between atoms: C_13  and  O_14
REMARK   15  A    between atoms: C_13  and  C_15
REMARK   16  A    between atoms: C_17  and  O_18
REMARK   17  A    between atoms: C_19  and  O_20
REMARK   18  A    between atoms: C_25  and  O_26
REMARK   19  A    between atoms: C_27  and  O_28
REMARK                            x       y       z     vdW  Elec       q    Type
REMARK                         _______ _______ _______ _____ _____    ______ ____
ROOT
ATOM      1  C   UNL     1       6.485  -0.092  23.858  0.00  0.00    +0.001 C 
ENDROOT
BRANCH   1   2
ATOM      2  C   UNL     1       6.816  -1.513  24.293  0.00  0.00    +0.001 C 
BRANCH   2   3
ATOM      3  C   UNL     1       6.029  -1.873  25.553  0.00  0.00    +0.015 C 
BRANCH   3   4
ATOM      4  C   UNL     1       6.972  -2.320  26.663  0.00  0.00    +0.081 C 
BRANCH   4   5
ATOM      5  N   UNL     1       8.286  -2.611  26.101  0.00  0.00    -0.313 NA
ATOM      6  H   UNL     1       9.009  -2.038  26.540  0.00  0.00    +0.122 HD
BRANCH   5   7
ATOM      7  C   UNL     1       8.614  -4.030  26.290  0.00  0.00    +0.117 C 
BRANCH   7   8
ATOM      8  C   UNL     1       8.914  -4.738  24.948  0.00  0.00    +0.158 C 
BRANCH   8   9
ATOM      9  C   UNL     1       7.634  -5.196  24.280  0.00  0.00    -0.014 A 
ATOM     10  C   UNL     1       6.485  -5.511  25.036  0.00  0.00    +0.010 A 
ATOM     11  C   UNL     1       5.284  -5.845  24.408  0.00  0.00    +0.049 A 
ATOM     12  C   UNL     1       5.232  -5.875  23.024  0.00  0.00    +0.158 A 
ATOM     13  C   UNL     1       6.360  -5.591  22.261  0.00  0.00    +0.159 A 
ATOM     14  C   UNL     1       7.561  -5.255  22.879  0.00  0.00    +0.055 A 
BRANCH  13  15
ATOM     15  O   UNL     1       6.235  -5.639  20.900  0.00  0.00    -0.503 OA
ATOM     16  H   UNL     1       6.407  -6.552  20.614  0.00  0.00    +0.292 HD
ENDBRANCH  13  15
BRANCH  12  17
ATOM     17  O   UNL     1       4.051  -6.179  22.411  0.00  0.00    -0.503 OA
ATOM     18  H   UNL     1       4.296  -6.825  21.719  0.00  0.00    +0.292 HD
ENDBRANCH  12  17
ENDBRANCH   8   9
BRANCH   8  19
ATOM     19  O   UNL     1       9.782  -5.857  25.149  0.00  0.00    -0.386 OA
ATOM     20  H   UNL     1       9.582  -6.512  24.463  0.00  0.00    +0.210 HD
ENDBRANCH   8  19
ENDBRANCH   7   8
ENDBRANCH   5   7
ENDBRANCH   4   5
ENDBRANCH   3   4
ENDBRANCH   2   3
ENDBRANCH   1   2
BRANCH   1  21
ATOM     21  C   UNL     1       5.772   0.689  24.963  0.00  0.00    +0.015 C 
BRANCH  21  22
ATOM     22  C   UNL     1       6.633   1.818  25.539  0.00  0.00    +0.081 C 
BRANCH  22  23
ATOM     23  N   UNL     1       7.114   2.692  24.466  0.00  0.00    -0.313 NA
ATOM     24  H   UNL     1       7.307   2.113  23.649  0.00  0.00    +0.122 HD
BRANCH  23  25
ATOM     25  C   UNL     1       8.382   3.340  24.838  0.00  0.00    +0.117 C 
BRANCH  25  26
ATOM     26  C   UNL     1       9.412   3.205  23.693  0.00  0.00    +0.158 C 
BRANCH  26  27
ATOM     27  C   UNL     1       9.738   1.751  23.443  0.00  0.00    -0.014 A 
ATOM     28  C   UNL     1      10.191   0.949  24.509  0.00  0.00    +0.010 A 
ATOM     29  C   UNL     1      10.433  -0.412  24.324  0.00  0.00    +0.049 A 
ATOM     30  C   UNL     1      10.217  -0.974  23.076  0.00  0.00    +0.158 A 
ATOM     31  C   UNL     1       9.777  -0.194  22.010  0.00  0.00    +0.159 A 
ATOM     32  C   UNL     1       9.537   1.164  22.183  0.00  0.00    +0.055 A 
BRANCH  30  33
ATOM     33  O   UNL     1      10.431  -2.310  22.900  0.00  0.00    -0.503 OA
ATOM     34  H   UNL     1      11.354  -2.365  22.580  0.00  0.00    +0.292 HD
ENDBRANCH  30  33
BRANCH  31  35
ATOM     35  O   UNL     1       9.584  -0.811  20.805  0.00  0.00    -0.503 OA
ATOM     36  H   UNL     1      10.044  -1.669  20.836  0.00  0.00    +0.292 HD
ENDBRANCH  31  35
ENDBRANCH  26  27
BRANCH  26  37
ATOM     37  O   UNL     1       8.886   3.802  22.500  0.00  0.00    -0.386 OA
ATOM     38  H   UNL     1       9.576   3.672  21.826  0.00  0.00    +0.210 HD
ENDBRANCH  26  37
ENDBRANCH  25  26
ENDBRANCH  23  25
ENDBRANCH  22  23
ENDBRANCH  21  22
ENDBRANCH   1  21
TORSDOF 19
ENDMDL
MODEL 5
REMARK VINA RESULT:      -6.1      2.007      4.292
REMARK  Name = 
REMARK  19 active torsions:
REMARK  status: ('A' for Active; 'I' for Inactive)
REMARK    1  A    between atoms: O_1  and  C_2
REMARK    2  A    between atoms: C_2  and  C_3
REMARK    3  A    between atoms: C_2  and  C_23
REMARK    4  A    between atoms: C_3  and  N_4
REMARK    5  A    between atoms: N_4  and  C_5
REMARK    6  A    between atoms: C_5  and  C_6
REMARK    7  A    between atoms: C_6  and  C_7
REMARK    8  A    between atoms: C_7  and  C_8
REMARK    9  A    between atoms: C_8  and  C_9
REMARK   10  A    between atoms: C_9  and  C_10
REMARK   11  A    between atoms: C_10  and  N_11
REMARK   12  A    between atoms: N_11  and  C_12
REMARK   13  A    between atoms: C_12  and  C_13
REMARK   14  A    between atoms: C_13  and  O_14
REMARK   15  A    between atoms: C_13  and  C_15
REMARK   16  A    between atoms: C_17  and  O_18
REMARK   17  A    between atoms: C_19  and  O_20
REMARK   18  A    between atoms: C_25  and  O_26
REMARK   19  A    between atoms: C_27  and  O_28
REMARK                            x       y       z     vdW  Elec       q    Type
REMARK                         _______ _______ _______ _____ _____    ______ ____
ROOT
ATOM      1  C   UNL     1       6.823  -0.219  23.459  0.00  0.00    +0.001 C 
ENDROOT
BRANCH   1   2
ATOM      2  C   UNL     1       6.318  -0.368  24.888  0.00  0.00    +0.001 C 
BRANCH   2   3
ATOM      3  C   UNL     1       6.307  -1.843  25.289  0.00  0.00    +0.015 C 
BRANCH   3   4
ATOM      4  C   UNL     1       7.214  -2.076  26.491  0.00  0.00    +0.081 C 
BRANCH   4   5
ATOM      5  N   UNL     1       8.523  -2.531  26.035  0.00  0.00    -0.313 NA
ATOM      6  H   UNL     1       9.270  -2.121  26.598  0.00  0.00    +0.122 HD
BRANCH   5   7
ATOM      7  C   UNL     1       8.606  -3.995  26.114  0.00  0.00    +0.117 C 
BRANCH   7   8
ATOM      8  C   UNL     1       8.825  -4.638  24.724  0.00  0.00    +0.158 C 
BRANCH   8   9
ATOM      9  C   UNL     1       7.514  -5.119  24.139  0.00  0.00    -0.014 A 
ATOM     10  C   UNL     1       6.402  -5.400  24.961  0.00  0.00    +0.010 A 
ATOM     11  C   UNL     1       5.173  -5.757  24.406  0.00  0.00    +0.049 A 
ATOM     12  C   UNL     1       5.053  -5.843  23.028  0.00  0.00    +0.158 A 
ATOM     13  C   UNL     1       6.144  -5.592  22.200  0.00  0.00    +0.159 A 
ATOM     14  C   UNL     1       7.373  -5.235  22.746  0.00  0.00    +0.055 A 
BRANCH  13  15
ATOM     15  O   UNL     1       5.953  -5.695  20.850  0.00  0.00    -0.503 OA
ATOM     16  H   UNL     1       5.088  -6.111  20.699  0.00  0.00    +0.292 HD
ENDBRANCH  13  15
BRANCH  12  17
ATOM     17  O   UNL     1       3.844  -6.168  22.486  0.00  0.00    -0.503 OA
ATOM     18  H   UNL     1       3.232  -6.180  23.248  0.00  0.00    +0.292 HD
ENDBRANCH  12  17
ENDBRANCH   8   9
BRANCH   8  19
ATOM     19  O   UNL     1       9.746  -5.729  24.811  0.00  0.00    -0.386 OA
ATOM     20  H   UNL     1      10.505  -5.520  24.245  0.00  0.00    +0.210 HD
ENDBRANCH   8  19
ENDBRANCH   7   8
ENDBRANCH   5   7
ENDBRANCH   4   5
ENDBRANCH   3   4
ENDBRANCH   2   3
ENDBRANCH   1   2
BRANCH   1  21
ATOM     21  C   UNL     1       7.242  -1.564  22.861  0.00  0.00    +0.015 C 
BRANCH  21  22
ATOM     22  C   UNL     1       8.676  -1.550  22.322  0.00  0.00    +0.081 C 
BRANCH  22  23
ATOM     23  N   UNL     1       9.631  -1.348  23.414  0.00  0.00    -0.313 NA
ATOM     24  H   UNL     1       9.102  -1.160  24.266  0.00  0.00    +0.122 HD
BRANCH  23  25
ATOM     25  C   UNL     1      10.474  -0.167  23.169  0.00  0.00    +0.117 C 
BRANCH  25  26
ATOM     26  C   UNL     1      10.625   0.666  24.463  0.00  0.00    +0.158 C 
BRANCH  26  27
ATOM     27  C   UNL     1      10.107   2.070  24.252  0.00  0.00    -0.014 A 
ATOM     28  C   UNL     1       8.837   2.422  24.747  0.00  0.00    +0.010 A 
ATOM     29  C   UNL     1       8.363   3.729  24.629  0.00  0.00    +0.049 A 
ATOM     30  C   UNL     1       9.160   4.684  24.021  0.00  0.00    +0.158 A 
ATOM     31  C   UNL     1      10.415   4.351  23.518  0.00  0.00    +0.159 A 
ATOM     32  C   UNL     1      10.894   3.052  23.628  0.00  0.00    +0.055 A 
BRANCH  30  33
ATOM     33  O   UNL     1       8.707   5.968  23.925  0.00  0.00    -0.503 OA
ATOM     34  H   UNL     1       9.345   6.404  23.324  0.00  0.00    +0.292 HD
ENDBRANCH  30  33
BRANCH  31  35
ATOM     35  O   UNL     1      11.150   5.343  22.930  0.00  0.00    -0.503 OA
ATOM     36  H   UNL     1      11.771   4.921  22.309  0.00  0.00    +0.292 HD
ENDBRANCH  31  35
ENDBRANCH  26  27
BRANCH  26  37
ATOM     37  O   UNL     1       9.905   0.032  25.529  0.00  0.00    -0.386 OA
ATOM     38  H   UNL     1      10.518   0.033  26.285  0.00  0.00    +0.210 HD
ENDBRANCH  26  37
ENDBRANCH  25  26
ENDBRANCH  23  25
ENDBRANCH  22  23
ENDBRANCH  21  22
ENDBRANCH   1  21
TORSDOF 19
ENDMDL
MODEL 6
REMARK VINA RESULT:      -6.0      2.259      4.107
REMARK  Name = 
REMARK  19 active torsions:
REMARK  status: ('A' for Active; 'I' for Inactive)
REMARK    1  A    between atoms: O_1  and  C_2
REMARK    2  A    between atoms: C_2  and  C_3
REMARK    3  A    between atoms: C_2  and  C_23
REMARK    4  A    between atoms: C_3  and  N_4
REMARK    5  A    between atoms: N_4  and  C_5
REMARK    6  A    between atoms: C_5  and  C_6
REMARK    7  A    between atoms: C_6  and  C_7
REMARK    8  A    between atoms: C_7  and  C_8
REMARK    9  A    between atoms: C_8  and  C_9
REMARK   10  A    between atoms: C_9  and  C_10
REMARK   11  A    between atoms: C_10  and  N_11
REMARK   12  A    between atoms: N_11  and  C_12
REMARK   13  A    between atoms: C_12  and  C_13
REMARK   14  A    between atoms: C_13  and  O_14
REMARK   15  A    between atoms: C_13  and  C_15
REMARK   16  A    between atoms: C_17  and  O_18
REMARK   17  A    between atoms: C_19  and  O_20
REMARK   18  A    between atoms: C_25  and  O_26
REMARK   19  A    between atoms: C_27  and  O_28
REMARK                            x       y       z     vdW  Elec       q    Type
REMARK                         _______ _______ _______ _____ _____    ______ ____
ROOT
ATOM      1  C   UNL     1       5.743  -1.872  24.122  0.00  0.00    +0.001 C 
ENDROOT
BRANCH   1   2
ATOM      2  C   UNL     1       6.843  -1.455  23.156  0.00  0.00    +0.001 C 
BRANCH   2   3
ATOM      3  C   UNL     1       8.188  -1.401  23.881  0.00  0.00    +0.015 C 
BRANCH   3   4
ATOM      4  C   UNL     1       9.278  -2.044  23.034  0.00  0.00    +0.081 C 
BRANCH   4   5
ATOM      5  N   UNL     1      10.077  -2.941  23.861  0.00  0.00    -0.313 NA
ATOM      6  H   UNL     1      10.880  -2.454  24.262  0.00  0.00    +0.122 HD
BRANCH   5   7
ATOM      7  C   UNL     1       9.257  -3.495  24.945  0.00  0.00    +0.117 C 
BRANCH   7   8
ATOM      8  C   UNL     1       8.958  -4.998  24.736  0.00  0.00    +0.158 C 
BRANCH   8   9
ATOM      9  C   UNL     1       7.561  -5.201  24.187  0.00  0.00    -0.014 A 
ATOM     10  C   UNL     1       6.449  -5.335  25.044  0.00  0.00    +0.010 A 
ATOM     11  C   UNL     1       5.156  -5.432  24.527  0.00  0.00    +0.049 A 
ATOM     12  C   UNL     1       4.972  -5.404  23.155  0.00  0.00    +0.158 A 
ATOM     13  C   UNL     1       6.059  -5.296  22.292  0.00  0.00    +0.159 A 
ATOM     14  C   UNL     1       7.351  -5.198  22.798  0.00  0.00    +0.055 A 
BRANCH  13  15
ATOM     15  O   UNL     1       5.804  -5.275  20.948  0.00  0.00    -0.503 OA
ATOM     16  H   UNL     1       6.498  -5.787  20.502  0.00  0.00    +0.292 HD
ENDBRANCH  13  15
BRANCH  12  17
ATOM     17  O   UNL     1       3.706  -5.475  22.652  0.00  0.00    -0.503 OA
ATOM     18  H   UNL     1       3.244  -4.710  23.049  0.00  0.00    +0.292 HD
ENDBRANCH  12  17
ENDBRANCH   8   9
BRANCH   8  19
ATOM     19  O   UNL     1       9.105  -5.719  25.963  0.00  0.00    -0.386 OA
ATOM     20  H   UNL     1      10.020  -5.605  26.264  0.00  0.00    +0.210 HD
ENDBRANCH   8  19
ENDBRANCH   7   8
ENDBRANCH   5   7
ENDBRANCH   4   5
ENDBRANCH   3   4
ENDBRANCH   2   3
ENDBRANCH   1   2
BRANCH   1  21
ATOM     21  C   UNL     1       6.114  -1.561  25.574  0.00  0.00    +0.015 C 
BRANCH  21  22
ATOM     22  C   UNL     1       4.960  -0.925  26.355  0.00  0.00    +0.081 C 
BRANCH  22  23
ATOM     23  N   UNL     1       4.535   0.321  25.715  0.00  0.00    -0.313 NA
ATOM     24  H   UNL     1       4.470   0.156  24.711  0.00  0.00    +0.122 HD
BRANCH  23  25
ATOM     25  C   UNL     1       5.534   1.384  25.907  0.00  0.00    +0.117 C 
BRANCH  25  26
ATOM     26  C   UNL     1       5.509   2.370  24.716  0.00  0.00    +0.158 C 
BRANCH  26  27
ATOM     27  C   UNL     1       6.755   2.214  23.874  0.00  0.00    -0.014 A 
ATOM     28  C   UNL     1       6.635   2.086  22.477  0.00  0.00    +0.010 A 
ATOM     29  C   UNL     1       7.770   2.012  21.668  0.00  0.00    +0.049 A 
ATOM     30  C   UNL     1       9.023   2.070  22.256  0.00  0.00    +0.158 A 
ATOM     31  C   UNL     1       9.159   2.188  23.637  0.00  0.00    +0.159 A 
ATOM     32  C   UNL     1       8.035   2.259  24.450  0.00  0.00    +0.055 A 
BRANCH  30  33
ATOM     33  O   UNL     1      10.134   2.020  21.464  0.00  0.00    -0.503 OA
ATOM     34  H   UNL     1      10.879   2.139  22.087  0.00  0.00    +0.292 HD
ENDBRANCH  30  33
BRANCH  31  35
ATOM     35  O   UNL     1      10.425   2.240  24.151  0.00  0.00    -0.503 OA
ATOM     36  H   UNL     1      10.721   3.167  24.112  0.00  0.00    +0.292 HD
ENDBRANCH  31  35
ENDBRANCH  26  27
BRANCH  26  37
ATOM     37  O   UNL     1       4.343   2.129  23.917  0.00  0.00    -0.386 OA
ATOM     38  H   UNL     1       4.628   1.490  23.240  0.00  0.00    +0.210 HD
ENDBRANCH  26  37
ENDBRANCH  25  26
ENDBRANCH  23  25
ENDBRANCH  22  23
ENDBRANCH  21  22
ENDBRANCH   1  21
TORSDOF 19
ENDMDL
MODEL 7
REMARK VINA RESULT:      -6.0      1.528      7.031
REMARK  Name = 
REMARK  19 active torsions:
REMARK  status: ('A' for Active; 'I' for Inactive)
REMARK    1  A    between atoms: O_1  and  C_2
REMARK    2  A    between atoms: C_2  and  C_3
REMARK    3  A    between atoms: C_2  and  C_23
REMARK    4  A    between atoms: C_3  and  N_4
REMARK    5  A    between atoms: N_4  and  C_5
REMARK    6  A    between atoms: C_5  and  C_6
REMARK    7  A    between atoms: C_6  and  C_7
REMARK    8  A    between atoms: C_7  and  C_8
REMARK    9  A    between atoms: C_8  and  C_9
REMARK   10  A    between atoms: C_9  and  C_10
REMARK   11  A    between atoms: C_10  and  N_11
REMARK   12  A    between atoms: N_11  and  C_12
REMARK   13  A    between atoms: C_12  and  C_13
REMARK   14  A    between atoms: C_13  and  O_14
REMARK   15  A    between atoms: C_13  and  C_15
REMARK   16  A    between atoms: C_17  and  O_18
REMARK   17  A    between atoms: C_19  and  O_20
REMARK   18  A    between atoms: C_25  and  O_26
REMARK   19  A    between atoms: C_27  and  O_28
REMARK                            x       y       z     vdW  Elec       q    Type
REMARK                         _______ _______ _______ _____ _____    ______ ____
ROOT
ATOM      1  C   UNL     1       7.001   0.241  25.017  0.00  0.00    +0.001 C 
ENDROOT
BRANCH   1   2
ATOM      2  C   UNL     1       6.553   0.832  23.687  0.00  0.00    +0.001 C 
BRANCH   2   3
ATOM      3  C   UNL     1       6.016   2.248  23.897  0.00  0.00    +0.015 C 
BRANCH   3   4
ATOM      4  C   UNL     1       6.972   3.059  24.762  0.00  0.00    +0.081 C 
BRANCH   4   5
ATOM      5  N   UNL     1       7.709   4.002  23.927  0.00  0.00    -0.313 NA
ATOM      6  H   UNL     1       7.335   4.948  24.023  0.00  0.00    +0.122 HD
BRANCH   5   7
ATOM      7  C   UNL     1       9.129   4.003  24.298  0.00  0.00    +0.117 C 
BRANCH   7   8
ATOM      8  C   UNL     1      10.029   3.496  23.146  0.00  0.00    +0.158 C 
BRANCH   8   9
ATOM      9  C   UNL     1      10.145   1.986  23.177  0.00  0.00    -0.014 A 
ATOM     10  C   UNL     1      10.510   1.302  24.356  0.00  0.00    +0.010 A 
ATOM     11  C   UNL     1      10.528  -0.093  24.397  0.00  0.00    +0.049 A 
ATOM     12  C   UNL     1      10.192  -0.807  23.259  0.00  0.00    +0.158 A 
ATOM     13  C   UNL     1       9.852  -0.151  22.079  0.00  0.00    +0.159 A 
ATOM     14  C   UNL     1       9.830   1.239  22.030  0.00  0.00    +0.055 A 
BRANCH  13  15
ATOM     15  O   UNL     1       9.531  -0.920  20.995  0.00  0.00    -0.503 OA
ATOM     16  H   UNL     1       8.811  -0.478  20.516  0.00  0.00    +0.292 HD
ENDBRANCH  13  15
BRANCH  12  17
ATOM     17  O   UNL     1      10.187  -2.170  23.309  0.00  0.00    -0.503 OA
ATOM     18  H   UNL     1      10.368  -2.447  22.389  0.00  0.00    +0.292 HD
ENDBRANCH  12  17
ENDBRANCH   8   9
BRANCH   8  19
ATOM     19  O   UNL     1      11.331   4.084  23.224  0.00  0.00    -0.386 OA
ATOM     20  H   UNL     1      11.925   3.431  23.624  0.00  0.00    +0.210 HD
ENDBRANCH   8  19
ENDBRANCH   7   8
ENDBRANCH   5   7
ENDBRANCH   4   5
ENDBRANCH   3   4
ENDBRANCH   2   3
ENDBRANCH   1   2
BRANCH   1  21
ATOM     21  C   UNL     1       6.884  -1.284  25.029  0.00  0.00    +0.015 C 
BRANCH  21  22
ATOM     22  C   UNL     1       7.428  -1.909  26.317  0.00  0.00    +0.081 C 
BRANCH  22  23
ATOM     23  N   UNL     1       8.682  -2.618  26.052  0.00  0.00    -0.313 NA
ATOM     24  H   UNL     1       8.784  -2.714  25.042  0.00  0.00    +0.122 HD
BRANCH  23  25
ATOM     25  C   UNL     1       8.649  -3.980  26.608  0.00  0.00    +0.117 C 
BRANCH  25  26
ATOM     26  C   UNL     1       8.909  -5.022  25.495  0.00  0.00    +0.158 C 
BRANCH  26  27
ATOM     27  C   UNL     1       7.667  -5.222  24.657  0.00  0.00    -0.014 A 
ATOM     28  C   UNL     1       7.780  -5.283  23.254  0.00  0.00    +0.010 A 
ATOM     29  C   UNL     1       6.662  -5.536  22.459  0.00  0.00    +0.049 A 
ATOM     30  C   UNL     1       5.432  -5.735  23.066  0.00  0.00    +0.158 A 
ATOM     31  C   UNL     1       5.302  -5.670  24.451  0.00  0.00    +0.159 A 
ATOM     32  C   UNL     1       6.409  -5.414  25.251  0.00  0.00    +0.055 A 
BRANCH  30  33
ATOM     33  O   UNL     1       4.342  -6.005  22.291  0.00  0.00    -0.503 OA
ATOM     34  H   UNL     1       4.628  -5.777  21.385  0.00  0.00    +0.292 HD
ENDBRANCH  30  33
BRANCH  31  35
ATOM     35  O   UNL     1       4.060  -5.875  24.985  0.00  0.00    -0.503 OA
ATOM     36  H   UNL     1       4.118  -6.643  25.581  0.00  0.00    +0.292 HD
ENDBRANCH  31  35
ENDBRANCH  26  27
BRANCH  26  37
ATOM     37  O   UNL     1       9.994  -4.582  24.668  0.00  0.00    -0.386 OA
ATOM     38  H   UNL     1      10.792  -4.964  25.072  0.00  0.00    +0.210 HD
ENDBRANCH  26  37
ENDBRANCH  25  26
ENDBRANCH  23  25
ENDBRANCH  22  23
ENDBRANCH  21  22
ENDBRANCH   1  21
TORSDOF 19
ENDMDL
MODEL 8
REMARK VINA RESULT:      -6.0      1.960      3.298
REMARK  Name = 
REMARK  19 active torsions:
REMARK  status: ('A' for Active; 'I' for Inactive)
REMARK    1  A    between atoms: O_1  and  C_2
REMARK    2  A    between atoms: C_2  and  C_3
REMARK    3  A    between atoms: C_2  and  C_23
REMARK    4  A    between atoms: C_3  and  N_4
REMARK    5  A    between atoms: N_4  and  C_5
REMARK    6  A    between atoms: C_5  and  C_6
REMARK    7  A    between atoms: C_6  and  C_7
REMARK    8  A    between atoms: C_7  and  C_8
REMARK    9  A    between atoms: C_8  and  C_9
REMARK   10  A    between atoms: C_9  and  C_10
REMARK   11  A    between atoms: C_10  and  N_11
REMARK   12  A    between atoms: N_11  and  C_12
REMARK   13  A    between atoms: C_12  and  C_13
REMARK   14  A    between atoms: C_13  and  O_14
REMARK   15  A    between atoms: C_13  and  C_15
REMARK   16  A    between atoms: C_17  and  O_18
REMARK   17  A    between atoms: C_19  and  O_20
REMARK   18  A    between atoms: C_25  and  O_26
REMARK   19  A    between atoms: C_27  and  O_28
REMARK                            x       y       z     vdW  Elec       q    Type
REMARK                         _______ _______ _______ _____ _____    ______ ____
ROOT
ATOM      1  C   UNL     1       7.925   0.315  26.081  0.00  0.00    +0.001 C 
ENDROOT
BRANCH   1   2
ATOM      2  C   UNL     1       9.025  -0.662  25.688  0.00  0.00    +0.001 C 
BRANCH   2   3
ATOM      3  C   UNL     1       9.999   0.006  24.717  0.00  0.00    +0.015 C 
BRANCH   3   4
ATOM      4  C   UNL     1      10.218  -0.872  23.493  0.00  0.00    +0.081 C 
BRANCH   4   5
ATOM      5  N   UNL     1       9.030  -0.839  22.646  0.00  0.00    -0.313 NA
ATOM      6  H   UNL     1       9.189  -0.271  21.813  0.00  0.00    +0.122 HD
BRANCH   5   7
ATOM      7  C   UNL     1       8.661  -2.201  22.239  0.00  0.00    +0.117 C 
BRANCH   7   8
ATOM      8  C   UNL     1       7.306  -2.638  22.844  0.00  0.00    +0.158 C 
BRANCH   8   9
ATOM      9  C   UNL     1       7.514  -3.443  24.110  0.00  0.00    -0.014 A 
ATOM     10  C   UNL     1       6.492  -3.569  25.075  0.00  0.00    +0.010 A 
ATOM     11  C   UNL     1       6.662  -4.385  26.194  0.00  0.00    +0.049 A 
ATOM     12  C   UNL     1       7.856  -5.069  26.357  0.00  0.00    +0.158 A 
ATOM     13  C   UNL     1       8.885  -4.940  25.428  0.00  0.00    +0.159 A 
ATOM     14  C   UNL     1       8.723  -4.129  24.309  0.00  0.00    +0.055 A 
BRANCH  13  15
ATOM     15  O   UNL     1      10.035  -5.645  25.652  0.00  0.00    -0.503 OA
ATOM     16  H   UNL     1      10.712  -5.319  25.036  0.00  0.00    +0.292 HD
ENDBRANCH  13  15
BRANCH  12  17
ATOM     17  O   UNL     1       8.011  -5.885  27.439  0.00  0.00    -0.503 OA
ATOM     18  H   UNL     1       7.232  -5.697  27.999  0.00  0.00    +0.292 HD
ENDBRANCH  12  17
ENDBRANCH   8   9
BRANCH   8  19
ATOM     19  O   UNL     1       6.554  -3.406  21.899  0.00  0.00    -0.386 OA
ATOM     20  H   UNL     1       5.876  -2.825  21.522  0.00  0.00    +0.210 HD
ENDBRANCH   8  19
ENDBRANCH   7   8
ENDBRANCH   5   7
ENDBRANCH   4   5
ENDBRANCH   3   4
ENDBRANCH   2   3
ENDBRANCH   1   2
BRANCH   1  21
ATOM     21  C   UNL     1       6.770   0.302  25.078  0.00  0.00    +0.015 C 
BRANCH  21  22
ATOM     22  C   UNL     1       5.429   0.680  25.715  0.00  0.00    +0.081 C 
BRANCH  22  23
ATOM     23  N   UNL     1       4.599   1.417  24.760  0.00  0.00    -0.313 NA
ATOM     24  H   UNL     1       4.863   1.124  23.819  0.00  0.00    +0.122 HD
BRANCH  23  25
ATOM     25  C   UNL     1       4.852   2.864  24.841  0.00  0.00    +0.117 C 
BRANCH  25  26
ATOM     26  C   UNL     1       5.348   3.402  23.479  0.00  0.00    +0.158 C 
BRANCH  26  27
ATOM     27  C   UNL     1       6.858   3.385  23.421  0.00  0.00    -0.014 A 
ATOM     28  C   UNL     1       7.599   3.974  24.464  0.00  0.00    +0.010 A 
ATOM     29  C   UNL     1       8.992   3.912  24.473  0.00  0.00    +0.049 A 
ATOM     30  C   UNL     1       9.646   3.256  23.443  0.00  0.00    +0.158 A 
ATOM     31  C   UNL     1       8.929   2.675  22.400  0.00  0.00    +0.159 A 
ATOM     32  C   UNL     1       7.542   2.735  22.380  0.00  0.00    +0.055 A 
BRANCH  30  33
ATOM     33  O   UNL     1      11.008   3.174  23.462  0.00  0.00    -0.503 OA
ATOM     34  H   UNL     1      11.193   2.222  23.333  0.00  0.00    +0.292 HD
ENDBRANCH  30  33
BRANCH  31  35
ATOM     35  O   UNL     1       9.637   2.043  21.415  0.00  0.00    -0.503 OA
ATOM     36  H   UNL     1       8.995   1.657  20.792  0.00  0.00    +0.292 HD
ENDBRANCH  31  35
ENDBRANCH  26  27
BRANCH  26  37
ATOM     37  O   UNL     1       4.807   2.601  22.420  0.00  0.00    -0.386 OA
ATOM     38  H   UNL     1       4.041   2.146  22.812  0.00  0.00    +0.210 HD
ENDBRANCH  26  37
ENDBRANCH  25  26
ENDBRANCH  23  25
ENDBRANCH  22  23
ENDBRANCH  21  22
ENDBRANCH   1  21
TORSDOF 19
ENDMDL
MODEL 9
REMARK VINA RESULT:      -5.9      2.410      7.085
REMARK  Name = 
REMARK  19 active torsions:
REMARK  status: ('A' for Active; 'I' for Inactive)
REMARK    1  A    between atoms: O_1  and  C_2
REMARK    2  A    between atoms: C_2  and  C_3
REMARK    3  A    between atoms: C_2  and  C_23
REMARK    4  A    between atoms: C_3  and  N_4
REMARK    5  A    between atoms: N_4  and  C_5
REMARK    6  A    between atoms: C_5  and  C_6
REMARK    7  A    between atoms: C_6  and  C_7
REMARK    8  A    between atoms: C_7  and  C_8
REMARK    9  A    between atoms: C_8  and  C_9
REMARK   10  A    between atoms: C_9  and  C_10
REMARK   11  A    between atoms: C_10  and  N_11
REMARK   12  A    between atoms: N_11  and  C_12
REMARK   13  A    between atoms: C_12  and  C_13
REMARK   14  A    between atoms: C_13  and  O_14
REMARK   15  A    between atoms: C_13  and  C_15
REMARK   16  A    between atoms: C_17  and  O_18
REMARK   17  A    between atoms: C_19  and  O_20
REMARK   18  A    between atoms: C_25  and  O_26
REMARK   19  A    between atoms: C_27  and  O_28
REMARK                            x       y       z     vdW  Elec       q    Type
REMARK                         _______ _______ _______ _____ _____    ______ ____
ROOT
ATOM      1  C   UNL     1       4.345  -5.184  26.392  0.00  0.00    +0.001 C 
ENDROOT
BRANCH   1   2
ATOM      2  C   UNL     1       4.342  -4.668  24.959  0.00  0.00    +0.001 C 
BRANCH   2   3
ATOM      3  C   UNL     1       3.952  -3.190  24.935  0.00  0.00    +0.015 C 
BRANCH   3   4
ATOM      4  C   UNL     1       4.758  -2.408  25.963  0.00  0.00    +0.081 C 
BRANCH   4   5
ATOM      5  N   UNL     1       5.242  -1.167  25.367  0.00  0.00    -0.313 NA
ATOM      6  H   UNL     1       4.551  -0.421  25.461  0.00  0.00    +0.122 HD
BRANCH   5   7
ATOM      7  C   UNL     1       6.494  -0.751  26.010  0.00  0.00    +0.117 C 
BRANCH   7   8
ATOM      8  C   UNL     1       6.725   0.774  25.893  0.00  0.00    +0.158 C 
BRANCH   8   9
ATOM      9  C   UNL     1       7.615   1.096  24.710  0.00  0.00    -0.014 A 
ATOM     10  C   UNL     1       7.073   1.344  23.431  0.00  0.00    +0.010 A 
ATOM     11  C   UNL     1       7.894   1.727  22.369  0.00  0.00    +0.049 A 
ATOM     12  C   UNL     1       9.257   1.853  22.579  0.00  0.00    +0.158 A 
ATOM     13  C   UNL     1       9.814   1.590  23.827  0.00  0.00    +0.159 A 
ATOM     14  C   UNL     1       9.003   1.209  24.892  0.00  0.00    +0.055 A 
BRANCH  13  15
ATOM     15  O   UNL     1      11.167   1.735  23.963  0.00  0.00    -0.503 OA
ATOM     16  H   UNL     1      11.598   1.173  23.298  0.00  0.00    +0.292 HD
ENDBRANCH  13  15
BRANCH  12  17
ATOM     17  O   UNL     1      10.054   2.250  21.545  0.00  0.00    -0.503 OA
ATOM     18  H   UNL     1       9.473   2.810  20.992  0.00  0.00    +0.292 HD
ENDBRANCH  12  17
ENDBRANCH   8   9
BRANCH   8  19
ATOM     19  O   UNL     1       7.308   1.292  27.093  0.00  0.00    -0.386 OA
ATOM     20  H   UNL     1       8.059   0.724  27.323  0.00  0.00    +0.210 HD
ENDBRANCH   8  19
ENDBRANCH   7   8
ENDBRANCH   5   7
ENDBRANCH   4   5
ENDBRANCH   3   4
ENDBRANCH   2   3
ENDBRANCH   1   2
BRANCH   1  21
ATOM     21  C   UNL     1       5.593  -6.015  26.694  0.00  0.00    +0.015 C 
BRANCH  21  22
ATOM     22  C   UNL     1       6.557  -5.307  27.650  0.00  0.00    +0.081 C 
BRANCH  22  23
ATOM     23  N   UNL     1       7.942  -5.669  27.341  0.00  0.00    -0.313 NA
ATOM     24  H   UNL     1       8.479  -5.637  28.208  0.00  0.00    +0.122 HD
BRANCH  23  25
ATOM     25  C   UNL     1       8.554  -4.692  26.426  0.00  0.00    +0.117 C 
BRANCH  25  26
ATOM     26  C   UNL     1       8.993  -5.383  25.114  0.00  0.00    +0.158 C 
BRANCH  26  27
ATOM     27  C   UNL     1       8.151  -4.902  23.955  0.00  0.00    -0.014 A 
ATOM     28  C   UNL     1       7.679  -5.831  23.008  0.00  0.00    +0.010 A 
ATOM     29  C   UNL     1       6.842  -5.427  21.968  0.00  0.00    +0.049 A 
ATOM     30  C   UNL     1       6.472  -4.095  21.878  0.00  0.00    +0.158 A 
ATOM     31  C   UNL     1       6.935  -3.162  22.801  0.00  0.00    +0.159 A 
ATOM     32  C   UNL     1       7.772  -3.554  23.838  0.00  0.00    +0.055 A 
BRANCH  30  33
ATOM     33  O   UNL     1       5.635  -3.702  20.874  0.00  0.00    -0.503 OA
ATOM     34  H   UNL     1       5.516  -4.506  20.330  0.00  0.00    +0.292 HD
ENDBRANCH  30  33
BRANCH  31  35
ATOM     35  O   UNL     1       6.531  -1.864  22.655  0.00  0.00    -0.503 OA
ATOM     36  H   UNL     1       6.802  -1.378  23.454  0.00  0.00    +0.292 HD
ENDBRANCH  31  35
ENDBRANCH  26  27
BRANCH  26  37
ATOM     37  O   UNL     1      10.377  -5.105  24.864  0.00  0.00    -0.386 OA
ATOM     38  H   UNL     1      10.388  -4.607  24.028  0.00  0.00    +0.210 HD
ENDBRANCH  26  37
ENDBRANCH  25  26
ENDBRANCH  23  25
ENDBRANCH  22  23
ENDBRANCH  21  22
ENDBRANCH   1  21
TORSDOF 19
ENDMDL
