MODEL 1
REMARK VINA RESULT:      -8.7      0.000      0.000
REMARK  Name = 
REMARK  5 active torsions:
REMARK  status: ('A' for Active; 'I' for Inactive)
REMARK    1  A    between atoms: C_2  and  C_5
REMARK    2  A    between atoms: C_9  and  N_10
REMARK    3  A    between atoms: C_17  and  C_18
REMARK    4  A    between atoms: C_18  and  C_19
REMARK    5  A    between atoms: C_19  and  N_20
REMARK                            x       y       z     vdW  Elec       q    Type
REMARK                         _______ _______ _______ _____ _____    ______ ____
ROOT
ATOM      1  N   UNL     1       9.609   1.611  24.068  0.00  0.00    -0.269 N 
ATOM      2  H   UNL     1       8.666   1.271  23.907  0.00  0.00    +0.156 HD
ATOM      3  C   UNL     1      10.536   0.632  24.328  0.00  0.00    +0.310 C 
ATOM      4  N   UNL     1      10.155  -0.654  24.063  0.00  0.00    -0.248 N 
ATOM      5  H   UNL     1      10.874  -1.355  24.155  0.00  0.00    +0.158 HD
ATOM      6  C   UNL     1       8.923  -1.033  23.626  0.00  0.00    +0.166 A 
ATOM      7  S   UNL     1       8.767  -2.660  23.155  0.00  0.00    -0.057 S 
ATOM      8  C   UNL     1       7.113  -2.368  22.774  0.00  0.00    +0.013 A 
ATOM      9  C   UNL     1       6.813  -1.047  23.059  0.00  0.00    +0.124 A 
ATOM     10  N   UNL     1       7.855  -0.281  23.530  0.00  0.00    -0.233 NA
ATOM     11  O   UNL     1      11.682   0.817  24.735  0.00  0.00    -0.252 OA
ENDROOT
BRANCH   1  14
ATOM     12  C   UNL     1      11.338   4.818  23.412  0.00  0.00    +0.057 A 
ATOM     13  C   UNL     1      11.041   3.445  23.486  0.00  0.00    +0.035 A 
ATOM     14  C   UNL     1       9.806   2.999  23.977  0.00  0.00    +0.035 A 
ATOM     15  C   UNL     1       8.867   3.938  24.398  0.00  0.00    +0.023 A 
ATOM     16  C   UNL     1       9.146   5.303  24.326  0.00  0.00    +0.002 A 
ATOM     17  C   UNL     1      10.373   5.742  23.834  0.00  0.00    +0.012 A 
BRANCH  12  19
ATOM     18  F   UNL     1      12.763   5.280  21.533  0.00  0.00    -0.166 F 
ATOM     19  C   UNL     1      12.678   5.272  22.893  0.00  0.00    +0.417 C 
ATOM     20  F   UNL     1      12.990   6.537  23.291  0.00  0.00    -0.166 F 
ATOM     21  F   UNL     1      13.701   4.483  23.325  0.00  0.00    -0.166 F 
ENDBRANCH  12  19
ENDBRANCH   1  14
BRANCH   8  22
ATOM     22  C   UNL     1       6.247  -3.467  22.227  0.00  0.00    +0.062 C 
BRANCH  22  23
ATOM     23  C   UNL     1       6.546  -4.815  22.887  0.00  0.00    +0.108 C 
BRANCH  23  24
ATOM     24  N   UNL     1       5.562  -5.159  23.903  0.00  0.00    -0.328 N 
ATOM     25  H   UNL     1       4.873  -5.868  23.665  0.00  0.00    +0.147 HD
ATOM     26  C   UNL     1       6.108  -5.372  25.175  0.00  0.00    +0.136 A 
ATOM     27  C   UNL     1       5.360  -5.872  26.250  0.00  0.00    +0.077 A 
ATOM     28  S   UNL     1       3.702  -6.337  26.324  0.00  0.00    -0.092 S 
ATOM     29  C   UNL     1       3.803  -6.703  27.991  0.00  0.00    +0.048 A 
ATOM     30  C   UNL     1       5.072  -6.505  28.485  0.00  0.00    +0.036 A 
ATOM     31  C   UNL     1       5.974  -6.030  27.489  0.00  0.00    +0.083 A 
ATOM     32  N   UNL     1       7.281  -5.748  27.705  0.00  0.00    -0.235 NA
ATOM     33  C   UNL     1       7.917  -5.282  26.631  0.00  0.00    +0.223 A 
ATOM     34  N   UNL     1       7.407  -5.075  25.411  0.00  0.00    -0.220 NA
ENDBRANCH  23  24
ENDBRANCH  22  23
ENDBRANCH   8  22
TORSDOF 5
ENDMDL
MODEL 2
REMARK VINA RESULT:      -8.5      1.716      2.674
REMARK  Name = 
REMARK  5 active torsions:
REMARK  status: ('A' for Active; 'I' for Inactive)
REMARK    1  A    between atoms: C_2  and  C_5
REMARK    2  A    between atoms: C_9  and  N_10
REMARK    3  A    between atoms: C_17  and  C_18
REMARK    4  A    between atoms: C_18  and  C_19
REMARK    5  A    between atoms: C_19  and  N_20
REMARK                            x       y       z     vdW  Elec       q    Type
REMARK                         _______ _______ _______ _____ _____    ______ ____
ROOT
ATOM      1  N   UNL     1       9.695   1.383  23.747  0.00  0.00    -0.269 N 
ATOM      2  H   UNL     1       9.676   0.920  24.650  0.00  0.00    +0.156 HD
ATOM      3  C   UNL     1       9.635   0.538  22.665  0.00  0.00    +0.310 C 
ATOM      4  N   UNL     1       9.276  -0.756  22.923  0.00  0.00    -0.248 N 
ATOM      5  H   UNL     1       9.131  -1.342  22.116  0.00  0.00    +0.158 HD
ATOM      6  C   UNL     1       9.040  -1.274  24.160  0.00  0.00    +0.166 A 
ATOM      7  S   UNL     1       8.390  -2.846  24.198  0.00  0.00    -0.057 S 
ATOM      8  C   UNL     1       8.380  -2.775  25.919  0.00  0.00    +0.013 A 
ATOM      9  C   UNL     1       8.895  -1.555  26.321  0.00  0.00    +0.124 A 
ATOM     10  N   UNL     1       9.256  -0.691  25.312  0.00  0.00    -0.233 NA
ATOM     11  O   UNL     1       9.834   0.855  21.494  0.00  0.00    -0.252 OA
ENDROOT
BRANCH   1  14
ATOM     12  C   UNL     1      11.154   4.777  23.515  0.00  0.00    +0.057 A 
ATOM     13  C   UNL     1      10.995   3.380  23.475  0.00  0.00    +0.035 A 
ATOM     14  C   UNL     1       9.757   2.786  23.756  0.00  0.00    +0.035 A 
ATOM     15  C   UNL     1       8.674   3.601  24.082  0.00  0.00    +0.023 A 
ATOM     16  C   UNL     1       8.816   4.988  24.121  0.00  0.00    +0.002 A 
ATOM     17  C   UNL     1      10.048   5.574  23.837  0.00  0.00    +0.012 A 
BRANCH  12  19
ATOM     18  F   UNL     1      12.629   5.835  21.941  0.00  0.00    -0.166 F 
ATOM     19  C   UNL     1      12.499   5.391  23.222  0.00  0.00    +0.417 C 
ATOM     20  F   UNL     1      12.766   6.465  24.016  0.00  0.00    -0.166 F 
ATOM     21  F   UNL     1      13.526   4.518  23.420  0.00  0.00    -0.166 F 
ENDBRANCH  12  19
ENDBRANCH   1  14
BRANCH   8  22
ATOM     22  C   UNL     1       7.868  -3.931  26.730  0.00  0.00    +0.062 C 
BRANCH  22  23
ATOM     23  C   UNL     1       7.722  -5.202  25.889  0.00  0.00    +0.108 C 
BRANCH  23  24
ATOM     24  N   UNL     1       6.431  -5.844  26.084  0.00  0.00    -0.328 N 
ATOM     25  H   UNL     1       5.915  -5.612  26.927  0.00  0.00    +0.147 HD
ATOM     26  C   UNL     1       5.608  -5.823  24.949  0.00  0.00    +0.136 A 
ATOM     27  C   UNL     1       4.270  -6.237  24.973  0.00  0.00    +0.077 A 
ATOM     28  S   UNL     1       3.319  -6.836  26.280  0.00  0.00    -0.092 S 
ATOM     29  C   UNL     1       1.959  -7.084  25.273  0.00  0.00    +0.048 A 
ATOM     30  C   UNL     1       2.203  -6.698  23.976  0.00  0.00    +0.036 A 
ATOM     31  C   UNL     1       3.529  -6.206  23.796  0.00  0.00    +0.083 A 
ATOM     32  N   UNL     1       4.034  -5.765  22.619  0.00  0.00    -0.235 NA
ATOM     33  C   UNL     1       5.309  -5.388  22.686  0.00  0.00    +0.223 A 
ATOM     34  N   UNL     1       6.105  -5.403  23.763  0.00  0.00    -0.220 NA
ENDBRANCH  23  24
ENDBRANCH  22  23
ENDBRANCH   8  22
TORSDOF 5
ENDMDL
MODEL 3
REMARK VINA RESULT:      -8.3      1.165      1.695
REMARK  Name = 
REMARK  5 active torsions:
REMARK  status: ('A' for Active; 'I' for Inactive)
REMARK    1  A    between atoms: C_2  and  C_5
REMARK    2  A    between atoms: C_9  and  N_10
REMARK    3  A    between atoms: C_17  and  C_18
REMARK    4  A    between atoms: C_18  and  C_19
REMARK    5  A    between atoms: C_19  and  N_20
REMARK                            x       y       z     vdW  Elec       q    Type
REMARK                         _______ _______ _______ _____ _____    ______ ____
ROOT
ATOM      1  N   UNL     1       9.619   1.668  24.021  0.00  0.00    -0.269 N 
ATOM      2  H   UNL     1       8.664   1.341  23.908  0.00  0.00    +0.156 HD
ATOM      3  C   UNL     1      10.555   0.672  24.154  0.00  0.00    +0.310 C 
ATOM      4  N   UNL     1      10.147  -0.594  23.840  0.00  0.00    -0.248 N 
ATOM      5  H   UNL     1      10.865  -1.302  23.837  0.00  0.00    +0.158 HD
ATOM      6  C   UNL     1       8.883  -0.943  23.470  0.00  0.00    +0.166 A 
ATOM      7  S   UNL     1       8.682  -2.537  22.914  0.00  0.00    -0.057 S 
ATOM      8  C   UNL     1       7.007  -2.217  22.670  0.00  0.00    +0.013 A 
ATOM      9  C   UNL     1       6.739  -0.915  23.056  0.00  0.00    +0.124 A 
ATOM     10  N   UNL     1       7.817  -0.182  23.497  0.00  0.00    -0.233 NA
ATOM     11  O   UNL     1      11.729   0.828  24.489  0.00  0.00    -0.252 OA
ENDROOT
BRANCH   1  14
ATOM     12  C   UNL     1      11.341   4.901  23.489  0.00  0.00    +0.057 A 
ATOM     13  C   UNL     1      11.041   3.527  23.497  0.00  0.00    +0.035 A 
ATOM     14  C   UNL     1       9.820   3.057  24.000  0.00  0.00    +0.035 A 
ATOM     15  C   UNL     1       8.898   3.975  24.501  0.00  0.00    +0.023 A 
ATOM     16  C   UNL     1       9.181   5.341  24.496  0.00  0.00    +0.002 A 
ATOM     17  C   UNL     1      10.394   5.803  23.990  0.00  0.00    +0.012 A 
BRANCH  12  19
ATOM     18  F   UNL     1      13.722   4.608  23.339  0.00  0.00    -0.166 F 
ATOM     19  C   UNL     1      12.667   5.379  22.954  0.00  0.00    +0.417 C 
ATOM     20  F   UNL     1      12.702   5.403  21.592  0.00  0.00    -0.166 F 
ATOM     21  F   UNL     1      12.967   6.646  23.356  0.00  0.00    -0.166 F 
ENDBRANCH  12  19
ENDBRANCH   1  14
BRANCH   8  22
ATOM     22  C   UNL     1       6.096  -3.278  22.122  0.00  0.00    +0.062 C 
BRANCH  22  23
ATOM     23  C   UNL     1       6.605  -4.687  22.433  0.00  0.00    +0.108 C 
BRANCH  23  24
ATOM     24  N   UNL     1       6.869  -4.876  23.852  0.00  0.00    -0.328 N 
ATOM     25  H   UNL     1       7.131  -4.056  24.391  0.00  0.00    +0.147 HD
ATOM     26  C   UNL     1       5.903  -5.646  24.512  0.00  0.00    +0.136 A 
ATOM     27  C   UNL     1       5.880  -5.807  25.904  0.00  0.00    +0.077 A 
ATOM     28  S   UNL     1       6.930  -5.164  27.111  0.00  0.00    -0.092 S 
ATOM     29  C   UNL     1       6.106  -5.979  28.367  0.00  0.00    +0.048 A 
ATOM     30  C   UNL     1       5.038  -6.706  27.895  0.00  0.00    +0.036 A 
ATOM     31  C   UNL     1       4.899  -6.609  26.479  0.00  0.00    +0.083 A 
ATOM     32  N   UNL     1       3.937  -7.229  25.756  0.00  0.00    -0.235 NA
ATOM     33  C   UNL     1       4.030  -7.020  24.443  0.00  0.00    +0.223 A 
ATOM     34  N   UNL     1       4.947  -6.287  23.801  0.00  0.00    -0.220 NA
ENDBRANCH  23  24
ENDBRANCH  22  23
ENDBRANCH   8  22
TORSDOF 5
ENDMDL
MODEL 4
REMARK VINA RESULT:      -8.2      1.678      2.314
REMARK  Name = 
REMARK  5 active torsions:
REMARK  status: ('A' for Active; 'I' for Inactive)
REMARK    1  A    between atoms: C_2  and  C_5
REMARK    2  A    between atoms: C_9  and  N_10
REMARK    3  A    between atoms: C_17  and  C_18
REMARK    4  A    between atoms: C_18  and  C_19
REMARK    5  A    between atoms: C_19  and  N_20
REMARK                            x       y       z     vdW  Elec       q    Type
REMARK                         _______ _______ _______ _____ _____    ______ ____
ROOT
ATOM      1  N   UNL     1       9.434   1.404  23.174  0.00  0.00    -0.269 N 
ATOM      2  H   UNL     1       9.835   0.697  23.783  0.00  0.00    +0.156 HD
ATOM      3  C   UNL     1       8.785   0.910  22.069  0.00  0.00    +0.310 C 
ATOM      4  N   UNL     1       8.511  -0.429  22.072  0.00  0.00    -0.248 N 
ATOM      5  H   UNL     1       7.941  -0.765  21.311  0.00  0.00    +0.158 HD
ATOM      6  C   UNL     1       8.885  -1.306  23.045  0.00  0.00    +0.166 A 
ATOM      7  S   UNL     1       8.231  -2.872  22.930  0.00  0.00    -0.057 S 
ATOM      8  C   UNL     1       9.085  -3.308  24.361  0.00  0.00    +0.013 A 
ATOM      9  C   UNL     1       9.817  -2.218  24.798  0.00  0.00    +0.124 A 
ATOM     10  N   UNL     1       9.687  -1.068  24.053  0.00  0.00    -0.233 NA
ATOM     11  O   UNL     1       8.395   1.572  21.108  0.00  0.00    -0.252 OA
ENDROOT
BRANCH   1  14
ATOM     12  C   UNL     1      11.064   4.691  23.660  0.00  0.00    +0.057 A 
ATOM     13  C   UNL     1      10.806   3.370  23.256  0.00  0.00    +0.035 A 
ATOM     14  C   UNL     1       9.592   2.743  23.568  0.00  0.00    +0.035 A 
ATOM     15  C   UNL     1       8.634   3.448  24.294  0.00  0.00    +0.023 A 
ATOM     16  C   UNL     1       8.875   4.762  24.698  0.00  0.00    +0.002 A 
ATOM     17  C   UNL     1      10.081   5.382  24.381  0.00  0.00    +0.012 A 
BRANCH  12  19
ATOM     18  F   UNL     1      13.440   4.480  23.364  0.00  0.00    -0.166 F 
ATOM     19  C   UNL     1      12.383   5.339  23.323  0.00  0.00    +0.417 C 
ATOM     20  F   UNL     1      12.394   5.881  22.074  0.00  0.00    -0.166 F 
ATOM     21  F   UNL     1      12.698   6.356  24.172  0.00  0.00    -0.166 F 
ENDBRANCH  12  19
ENDBRANCH   1  14
BRANCH   8  22
ATOM     22  C   UNL     1       8.964  -4.692  24.933  0.00  0.00    +0.062 C 
BRANCH  22  23
ATOM     23  C   UNL     1       8.292  -4.687  26.308  0.00  0.00    +0.108 C 
BRANCH  23  24
ATOM     24  N   UNL     1       6.839  -4.690  26.210  0.00  0.00    -0.328 N 
ATOM     25  H   UNL     1       6.434  -4.822  25.288  0.00  0.00    +0.147 HD
ATOM     26  C   UNL     1       6.206  -5.484  27.175  0.00  0.00    +0.136 A 
ATOM     27  C   UNL     1       4.831  -5.755  27.154  0.00  0.00    +0.077 A 
ATOM     28  S   UNL     1       3.619  -5.247  26.038  0.00  0.00    -0.092 S 
ATOM     29  C   UNL     1       2.377  -6.023  26.919  0.00  0.00    +0.048 A 
ATOM     30  C   UNL     1       2.866  -6.681  28.025  0.00  0.00    +0.036 A 
ATOM     31  C   UNL     1       4.277  -6.534  28.165  0.00  0.00    +0.083 A 
ATOM     32  N   UNL     1       5.012  -7.072  29.167  0.00  0.00    -0.235 NA
ATOM     33  C   UNL     1       6.307  -6.769  29.109  0.00  0.00    +0.223 A 
ATOM     34  N   UNL     1       6.924  -6.013  28.193  0.00  0.00    -0.220 NA
ENDBRANCH  23  24
ENDBRANCH  22  23
ENDBRANCH   8  22
TORSDOF 5
ENDMDL
MODEL 5
REMARK VINA RESULT:      -8.0      1.877      2.406
REMARK  Name = 
REMARK  5 active torsions:
REMARK  status: ('A' for Active; 'I' for Inactive)
REMARK    1  A    between atoms: C_2  and  C_5
REMARK    2  A    between atoms: C_9  and  N_10
REMARK    3  A    between atoms: C_17  and  C_18
REMARK    4  A    between atoms: C_18  and  C_19
REMARK    5  A    between atoms: C_19  and  N_20
REMARK                            x       y       z     vdW  Elec       q    Type
REMARK                         _______ _______ _______ _____ _____    ______ ____
ROOT
ATOM      1  N   UNL     1       9.292   1.434  23.185  0.00  0.00    -0.269 N 
ATOM      2  H   UNL     1       9.736   0.711  23.743  0.00  0.00    +0.156 HD
ATOM      3  C   UNL     1       8.556   0.970  22.123  0.00  0.00    +0.310 C 
ATOM      4  N   UNL     1       8.278  -0.369  22.114  0.00  0.00    -0.248 N 
ATOM      5  H   UNL     1       7.649  -0.684  21.391  0.00  0.00    +0.158 HD
ATOM      6  C   UNL     1       8.724  -1.270  23.032  0.00  0.00    +0.166 A 
ATOM      7  S   UNL     1       8.057  -2.832  22.928  0.00  0.00    -0.057 S 
ATOM      8  C   UNL     1       9.018  -3.306  24.277  0.00  0.00    +0.013 A 
ATOM      9  C   UNL     1       9.786  -2.229  24.683  0.00  0.00    +0.124 A 
ATOM     10  N   UNL     1       9.603  -1.060  23.979  0.00  0.00    -0.233 NA
ATOM     11  O   UNL     1       8.095   1.657  21.213  0.00  0.00    -0.252 OA
ENDROOT
BRANCH   1  14
ATOM     12  C   UNL     1      11.007   4.671  23.717  0.00  0.00    +0.057 A 
ATOM     13  C   UNL     1      10.714   3.362  23.293  0.00  0.00    +0.035 A 
ATOM     14  C   UNL     1       9.486   2.762  23.600  0.00  0.00    +0.035 A 
ATOM     15  C   UNL     1       8.549   3.480  24.341  0.00  0.00    +0.023 A 
ATOM     16  C   UNL     1       8.824   4.781  24.764  0.00  0.00    +0.002 A 
ATOM     17  C   UNL     1      10.045   5.374  24.452  0.00  0.00    +0.012 A 
BRANCH  12  19
ATOM     18  F   UNL     1      12.396   5.833  22.137  0.00  0.00    -0.166 F 
ATOM     19  C   UNL     1      12.341   5.289  23.385  0.00  0.00    +0.417 C 
ATOM     20  F   UNL     1      12.679   6.293  24.242  0.00  0.00    -0.166 F 
ATOM     21  F   UNL     1      13.364   4.391  23.443  0.00  0.00    -0.166 F 
ENDBRANCH  12  19
ENDBRANCH   1  14
BRANCH   8  22
ATOM     22  C   UNL     1       8.936  -4.704  24.821  0.00  0.00    +0.062 C 
BRANCH  22  23
ATOM     23  C   UNL     1       8.961  -4.726  26.351  0.00  0.00    +0.108 C 
BRANCH  23  24
ATOM     24  N   UNL     1       7.873  -5.517  26.907  0.00  0.00    -0.328 N 
ATOM     25  H   UNL     1       8.109  -6.204  27.617  0.00  0.00    +0.147 HD
ATOM     26  C   UNL     1       6.748  -4.763  27.268  0.00  0.00    +0.136 A 
ATOM     27  C   UNL     1       5.663  -5.304  27.970  0.00  0.00    +0.077 A 
ATOM     28  S   UNL     1       5.408  -6.907  28.551  0.00  0.00    -0.092 S 
ATOM     29  C   UNL     1       3.855  -6.522  29.152  0.00  0.00    +0.048 A 
ATOM     30  C   UNL     1       3.538  -5.199  28.945  0.00  0.00    +0.036 A 
ATOM     31  C   UNL     1       4.574  -4.491  28.269  0.00  0.00    +0.083 A 
ATOM     32  N   UNL     1       4.520  -3.180  27.936  0.00  0.00    -0.235 NA
ATOM     33  C   UNL     1       5.592  -2.747  27.275  0.00  0.00    +0.223 A 
ATOM     34  N   UNL     1       6.672  -3.456  26.924  0.00  0.00    -0.220 NA
ENDBRANCH  23  24
ENDBRANCH  22  23
ENDBRANCH   8  22
TORSDOF 5
ENDMDL
MODEL 6
REMARK VINA RESULT:      -7.9      2.839      3.817
REMARK  Name = 
REMARK  5 active torsions:
REMARK  status: ('A' for Active; 'I' for Inactive)
REMARK    1  A    between atoms: C_2  and  C_5
REMARK    2  A    between atoms: C_9  and  N_10
REMARK    3  A    between atoms: C_17  and  C_18
REMARK    4  A    between atoms: C_18  and  C_19
REMARK    5  A    between atoms: C_19  and  N_20
REMARK                            x       y       z     vdW  Elec       q    Type
REMARK                         _______ _______ _______ _____ _____    ______ ____
ROOT
ATOM      1  N   UNL     1       9.627   2.385  23.719  0.00  0.00    -0.269 N 
ATOM      2  H   UNL     1       9.472   1.937  24.617  0.00  0.00    +0.156 HD
ATOM      3  C   UNL     1      10.019   1.536  22.713  0.00  0.00    +0.310 C 
ATOM      4  N   UNL     1       9.877   0.198  22.955  0.00  0.00    -0.248 N 
ATOM      5  H   UNL     1      10.066  -0.414  22.176  0.00  0.00    +0.158 HD
ATOM      6  C   UNL     1       9.442  -0.347  24.125  0.00  0.00    +0.166 A 
ATOM      7  S   UNL     1       9.139  -2.020  24.101  0.00  0.00    -0.057 S 
ATOM      8  C   UNL     1       8.674  -1.937  25.758  0.00  0.00    +0.013 A 
ATOM      9  C   UNL     1       8.810  -0.631  26.197  0.00  0.00    +0.124 A 
ATOM     10  N   UNL     1       9.233   0.280  25.256  0.00  0.00    -0.233 NA
ATOM     11  O   UNL     1      10.443   1.876  21.610  0.00  0.00    -0.252 OA
ENDROOT
BRANCH   1  14
ATOM     12  C   UNL     1       7.824   5.563  23.130  0.00  0.00    +0.057 A 
ATOM     13  C   UNL     1       8.120   4.195  23.269  0.00  0.00    +0.035 A 
ATOM     14  C   UNL     1       9.398   3.769  23.654  0.00  0.00    +0.035 A 
ATOM     15  C   UNL     1      10.385   4.724  23.897  0.00  0.00    +0.023 A 
ATOM     16  C   UNL     1      10.104   6.084  23.766  0.00  0.00    +0.002 A 
ATOM     17  C   UNL     1       8.831   6.502  23.388  0.00  0.00    +0.012 A 
BRANCH  12  19
ATOM     18  F   UNL     1       5.805   6.769  23.623  0.00  0.00    -0.166 F 
ATOM     19  C   UNL     1       6.445   5.995  22.702  0.00  0.00    +0.417 C 
ATOM     20  F   UNL     1       6.461   6.725  21.552  0.00  0.00    -0.166 F 
ATOM     21  F   UNL     1       5.617   4.941  22.462  0.00  0.00    -0.166 F 
ENDBRANCH  12  19
ENDBRANCH   1  14
BRANCH   8  22
ATOM     22  C   UNL     1       8.217  -3.167  26.488  0.00  0.00    +0.062 C 
BRANCH  22  23
ATOM     23  C   UNL     1       8.371  -4.430  25.637  0.00  0.00    +0.108 C 
BRANCH  23  24
ATOM     24  N   UNL     1       7.219  -5.312  25.749  0.00  0.00    -0.328 N 
ATOM     25  H   UNL     1       6.712  -5.309  26.629  0.00  0.00    +0.147 HD
ATOM     26  C   UNL     1       6.353  -5.258  24.649  0.00  0.00    +0.136 A 
ATOM     27  C   UNL     1       5.107  -5.900  24.631  0.00  0.00    +0.077 A 
ATOM     28  S   UNL     1       4.335  -6.855  25.841  0.00  0.00    -0.092 S 
ATOM     29  C   UNL     1       2.992  -7.178  24.834  0.00  0.00    +0.048 A 
ATOM     30  C   UNL     1       3.104  -6.556  23.612  0.00  0.00    +0.036 A 
ATOM     31  C   UNL     1       4.317  -5.816  23.489  0.00  0.00    +0.083 A 
ATOM     32  N   UNL     1       4.683  -5.115  22.390  0.00  0.00    -0.235 NA
ATOM     33  C   UNL     1       5.877  -4.534  22.493  0.00  0.00    +0.223 A 
ATOM     34  N   UNL     1       6.714  -4.578  23.537  0.00  0.00    -0.220 NA
ENDBRANCH  23  24
ENDBRANCH  22  23
ENDBRANCH   8  22
TORSDOF 5
ENDMDL
MODEL 7
REMARK VINA RESULT:      -7.8      5.359     10.012
REMARK  Name = 
REMARK  5 active torsions:
REMARK  status: ('A' for Active; 'I' for Inactive)
REMARK    1  A    between atoms: C_2  and  C_5
REMARK    2  A    between atoms: C_9  and  N_10
REMARK    3  A    between atoms: C_17  and  C_18
REMARK    4  A    between atoms: C_18  and  C_19
REMARK    5  A    between atoms: C_19  and  N_20
REMARK                            x       y       z     vdW  Elec       q    Type
REMARK                         _______ _______ _______ _____ _____    ______ ____
ROOT
ATOM      1  N   UNL     1       8.222  -3.369  23.041  0.00  0.00    -0.269 N 
ATOM      2  H   UNL     1       8.364  -2.603  22.390  0.00  0.00    +0.156 HD
ATOM      3  C   UNL     1       9.084  -3.382  24.110  0.00  0.00    +0.310 C 
ATOM      4  N   UNL     1       9.811  -2.243  24.320  0.00  0.00    -0.248 N 
ATOM      5  H   UNL     1      10.361  -2.220  25.165  0.00  0.00    +0.158 HD
ATOM      6  C   UNL     1       9.791  -1.140  23.522  0.00  0.00    +0.166 A 
ATOM      7  S   UNL     1      10.610   0.226  24.117  0.00  0.00    -0.057 S 
ATOM      8  C   UNL     1      10.160   1.088  22.695  0.00  0.00    +0.013 A 
ATOM      9  C   UNL     1       9.432   0.246  21.872  0.00  0.00    +0.124 A 
ATOM     10  N   UNL     1       9.207  -1.023  22.355  0.00  0.00    -0.233 NA
ATOM     11  O   UNL     1       9.223  -4.305  24.911  0.00  0.00    -0.252 OA
ENDROOT
BRANCH   1  14
ATOM     12  C   UNL     1       4.874  -4.936  23.230  0.00  0.00    +0.057 A 
ATOM     13  C   UNL     1       5.957  -4.060  23.422  0.00  0.00    +0.035 A 
ATOM     14  C   UNL     1       7.174  -4.258  22.755  0.00  0.00    +0.035 A 
ATOM     15  C   UNL     1       7.302  -5.346  21.893  0.00  0.00    +0.023 A 
ATOM     16  C   UNL     1       6.235  -6.221  21.690  0.00  0.00    +0.002 A 
ATOM     17  C   UNL     1       5.027  -6.017  22.352  0.00  0.00    +0.012 A 
BRANCH  12  19
ATOM     18  F   UNL     1       3.459  -3.453  24.484  0.00  0.00    -0.166 F 
ATOM     19  C   UNL     1       3.581  -4.709  23.969  0.00  0.00    +0.417 C 
ATOM     20  F   UNL     1       2.488  -4.893  23.178  0.00  0.00    -0.166 F 
ATOM     21  F   UNL     1       3.424  -5.559  25.023  0.00  0.00    -0.166 F 
ENDBRANCH  12  19
ENDBRANCH   1  14
BRANCH   8  22
ATOM     22  C   UNL     1      10.564   2.523  22.508  0.00  0.00    +0.062 C 
BRANCH  22  23
ATOM     23  C   UNL     1      10.201   3.383  23.721  0.00  0.00    +0.108 C 
BRANCH  23  24
ATOM     24  N   UNL     1       9.367   4.520  23.358  0.00  0.00    -0.328 N 
ATOM     25  H   UNL     1       9.577   4.993  22.484  0.00  0.00    +0.147 HD
ATOM     26  C   UNL     1       7.994   4.288  23.508  0.00  0.00    +0.136 A 
ATOM     27  C   UNL     1       7.018   5.188  23.059  0.00  0.00    +0.077 A 
ATOM     28  S   UNL     1       7.193   6.705  22.260  0.00  0.00    -0.092 S 
ATOM     29  C   UNL     1       5.505   6.971  22.236  0.00  0.00    +0.048 A 
ATOM     30  C   UNL     1       4.811   5.923  22.796  0.00  0.00    +0.036 A 
ATOM     31  C   UNL     1       5.674   4.892  23.269  0.00  0.00    +0.083 A 
ATOM     32  N   UNL     1       5.255   3.752  23.868  0.00  0.00    -0.235 NA
ATOM     33  C   UNL     1       6.246   2.952  24.259  0.00  0.00    +0.223 A 
ATOM     34  N   UNL     1       7.561   3.162  24.122  0.00  0.00    -0.220 NA
ENDBRANCH  23  24
ENDBRANCH  22  23
ENDBRANCH   8  22
TORSDOF 5
ENDMDL
MODEL 8
REMARK VINA RESULT:      -7.8      5.620     10.125
REMARK  Name = 
REMARK  5 active torsions:
REMARK  status: ('A' for Active; 'I' for Inactive)
REMARK    1  A    between atoms: C_2  and  C_5
REMARK    2  A    between atoms: C_9  and  N_10
REMARK    3  A    between atoms: C_17  and  C_18
REMARK    4  A    between atoms: C_18  and  C_19
REMARK    5  A    between atoms: C_19  and  N_20
REMARK                            x       y       z     vdW  Elec       q    Type
REMARK                         _______ _______ _______ _____ _____    ______ ____
ROOT
ATOM      1  N   UNL     1       7.848  -4.543  25.083  0.00  0.00    -0.269 N 
ATOM      2  H   UNL     1       7.472  -3.986  24.321  0.00  0.00    +0.156 HD
ATOM      3  C   UNL     1       9.217  -4.528  25.187  0.00  0.00    +0.310 C 
ATOM      4  N   UNL     1       9.872  -3.570  24.464  0.00  0.00    -0.248 N 
ATOM      5  H   UNL     1      10.864  -3.495  24.627  0.00  0.00    +0.158 HD
ATOM      6  C   UNL     1       9.280  -2.686  23.613  0.00  0.00    +0.166 A 
ATOM      7  S   UNL     1      10.280  -1.452  23.007  0.00  0.00    -0.057 S 
ATOM      8  C   UNL     1       8.938  -0.831  22.123  0.00  0.00    +0.013 A 
ATOM      9  C   UNL     1       7.837  -1.637  22.354  0.00  0.00    +0.124 A 
ATOM     10  N   UNL     1       8.031  -2.688  23.221  0.00  0.00    -0.233 NA
ATOM     11  O   UNL     1       9.892  -5.267  25.901  0.00  0.00    -0.252 OA
ENDROOT
BRANCH   1  14
ATOM     12  C   UNL     1       4.759  -6.345  26.040  0.00  0.00    +0.057 A 
ATOM     13  C   UNL     1       5.764  -5.714  25.286  0.00  0.00    +0.035 A 
ATOM     14  C   UNL     1       6.917  -5.207  25.900  0.00  0.00    +0.035 A 
ATOM     15  C   UNL     1       7.059  -5.333  27.281  0.00  0.00    +0.023 A 
ATOM     16  C   UNL     1       6.072  -5.961  28.041  0.00  0.00    +0.002 A 
ATOM     17  C   UNL     1       4.930  -6.467  27.426  0.00  0.00    +0.012 A 
BRANCH  12  19
ATOM     18  F   UNL     1       2.802  -7.738  26.124  0.00  0.00    -0.166 F 
ATOM     19  C   UNL     1       3.522  -6.870  25.358  0.00  0.00    +0.417 C 
ATOM     20  F   UNL     1       2.657  -5.878  25.010  0.00  0.00    -0.166 F 
ATOM     21  F   UNL     1       3.804  -7.539  24.205  0.00  0.00    -0.166 F 
ENDBRANCH  12  19
ENDBRANCH   1  14
BRANCH   8  22
ATOM     22  C   UNL     1       9.084   0.399  21.272  0.00  0.00    +0.062 C 
BRANCH  22  23
ATOM     23  C   UNL     1       9.912   1.482  21.967  0.00  0.00    +0.108 C 
BRANCH  23  24
ATOM     24  N   UNL     1       9.227   2.766  21.993  0.00  0.00    -0.328 N 
ATOM     25  H   UNL     1       8.665   3.012  21.184  0.00  0.00    +0.147 HD
ATOM     26  C   UNL     1       8.552   3.025  23.193  0.00  0.00    +0.136 A 
ATOM     27  C   UNL     1       7.698   4.123  23.363  0.00  0.00    +0.077 A 
ATOM     28  S   UNL     1       7.256   5.366  22.252  0.00  0.00    -0.092 S 
ATOM     29  C   UNL     1       6.297   6.169  23.417  0.00  0.00    +0.048 A 
ATOM     30  C   UNL     1       6.283   5.502  24.620  0.00  0.00    +0.036 A 
ATOM     31  C   UNL     1       7.084   4.323  24.596  0.00  0.00    +0.083 A 
ATOM     32  N   UNL     1       7.251   3.484  25.646  0.00  0.00    -0.235 NA
ATOM     33  C   UNL     1       8.074   2.466  25.398  0.00  0.00    +0.223 A 
ATOM     34  N   UNL     1       8.724   2.207  24.257  0.00  0.00    -0.220 NA
ENDBRANCH  23  24
ENDBRANCH  22  23
ENDBRANCH   8  22
TORSDOF 5
ENDMDL
MODEL 9
REMARK VINA RESULT:      -7.8      5.541     10.860
REMARK  Name = 
REMARK  5 active torsions:
REMARK  status: ('A' for Active; 'I' for Inactive)
REMARK    1  A    between atoms: C_2  and  C_5
REMARK    2  A    between atoms: C_9  and  N_10
REMARK    3  A    between atoms: C_17  and  C_18
REMARK    4  A    between atoms: C_18  and  C_19
REMARK    5  A    between atoms: C_19  and  N_20
REMARK                            x       y       z     vdW  Elec       q    Type
REMARK                         _______ _______ _______ _____ _____    ______ ____
ROOT
ATOM      1  N   UNL     1       6.953  -4.997  24.494  0.00  0.00    -0.269 N 
ATOM      2  H   UNL     1       6.890  -4.359  23.707  0.00  0.00    +0.156 HD
ATOM      3  C   UNL     1       8.184  -5.042  25.101  0.00  0.00    +0.310 C 
ATOM      4  N   UNL     1       9.062  -4.046  24.772  0.00  0.00    -0.248 N 
ATOM      5  H   UNL     1       9.921  -4.023  25.299  0.00  0.00    +0.158 HD
ATOM      6  C   UNL     1       8.831  -3.067  23.855  0.00  0.00    +0.166 A 
ATOM      7  S   UNL     1       9.985  -1.819  23.789  0.00  0.00    -0.057 S 
ATOM      8  C   UNL     1       9.071  -1.070  22.536  0.00  0.00    +0.013 A 
ATOM      9  C   UNL     1       7.963  -1.853  22.259  0.00  0.00    +0.124 A 
ATOM     10  N   UNL     1       7.819  -2.986  23.027  0.00  0.00    -0.233 NA
ATOM     11  O   UNL     1       8.544  -5.868  25.938  0.00  0.00    -0.252 OA
ENDROOT
BRANCH   1  14
ATOM     12  C   UNL     1       4.335  -6.514  26.626  0.00  0.00    +0.057 A 
ATOM     13  C   UNL     1       5.459  -5.786  26.196  0.00  0.00    +0.035 A 
ATOM     14  C   UNL     1       5.785  -5.698  24.836  0.00  0.00    +0.035 A 
ATOM     15  C   UNL     1       4.979  -6.349  23.903  0.00  0.00    +0.023 A 
ATOM     16  C   UNL     1       3.858  -7.071  24.315  0.00  0.00    +0.002 A 
ATOM     17  C   UNL     1       3.536  -7.151  25.668  0.00  0.00    +0.012 A 
BRANCH  12  19
ATOM     18  F   UNL     1       2.789  -7.144  28.354  0.00  0.00    -0.166 F 
ATOM     19  C   UNL     1       4.012  -6.604  28.095  0.00  0.00    +0.417 C 
ATOM     20  F   UNL     1       4.907  -7.368  28.780  0.00  0.00    -0.166 F 
ATOM     21  F   UNL     1       4.017  -5.387  28.708  0.00  0.00    -0.166 F 
ENDBRANCH  12  19
ENDBRANCH   1  14
BRANCH   8  22
ATOM     22  C   UNL     1       9.523   0.226  21.927  0.00  0.00    +0.062 C 
BRANCH  22  23
ATOM     23  C   UNL     1      10.181   1.145  22.959  0.00  0.00    +0.108 C 
BRANCH  23  24
ATOM     24  N   UNL     1       9.342   2.287  23.292  0.00  0.00    -0.328 N 
ATOM     25  H   UNL     1       8.630   2.153  24.004  0.00  0.00    +0.147 HD
ATOM     26  C   UNL     1      10.054   3.478  23.486  0.00  0.00    +0.136 A 
ATOM     27  C   UNL     1       9.457   4.649  23.972  0.00  0.00    +0.077 A 
ATOM     28  S   UNL     1       7.825   4.950  24.439  0.00  0.00    -0.092 S 
ATOM     29  C   UNL     1       8.148   6.593  24.783  0.00  0.00    +0.048 A 
ATOM     30  C   UNL     1       9.471   6.911  24.576  0.00  0.00    +0.036 A 
ATOM     31  C   UNL     1      10.231   5.797  24.113  0.00  0.00    +0.083 A 
ATOM     32  N   UNL     1      11.554   5.834  23.826  0.00  0.00    -0.235 NA
ATOM     33  C   UNL     1      12.040   4.679  23.374  0.00  0.00    +0.223 A 
ATOM     34  N   UNL     1      11.371   3.535  23.184  0.00  0.00    -0.220 NA
ENDBRANCH  23  24
ENDBRANCH  22  23
ENDBRANCH   8  22
TORSDOF 5
ENDMDL
