MODEL 1
REMARK VINA RESULT:      -7.4      0.000      0.000
REMARK  Name = 
REMARK  3 active torsions:
REMARK  status: ('A' for Active; 'I' for Inactive)
REMARK    1  A    between atoms: C_1  and  C_2
REMARK    2  A    between atoms: C_15  and  C_16
REMARK    3  A    between atoms: C_17  and  O_18
REMARK                            x       y       z     vdW  Elec       q    Type
REMARK                         _______ _______ _______ _____ _____    ______ ____
ROOT
ATOM      1  C   UNL     1       9.505  -4.871  25.890  0.00  0.00    +0.008 C 
ATOM      2  C   UNL     1       8.426  -3.799  26.067  0.00  0.00    -0.006 C 
ATOM      3  C   UNL     1       8.178  -2.860  24.852  0.00  0.00    -0.000 C 
ATOM      4  C   UNL     1       7.753  -3.694  23.612  0.00  0.00    -0.000 C 
ATOM      5  C   UNL     1       7.596  -2.861  22.331  0.00  0.00    +0.005 C 
ATOM      6  C   UNL     1       8.686  -1.844  22.121  0.00  0.00    +0.010 C 
ATOM      7  C   UNL     1       8.977  -0.932  23.314  0.00  0.00    -0.003 C 
ATOM      8  C   UNL     1       7.858   0.040  23.789  0.00  0.00    +0.121 C 
ATOM      9  C   UNL     1       8.392   0.512  25.148  0.00  0.00    +0.032 C 
ATOM     10  C   UNL     1       9.216  -0.669  25.702  0.00  0.00    +0.007 C 
ATOM     11  C   UNL     1      10.205  -0.079  22.889  0.00  0.00    +0.014 C 
ATOM     12  C   UNL     1       6.394  -4.391  23.915  0.00  0.00    +0.019 C 
ATOM     13  C   UNL     1       6.337  -5.071  25.275  0.00  0.00    -0.063 C 
ATOM     14  C   UNL     1       5.545  -6.138  25.505  0.00  0.00    +0.045 C 
ATOM     15  C   UNL     1       4.664  -6.689  24.425  0.00  0.00    +0.156 C 
ATOM     16  C   UNL     1       4.627  -5.997  23.096  0.00  0.00    +0.079 C 
ATOM     17  O   UNL     1       3.930  -7.643  24.690  0.00  0.00    -0.293 OA
ATOM     18  C   UNL     1       5.976  -5.359  22.791  0.00  0.00    +0.016 C 
ATOM     19  C   UNL     1       9.257  -1.763  24.598  0.00  0.00    +0.001 C 
ATOM     20  C   UNL     1       7.069  -4.438  26.433  0.00  0.00    +0.034 C 
ENDROOT
BRANCH   8  21
ATOM     21  O   UNL     1       6.583  -0.571  23.955  0.00  0.00    -0.391 OA
ATOM     22  H   UNL     1       5.915  -0.062  23.463  0.00  0.00    +0.210 HD
ENDBRANCH   8  21
TORSDOF 1
ENDMDL
MODEL 2
REMARK VINA RESULT:      -7.2      2.166      6.163
REMARK  Name = 
REMARK  3 active torsions:
REMARK  status: ('A' for Active; 'I' for Inactive)
REMARK    1  A    between atoms: C_1  and  C_2
REMARK    2  A    between atoms: C_15  and  C_16
REMARK    3  A    between atoms: C_17  and  O_18
REMARK                            x       y       z     vdW  Elec       q    Type
REMARK                         _______ _______ _______ _____ _____    ______ ____
ROOT
ATOM      1  C   UNL     1       5.710  -0.181  25.452  0.00  0.00    +0.008 C 
ATOM      2  C   UNL     1       7.020  -0.897  25.791  0.00  0.00    -0.006 C 
ATOM      3  C   UNL     1       7.489  -1.991  24.791  0.00  0.00    -0.000 C 
ATOM      4  C   UNL     1       7.693  -1.373  23.380  0.00  0.00    -0.000 C 
ATOM      5  C   UNL     1       8.047  -2.403  22.298  0.00  0.00    +0.005 C 
ATOM      6  C   UNL     1       7.241  -3.672  22.369  0.00  0.00    +0.010 C 
ATOM      7  C   UNL     1       7.186  -4.344  23.743  0.00  0.00    -0.003 C 
ATOM      8  C   UNL     1       8.511  -4.890  24.349  0.00  0.00    +0.121 C 
ATOM      9  C   UNL     1       8.112  -5.167  25.805  0.00  0.00    +0.032 C 
ATOM     10  C   UNL     1       7.024  -4.127  26.142  0.00  0.00    +0.007 C 
ATOM     11  C   UNL     1       6.205  -5.538  23.577  0.00  0.00    +0.014 C 
ATOM     12  C   UNL     1       8.839  -0.320  23.453  0.00  0.00    +0.019 C 
ATOM     13  C   UNL     1       8.730   0.634  24.633  0.00  0.00    -0.063 C 
ATOM     14  C   UNL     1       9.234   1.883  24.587  0.00  0.00    +0.045 C 
ATOM     15  C   UNL     1       9.950   2.380  23.367  0.00  0.00    +0.156 C 
ATOM     16  C   UNL     1      10.154   1.443  22.215  0.00  0.00    +0.079 C 
ATOM     17  O   UNL     1      10.427   3.516  23.383  0.00  0.00    -0.293 OA
ATOM     18  C   UNL     1       9.003   0.449  22.128  0.00  0.00    +0.016 C 
ATOM     19  C   UNL     1       6.713  -3.344  24.835  0.00  0.00    +0.001 C 
ATOM     20  C   UNL     1       8.179   0.113  25.937  0.00  0.00    +0.034 C 
ENDROOT
BRANCH   8  21
ATOM     21  O   UNL     1       9.597  -3.970  24.311  0.00  0.00    -0.391 OA
ATOM     22  H   UNL     1       9.392  -3.256  23.681  0.00  0.00    +0.210 HD
ENDBRANCH   8  21
TORSDOF 1
ENDMDL
MODEL 3
REMARK VINA RESULT:      -7.1      2.100      3.684
REMARK  Name = 
REMARK  3 active torsions:
REMARK  status: ('A' for Active; 'I' for Inactive)
REMARK    1  A    between atoms: C_1  and  C_2
REMARK    2  A    between atoms: C_15  and  C_16
REMARK    3  A    between atoms: C_17  and  O_18
REMARK                            x       y       z     vdW  Elec       q    Type
REMARK                         _______ _______ _______ _____ _____    ______ ____
ROOT
ATOM      1  C   UNL     1       5.646   0.112  25.731  0.00  0.00    +0.008 C 
ATOM      2  C   UNL     1       6.116  -0.450  24.387  0.00  0.00    -0.006 C 
ATOM      3  C   UNL     1       7.638  -0.339  24.085  0.00  0.00    -0.000 C 
ATOM      4  C   UNL     1       8.453  -1.092  25.172  0.00  0.00    -0.000 C 
ATOM      5  C   UNL     1       9.974  -0.941  25.021  0.00  0.00    +0.005 C 
ATOM      6  C   UNL     1      10.423   0.456  24.686  0.00  0.00    +0.010 C 
ATOM      7  C   UNL     1       9.705   1.117  23.508  0.00  0.00    -0.003 C 
ATOM      8  C   UNL     1       9.874   0.487  22.095  0.00  0.00    +0.121 C 
ATOM      9  C   UNL     1       8.781   1.201  21.288  0.00  0.00    +0.032 C 
ATOM     10  C   UNL     1       7.653   1.505  22.296  0.00  0.00    +0.007 C 
ATOM     11  C   UNL     1      10.254   2.570  23.455  0.00  0.00    +0.014 C 
ATOM     12  C   UNL     1       8.100  -2.607  25.107  0.00  0.00    +0.019 C 
ATOM     13  C   UNL     1       6.608  -2.892  25.020  0.00  0.00    -0.063 C 
ATOM     14  C   UNL     1       6.072  -4.035  25.494  0.00  0.00    +0.045 C 
ATOM     15  C   UNL     1       6.938  -5.091  26.113  0.00  0.00    +0.156 C 
ATOM     16  C   UNL     1       8.422  -4.887  26.141  0.00  0.00    +0.079 C 
ATOM     17  O   UNL     1       6.410  -6.135  26.500  0.00  0.00    -0.293 OA
ATOM     18  C   UNL     1       8.753  -3.404  26.252  0.00  0.00    +0.016 C 
ATOM     19  C   UNL     1       8.163   1.080  23.702  0.00  0.00    +0.001 C 
ATOM     20  C   UNL     1       5.732  -1.938  24.245  0.00  0.00    +0.034 C 
ENDROOT
BRANCH   8  21
ATOM     21  O   UNL     1       9.666  -0.921  22.052  0.00  0.00    -0.391 OA
ATOM     22  H   UNL     1       8.979  -1.125  21.394  0.00  0.00    +0.210 HD
ENDBRANCH   8  21
TORSDOF 1
ENDMDL
MODEL 4
REMARK VINA RESULT:      -7.0      2.102      6.132
REMARK  Name = 
REMARK  3 active torsions:
REMARK  status: ('A' for Active; 'I' for Inactive)
REMARK    1  A    between atoms: C_1  and  C_2
REMARK    2  A    between atoms: C_15  and  C_16
REMARK    3  A    between atoms: C_17  and  O_18
REMARK                            x       y       z     vdW  Elec       q    Type
REMARK                         _______ _______ _______ _____ _____    ______ ____
ROOT
ATOM      1  C   UNL     1      10.002  -2.382  24.009  0.00  0.00    +0.008 C 
ATOM      2  C   UNL     1       9.033  -2.634  22.850  0.00  0.00    -0.006 C 
ATOM      3  C   UNL     1       7.565  -2.973  23.237  0.00  0.00    -0.000 C 
ATOM      4  C   UNL     1       6.949  -1.811  24.064  0.00  0.00    -0.000 C 
ATOM      5  C   UNL     1       5.536  -2.107  24.588  0.00  0.00    +0.005 C 
ATOM      6  C   UNL     1       5.363  -3.496  25.141  0.00  0.00    +0.010 C 
ATOM      7  C   UNL     1       5.840  -4.632  24.235  0.00  0.00    -0.003 C 
ATOM      8  C   UNL     1       5.114  -4.845  22.875  0.00  0.00    +0.121 C 
ATOM      9  C   UNL     1       6.060  -5.810  22.149  0.00  0.00    +0.032 C 
ATOM     10  C   UNL     1       7.473  -5.478  22.670  0.00  0.00    +0.007 C 
ATOM     11  C   UNL     1       5.672  -5.927  25.077  0.00  0.00    +0.014 C 
ATOM     12  C   UNL     1       6.887  -0.536  23.172  0.00  0.00    +0.019 C 
ATOM     13  C   UNL     1       8.171  -0.253  22.406  0.00  0.00    -0.063 C 
ATOM     14  C   UNL     1       8.527   0.997  22.050  0.00  0.00    +0.045 C 
ATOM     15  C   UNL     1       7.653   2.170  22.380  0.00  0.00    +0.156 C 
ATOM     16  C   UNL     1       6.339   1.925  23.059  0.00  0.00    +0.079 C 
ATOM     17  O   UNL     1       8.000   3.290  22.004  0.00  0.00    -0.293 OA
ATOM     18  C   UNL     1       6.427   0.703  23.964  0.00  0.00    +0.016 C 
ATOM     19  C   UNL     1       7.313  -4.410  23.789  0.00  0.00    +0.001 C 
ATOM     20  C   UNL     1       8.983  -1.419  21.899  0.00  0.00    +0.034 C 
ENDROOT
BRANCH   8  21
ATOM     21  O   UNL     1       4.950  -3.657  22.106  0.00  0.00    -0.391 OA
ATOM     22  H   UNL     1       4.053  -3.305  22.245  0.00  0.00    +0.210 HD
ENDBRANCH   8  21
TORSDOF 1
ENDMDL
MODEL 5
REMARK VINA RESULT:      -6.9      2.415      3.344
REMARK  Name = 
REMARK  3 active torsions:
REMARK  status: ('A' for Active; 'I' for Inactive)
REMARK    1  A    between atoms: C_1  and  C_2
REMARK    2  A    between atoms: C_15  and  C_16
REMARK    3  A    between atoms: C_17  and  O_18
REMARK                            x       y       z     vdW  Elec       q    Type
REMARK                         _______ _______ _______ _____ _____    ______ ____
ROOT
ATOM      1  C   UNL     1       7.997  -1.116  26.492  0.00  0.00    +0.008 C 
ATOM      2  C   UNL     1       7.134  -0.171  25.652  0.00  0.00    -0.006 C 
ATOM      3  C   UNL     1       7.783   0.391  24.355  0.00  0.00    -0.000 C 
ATOM      4  C   UNL     1       8.183  -0.776  23.411  0.00  0.00    -0.000 C 
ATOM      5  C   UNL     1       8.936  -0.322  22.152  0.00  0.00    +0.005 C 
ATOM      6  C   UNL     1       9.983   0.729  22.407  0.00  0.00    +0.010 C 
ATOM      7  C   UNL     1       9.517   1.944  23.212  0.00  0.00    -0.003 C 
ATOM      8  C   UNL     1       8.426   2.864  22.591  0.00  0.00    +0.121 C 
ATOM      9  C   UNL     1       8.009   3.727  23.790  0.00  0.00    +0.032 C 
ATOM     10  C   UNL     1       8.204   2.834  25.032  0.00  0.00    +0.007 C 
ATOM     11  C   UNL     1      10.794   2.799  23.441  0.00  0.00    +0.014 C 
ATOM     12  C   UNL     1       6.893  -1.529  22.968  0.00  0.00    +0.019 C 
ATOM     13  C   UNL     1       5.936  -1.841  24.109  0.00  0.00    -0.063 C 
ATOM     14  C   UNL     1       5.103  -2.900  24.070  0.00  0.00    +0.045 C 
ATOM     15  C   UNL     1       5.070  -3.810  22.878  0.00  0.00    +0.156 C 
ATOM     16  C   UNL     1       5.936  -3.489  21.698  0.00  0.00    +0.079 C 
ATOM     17  O   UNL     1       4.267  -4.744  22.870  0.00  0.00    -0.293 OA
ATOM     18  C   UNL     1       7.214  -2.794  22.149  0.00  0.00    +0.016 C 
ATOM     19  C   UNL     1       8.856   1.507  24.550  0.00  0.00    +0.001 C 
ATOM     20  C   UNL     1       5.811  -0.851  25.241  0.00  0.00    +0.034 C 
ENDROOT
BRANCH   8  21
ATOM     21  O   UNL     1       7.294   2.169  22.078  0.00  0.00    -0.391 OA
ATOM     22  H   UNL     1       7.162   1.349  22.587  0.00  0.00    +0.210 HD
ENDBRANCH   8  21
TORSDOF 1
ENDMDL
MODEL 6
REMARK VINA RESULT:      -6.8      1.864      5.968
REMARK  Name = 
REMARK  3 active torsions:
REMARK  status: ('A' for Active; 'I' for Inactive)
REMARK    1  A    between atoms: C_1  and  C_2
REMARK    2  A    between atoms: C_15  and  C_16
REMARK    3  A    between atoms: C_17  and  O_18
REMARK                            x       y       z     vdW  Elec       q    Type
REMARK                         _______ _______ _______ _____ _____    ______ ____
ROOT
ATOM      1  C   UNL     1       7.189  -5.941  22.242  0.00  0.00    +0.008 C 
ATOM      2  C   UNL     1       6.242  -4.876  22.804  0.00  0.00    -0.006 C 
ATOM      3  C   UNL     1       6.241  -4.698  24.349  0.00  0.00    -0.000 C 
ATOM      4  C   UNL     1       7.662  -4.309  24.842  0.00  0.00    -0.000 C 
ATOM      5  C   UNL     1       7.785  -4.223  26.370  0.00  0.00    +0.005 C 
ATOM      6  C   UNL     1       7.096  -5.340  27.107  0.00  0.00    +0.010 C 
ATOM      7  C   UNL     1       5.643  -5.599  26.705  0.00  0.00    -0.003 C 
ATOM      8  C   UNL     1       4.594  -4.480  26.972  0.00  0.00    +0.121 C 
ATOM      9  C   UNL     1       3.386  -4.966  26.160  0.00  0.00    +0.032 C 
ATOM     10  C   UNL     1       3.976  -5.742  24.964  0.00  0.00    +0.007 C 
ATOM     11  C   UNL     1       5.214  -6.860  27.506  0.00  0.00    +0.014 C 
ATOM     12  C   UNL     1       8.044  -2.926  24.238  0.00  0.00    +0.019 C 
ATOM     13  C   UNL     1       7.754  -2.798  22.750  0.00  0.00    -0.063 C 
ATOM     14  C   UNL     1       8.468  -1.977  21.953  0.00  0.00    +0.045 C 
ATOM     15  C   UNL     1       9.572  -1.131  22.512  0.00  0.00    +0.156 C 
ATOM     16  C   UNL     1       9.834  -1.164  23.988  0.00  0.00    +0.079 C 
ATOM     17  O   UNL     1      10.174  -0.368  21.754  0.00  0.00    -0.293 OA
ATOM     18  C   UNL     1       9.501  -2.537  24.557  0.00  0.00    +0.016 C 
ATOM     19  C   UNL     1       5.516  -5.808  25.170  0.00  0.00    +0.001 C 
ATOM     20  C   UNL     1       6.539  -3.493  22.187  0.00  0.00    +0.034 C 
ENDROOT
BRANCH   8  21
ATOM     21  O   UNL     1       4.990  -3.187  26.526  0.00  0.00    -0.391 OA
ATOM     22  H   UNL     1       5.788  -2.910  27.010  0.00  0.00    +0.210 HD
ENDBRANCH   8  21
TORSDOF 1
ENDMDL
MODEL 7
REMARK VINA RESULT:      -6.7      2.564      4.031
REMARK  Name = 
REMARK  3 active torsions:
REMARK  status: ('A' for Active; 'I' for Inactive)
REMARK    1  A    between atoms: C_1  and  C_2
REMARK    2  A    between atoms: C_15  and  C_16
REMARK    3  A    between atoms: C_17  and  O_18
REMARK                            x       y       z     vdW  Elec       q    Type
REMARK                         _______ _______ _______ _____ _____    ______ ____
ROOT
ATOM      1  C   UNL     1       8.832  -2.067  21.511  0.00  0.00    +0.008 C 
ATOM      2  C   UNL     1       9.547  -1.336  22.651  0.00  0.00    -0.006 C 
ATOM      3  C   UNL     1       8.762  -0.178  23.330  0.00  0.00    -0.000 C 
ATOM      4  C   UNL     1       7.435  -0.715  23.933  0.00  0.00    -0.000 C 
ATOM      5  C   UNL     1       6.537   0.381  24.526  0.00  0.00    +0.005 C 
ATOM      6  C   UNL     1       6.441   1.623  23.680  0.00  0.00    +0.010 C 
ATOM      7  C   UNL     1       7.775   2.218  23.228  0.00  0.00    -0.003 C 
ATOM      8  C   UNL     1       8.744   2.767  24.316  0.00  0.00    +0.121 C 
ATOM      9  C   UNL     1      10.046   2.955  23.526  0.00  0.00    +0.032 C 
ATOM     10  C   UNL     1      10.027   1.870  22.430  0.00  0.00    +0.007 C 
ATOM     11  C   UNL     1       7.401   3.393  22.282  0.00  0.00    +0.014 C 
ATOM     12  C   UNL     1       7.771  -1.738  25.057  0.00  0.00    +0.019 C 
ATOM     13  C   UNL     1       8.833  -2.757  24.671  0.00  0.00    -0.063 C 
ATOM     14  C   UNL     1       8.872  -3.988  25.218  0.00  0.00    +0.045 C 
ATOM     15  C   UNL     1       7.874  -4.400  26.258  0.00  0.00    +0.156 C 
ATOM     16  C   UNL     1       6.863  -3.398  26.729  0.00  0.00    +0.079 C 
ATOM     17  O   UNL     1       7.969  -5.522  26.758  0.00  0.00    -0.293 OA
ATOM     18  C   UNL     1       6.509  -2.431  25.605  0.00  0.00    +0.016 C 
ATOM     19  C   UNL     1       8.652   1.150  22.516  0.00  0.00    +0.001 C 
ATOM     20  C   UNL     1       9.960  -2.320  23.766  0.00  0.00    +0.034 C 
ENDROOT
BRANCH   8  21
ATOM     21  O   UNL     1       8.963   1.879  25.407  0.00  0.00    -0.391 OA
ATOM     22  H   UNL     1       8.107   1.640  25.805  0.00  0.00    +0.210 HD
ENDBRANCH   8  21
TORSDOF 1
ENDMDL
MODEL 8
REMARK VINA RESULT:      -6.7      2.709      4.870
REMARK  Name = 
REMARK  3 active torsions:
REMARK  status: ('A' for Active; 'I' for Inactive)
REMARK    1  A    between atoms: C_1  and  C_2
REMARK    2  A    between atoms: C_15  and  C_16
REMARK    3  A    between atoms: C_17  and  O_18
REMARK                            x       y       z     vdW  Elec       q    Type
REMARK                         _______ _______ _______ _____ _____    ______ ____
ROOT
ATOM      1  C   UNL     1       9.281   0.169  21.294  0.00  0.00    +0.008 C 
ATOM      2  C   UNL     1       9.650   0.602  22.716  0.00  0.00    -0.006 C 
ATOM      3  C   UNL     1       8.479   1.084  23.618  0.00  0.00    -0.000 C 
ATOM      4  C   UNL     1       7.425  -0.046  23.775  0.00  0.00    -0.000 C 
ATOM      5  C   UNL     1       6.174   0.378  24.558  0.00  0.00    +0.005 C 
ATOM      6  C   UNL     1       5.653   1.742  24.193  0.00  0.00    +0.010 C 
ATOM      7  C   UNL     1       6.688   2.868  24.196  0.00  0.00    -0.003 C 
ATOM      8  C   UNL     1       7.361   3.246  25.548  0.00  0.00    +0.121 C 
ATOM      9  C   UNL     1       8.524   4.138  25.094  0.00  0.00    +0.032 C 
ATOM     10  C   UNL     1       8.931   3.613  23.701  0.00  0.00    +0.007 C 
ATOM     11  C   UNL     1       5.933   4.120  23.669  0.00  0.00    +0.014 C 
ATOM     12  C   UNL     1       8.084  -1.249  24.513  0.00  0.00    +0.019 C 
ATOM     13  C   UNL     1       9.454  -1.632  23.974  0.00  0.00    -0.063 C 
ATOM     14  C   UNL     1       9.927  -2.891  24.059  0.00  0.00    +0.045 C 
ATOM     15  C   UNL     1       9.122  -3.972  24.716  0.00  0.00    +0.156 C 
ATOM     16  C   UNL     1       7.804  -3.619  25.336  0.00  0.00    +0.079 C 
ATOM     17  O   UNL     1       9.609  -5.101  24.804  0.00  0.00    -0.293 OA
ATOM     18  C   UNL     1       7.149  -2.472  24.576  0.00  0.00    +0.016 C 
ATOM     19  C   UNL     1       7.912   2.505  23.310  0.00  0.00    +0.001 C 
ATOM     20  C   UNL     1      10.366  -0.539  23.471  0.00  0.00    +0.034 C 
ENDROOT
BRANCH   8  21
ATOM     21  O   UNL     1       7.862   2.134  26.284  0.00  0.00    -0.391 OA
ATOM     22  H   UNL     1       8.835   2.158  26.280  0.00  0.00    +0.210 HD
ENDBRANCH   8  21
TORSDOF 1
ENDMDL
MODEL 9
REMARK VINA RESULT:      -6.6      2.522      4.391
REMARK  Name = 
REMARK  3 active torsions:
REMARK  status: ('A' for Active; 'I' for Inactive)
REMARK    1  A    between atoms: C_1  and  C_2
REMARK    2  A    between atoms: C_15  and  C_16
REMARK    3  A    between atoms: C_17  and  O_18
REMARK                            x       y       z     vdW  Elec       q    Type
REMARK                         _______ _______ _______ _____ _____    ______ ____
ROOT
ATOM      1  C   UNL     1      11.036   0.695  24.639  0.00  0.00    +0.008 C 
ATOM      2  C   UNL     1       9.634   0.720  25.254  0.00  0.00    -0.006 C 
ATOM      3  C   UNL     1       8.487   1.238  24.340  0.00  0.00    -0.000 C 
ATOM      4  C   UNL     1       8.379   0.355  23.067  0.00  0.00    -0.000 C 
ATOM      5  C   UNL     1       7.347   0.860  22.049  0.00  0.00    +0.005 C 
ATOM      6  C   UNL     1       7.368   2.351  21.838  0.00  0.00    +0.010 C 
ATOM      7  C   UNL     1       7.318   3.199  23.110  0.00  0.00    -0.003 C 
ATOM      8  C   UNL     1       6.041   3.121  23.997  0.00  0.00    +0.121 C 
ATOM      9  C   UNL     1       6.498   3.817  25.286  0.00  0.00    +0.032 C 
ATOM     10  C   UNL     1       8.010   3.530  25.400  0.00  0.00    +0.007 C 
ATOM     11  C   UNL     1       7.481   4.668  22.631  0.00  0.00    +0.014 C 
ATOM     12  C   UNL     1       7.988  -1.092  23.489  0.00  0.00    +0.019 C 
ATOM     13  C   UNL     1       8.795  -1.636  24.658  0.00  0.00    -0.063 C 
ATOM     14  C   UNL     1       9.018  -2.956  24.816  0.00  0.00    +0.045 C 
ATOM     15  C   UNL     1       8.455  -3.953  23.849  0.00  0.00    +0.156 C 
ATOM     16  C   UNL     1       7.584  -3.466  22.731  0.00  0.00    +0.079 C 
ATOM     17  O   UNL     1       8.654  -5.152  24.053  0.00  0.00    -0.293 OA
ATOM     18  C   UNL     1       8.008  -2.068  22.297  0.00  0.00    +0.016 C 
ATOM     19  C   UNL     1       8.436   2.780  24.106  0.00  0.00    +0.001 C 
ATOM     20  C   UNL     1       9.223  -0.684  25.748  0.00  0.00    +0.034 C 
ENDROOT
BRANCH   8  21
ATOM     21  O   UNL     1       5.611   1.795  24.289  0.00  0.00    -0.391 OA
ATOM     22  H   UNL     1       4.948   1.519  23.631  0.00  0.00    +0.210 HD
ENDBRANCH   8  21
TORSDOF 1
ENDMDL
