MODEL 1
REMARK VINA RESULT:      -3.7      0.000      0.000
REMARK  Name = 
REMARK  5 active torsions:
REMARK  status: ('A' for Active; 'I' for Inactive)
REMARK    1  A    between atoms: C_1  and  C_2
REMARK    2  A    between atoms: C_2  and  C_4
REMARK    3  A    between atoms: C_4  and  C_5
REMARK    4  A    between atoms: C_5  and  C_6
REMARK    5  A    between atoms: C_6  and  O_7
REMARK                            x       y       z     vdW  Elec       q    Type
REMARK                         _______ _______ _______ _____ _____    ______ ____
ROOT
ATOM      1  C   UNL     1       9.471  -0.117  21.388  0.00  0.00    +0.128 C 
ENDROOT
BRANCH   1   2
ATOM      2  C   UNL     1       9.052   1.319  21.550  0.00  0.00    +0.305 C 
ATOM      3  O   UNL     1       7.898   1.710  21.631  0.00  0.00    -0.251 OA
BRANCH   2   4
ATOM      4  O   UNL     1      10.109   2.162  21.599  0.00  0.00    -0.481 OA
ATOM      5  H   UNL     1       9.866   3.103  21.504  0.00  0.00    +0.295 HD
ENDBRANCH   2   4
ENDBRANCH   1   2
BRANCH   1   6
ATOM      6  C   UNL     1      10.131  -0.651  22.655  0.00  0.00    +0.085 C 
BRANCH   6   8
ATOM      7  C   UNL     1       8.257  -2.395  22.454  0.00  0.00    +0.086 C 
ATOM      8  C   UNL     1       9.605  -2.025  23.013  0.00  0.00    +0.131 C 
ATOM      9  O   UNL     1      10.240  -2.806  23.722  0.00  0.00    -0.298 OA
ENDBRANCH   6   8
ENDBRANCH   1   6
TORSDOF 4
ENDMDL
MODEL 2
REMARK VINA RESULT:      -3.7      1.665      4.174
REMARK  Name = 
REMARK  5 active torsions:
REMARK  status: ('A' for Active; 'I' for Inactive)
REMARK    1  A    between atoms: C_1  and  C_2
REMARK    2  A    between atoms: C_2  and  C_4
REMARK    3  A    between atoms: C_4  and  C_5
REMARK    4  A    between atoms: C_5  and  C_6
REMARK    5  A    between atoms: C_6  and  O_7
REMARK                            x       y       z     vdW  Elec       q    Type
REMARK                         _______ _______ _______ _____ _____    ______ ____
ROOT
ATOM      1  C   UNL     1       9.599  -0.648  23.917  0.00  0.00    +0.128 C 
ENDROOT
BRANCH   1   2
ATOM      2  C   UNL     1      10.103  -1.885  23.224  0.00  0.00    +0.305 C 
ATOM      3  O   UNL     1      10.250  -2.976  23.752  0.00  0.00    -0.251 OA
BRANCH   2   4
ATOM      4  O   UNL     1      10.385  -1.665  21.920  0.00  0.00    -0.481 OA
ATOM      5  H   UNL     1      10.807  -2.426  21.476  0.00  0.00    +0.295 HD
ENDBRANCH   2   4
ENDBRANCH   1   2
BRANCH   1   6
ATOM      6  C   UNL     1      10.647   0.460  23.913  0.00  0.00    +0.085 C 
BRANCH   6   8
ATOM      7  C   UNL     1      10.147   2.961  23.610  0.00  0.00    +0.086 C 
ATOM      8  C   UNL     1      10.247   1.592  22.991  0.00  0.00    +0.131 C 
ATOM      9  O   UNL     1      10.014   1.413  21.795  0.00  0.00    -0.298 OA
ENDBRANCH   6   8
ENDBRANCH   1   6
TORSDOF 4
ENDMDL
MODEL 3
REMARK VINA RESULT:      -3.6      6.858      7.514
REMARK  Name = 
REMARK  5 active torsions:
REMARK  status: ('A' for Active; 'I' for Inactive)
REMARK    1  A    between atoms: C_1  and  C_2
REMARK    2  A    between atoms: C_2  and  C_4
REMARK    3  A    between atoms: C_4  and  C_5
REMARK    4  A    between atoms: C_5  and  C_6
REMARK    5  A    between atoms: C_6  and  O_7
REMARK                            x       y       z     vdW  Elec       q    Type
REMARK                         _______ _______ _______ _____ _____    ______ ____
ROOT
ATOM      1  C   UNL     1      12.042   5.104  23.459  0.00  0.00    +0.128 C 
ENDROOT
BRANCH   1   2
ATOM      2  C   UNL     1      13.265   5.293  22.602  0.00  0.00    +0.305 C 
ATOM      3  O   UNL     1      13.256   5.641  21.432  0.00  0.00    -0.251 OA
BRANCH   2   4
ATOM      4  O   UNL     1      14.410   5.033  23.274  0.00  0.00    -0.481 OA
ATOM      5  H   UNL     1      14.871   4.229  22.967  0.00  0.00    +0.295 HD
ENDBRANCH   2   4
ENDBRANCH   1   2
BRANCH   1   6
ATOM      6  C   UNL     1      11.856   6.266  24.427  0.00  0.00    +0.085 C 
BRANCH   6   8
ATOM      7  C   UNL     1       9.432   6.493  23.607  0.00  0.00    +0.086 C 
ATOM      8  C   UNL     1      10.394   6.472  24.765  0.00  0.00    +0.131 C 
ATOM      9  O   UNL     1      10.003   6.614  25.924  0.00  0.00    -0.298 OA
ENDBRANCH   6   8
ENDBRANCH   1   6
TORSDOF 4
ENDMDL
MODEL 4
REMARK VINA RESULT:      -3.6      1.859      2.392
REMARK  Name = 
REMARK  5 active torsions:
REMARK  status: ('A' for Active; 'I' for Inactive)
REMARK    1  A    between atoms: C_1  and  C_2
REMARK    2  A    between atoms: C_2  and  C_4
REMARK    3  A    between atoms: C_4  and  C_5
REMARK    4  A    between atoms: C_5  and  C_6
REMARK    5  A    between atoms: C_6  and  O_7
REMARK                            x       y       z     vdW  Elec       q    Type
REMARK                         _______ _______ _______ _____ _____    ______ ____
ROOT
ATOM      1  C   UNL     1       9.746   1.417  23.803  0.00  0.00    +0.128 C 
ENDROOT
BRANCH   1   2
ATOM      2  C   UNL     1      10.417   2.464  22.956  0.00  0.00    +0.305 C 
ATOM      3  O   UNL     1      11.097   3.384  23.384  0.00  0.00    -0.251 OA
BRANCH   2   4
ATOM      4  O   UNL     1      10.187   2.283  21.636  0.00  0.00    -0.481 OA
ATOM      5  H   UNL     1      10.439   3.050  21.085  0.00  0.00    +0.295 HD
ENDBRANCH   2   4
ENDBRANCH   1   2
BRANCH   1   6
ATOM      6  C   UNL     1      10.625   0.181  23.960  0.00  0.00    +0.085 C 
BRANCH   6   8
ATOM      7  C   UNL     1       9.929  -2.276  23.684  0.00  0.00    +0.086 C 
ATOM      8  C   UNL     1      10.173  -0.936  23.043  0.00  0.00    +0.131 C 
ATOM      9  O   UNL     1      10.010  -0.766  21.834  0.00  0.00    -0.298 OA
ENDBRANCH   6   8
ENDBRANCH   1   6
TORSDOF 4
ENDMDL
MODEL 5
REMARK VINA RESULT:      -3.6      0.940      1.411
REMARK  Name = 
REMARK  5 active torsions:
REMARK  status: ('A' for Active; 'I' for Inactive)
REMARK    1  A    between atoms: C_1  and  C_2
REMARK    2  A    between atoms: C_2  and  C_4
REMARK    3  A    between atoms: C_4  and  C_5
REMARK    4  A    between atoms: C_5  and  C_6
REMARK    5  A    between atoms: C_6  and  O_7
REMARK                            x       y       z     vdW  Elec       q    Type
REMARK                         _______ _______ _______ _____ _____    ______ ____
ROOT
ATOM      1  C   UNL     1       9.456  -0.069  21.460  0.00  0.00    +0.128 C 
ENDROOT
BRANCH   1   2
ATOM      2  C   UNL     1       9.062   1.384  21.487  0.00  0.00    +0.305 C 
ATOM      3  O   UNL     1       7.917   1.802  21.422  0.00  0.00    -0.251 OA
BRANCH   2   4
ATOM      4  O   UNL     1      10.131   2.205  21.594  0.00  0.00    -0.481 OA
ATOM      5  H   UNL     1       9.953   3.120  21.302  0.00  0.00    +0.295 HD
ENDBRANCH   2   4
ENDBRANCH   1   2
BRANCH   1   6
ATOM      6  C   UNL     1       8.760  -0.855  22.565  0.00  0.00    +0.085 C 
BRANCH   6   8
ATOM      7  C   UNL     1      10.172  -0.275  24.630  0.00  0.00    +0.086 C 
ATOM      8  C   UNL     1       9.744  -1.309  23.622  0.00  0.00    +0.131 C 
ATOM      9  O   UNL     1      10.176  -2.460  23.665  0.00  0.00    -0.298 OA
ENDBRANCH   6   8
ENDBRANCH   1   6
TORSDOF 4
ENDMDL
MODEL 6
REMARK VINA RESULT:      -3.6      4.260      5.488
REMARK  Name = 
REMARK  5 active torsions:
REMARK  status: ('A' for Active; 'I' for Inactive)
REMARK    1  A    between atoms: C_1  and  C_2
REMARK    2  A    between atoms: C_2  and  C_4
REMARK    3  A    between atoms: C_4  and  C_5
REMARK    4  A    between atoms: C_5  and  C_6
REMARK    5  A    between atoms: C_6  and  O_7
REMARK                            x       y       z     vdW  Elec       q    Type
REMARK                         _______ _______ _______ _____ _____    ______ ____
ROOT
ATOM      1  C   UNL     1      11.883   4.140  23.174  0.00  0.00    +0.128 C 
ENDROOT
BRANCH   1   2
ATOM      2  C   UNL     1      12.762   5.296  23.571  0.00  0.00    +0.305 C 
ATOM      3  O   UNL     1      12.384   6.296  24.161  0.00  0.00    -0.251 OA
BRANCH   2   4
ATOM      4  O   UNL     1      14.050   5.115  23.200  0.00  0.00    -0.481 OA
ATOM      5  H   UNL     1      14.582   4.624  23.855  0.00  0.00    +0.295 HD
ENDBRANCH   2   4
ENDBRANCH   1   2
BRANCH   1   6
ATOM      6  C   UNL     1      10.473   4.296  23.731  0.00  0.00    +0.085 C 
BRANCH   6   8
ATOM      7  C   UNL     1       9.883   2.086  22.564  0.00  0.00    +0.086 C 
ATOM      8  C   UNL     1       9.749   2.967  23.778  0.00  0.00    +0.131 C 
ATOM      9  O   UNL     1       9.084   2.616  24.753  0.00  0.00    -0.298 OA
ENDBRANCH   6   8
ENDBRANCH   1   6
TORSDOF 4
ENDMDL
MODEL 7
REMARK VINA RESULT:      -3.5      4.706      6.616
REMARK  Name = 
REMARK  5 active torsions:
REMARK  status: ('A' for Active; 'I' for Inactive)
REMARK    1  A    between atoms: C_1  and  C_2
REMARK    2  A    between atoms: C_2  and  C_4
REMARK    3  A    between atoms: C_4  and  C_5
REMARK    4  A    between atoms: C_5  and  C_6
REMARK    5  A    between atoms: C_6  and  O_7
REMARK                            x       y       z     vdW  Elec       q    Type
REMARK                         _______ _______ _______ _____ _____    ______ ____
ROOT
ATOM      1  C   UNL     1       7.099  -4.259  25.768  0.00  0.00    +0.128 C 
ENDROOT
BRANCH   1   2
ATOM      2  C   UNL     1       7.008  -5.526  26.575  0.00  0.00    +0.305 C 
ATOM      3  O   UNL     1       6.072  -6.309  26.550  0.00  0.00    -0.251 OA
BRANCH   2   4
ATOM      4  O   UNL     1       8.097  -5.720  27.354  0.00  0.00    -0.481 OA
ATOM      5  H   UNL     1       8.333  -6.660  27.471  0.00  0.00    +0.295 HD
ENDBRANCH   2   4
ENDBRANCH   1   2
BRANCH   1   6
ATOM      6  C   UNL     1       7.832  -4.489  24.451  0.00  0.00    +0.085 C 
BRANCH   6   8
ATOM      7  C   UNL     1       9.676  -2.747  24.045  0.00  0.00    +0.086 C 
ATOM      8  C   UNL     1       9.294  -4.109  24.562  0.00  0.00    +0.131 C 
ATOM      9  O   UNL     1      10.133  -4.867  25.048  0.00  0.00    -0.298 OA
ENDBRANCH   6   8
ENDBRANCH   1   6
TORSDOF 4
ENDMDL
MODEL 8
REMARK VINA RESULT:      -3.5      2.703      4.047
REMARK  Name = 
REMARK  5 active torsions:
REMARK  status: ('A' for Active; 'I' for Inactive)
REMARK    1  A    between atoms: C_1  and  C_2
REMARK    2  A    between atoms: C_2  and  C_4
REMARK    3  A    between atoms: C_4  and  C_5
REMARK    4  A    between atoms: C_5  and  C_6
REMARK    5  A    between atoms: C_6  and  O_7
REMARK                            x       y       z     vdW  Elec       q    Type
REMARK                         _______ _______ _______ _____ _____    ______ ____
ROOT
ATOM      1  C   UNL     1       7.972  -2.254  22.357  0.00  0.00    +0.128 C 
ENDROOT
BRANCH   1   2
ATOM      2  C   UNL     1       9.451  -2.029  22.527  0.00  0.00    +0.305 C 
ATOM      3  O   UNL     1      10.084  -2.259  23.545  0.00  0.00    -0.251 OA
BRANCH   2   4
ATOM      4  O   UNL     1      10.028  -1.532  21.409  0.00  0.00    -0.481 OA
ATOM      5  H   UNL     1       9.598  -1.825  20.582  0.00  0.00    +0.295 HD
ENDBRANCH   2   4
ENDBRANCH   1   2
BRANCH   1   6
ATOM      6  C   UNL     1       7.571  -3.663  22.780  0.00  0.00    +0.085 C 
BRANCH   6   8
ATOM      7  C   UNL     1       6.729  -5.679  21.430  0.00  0.00    +0.086 C 
ATOM      8  C   UNL     1       6.534  -4.244  21.842  0.00  0.00    +0.131 C 
ATOM      9  O   UNL     1       5.577  -3.586  21.434  0.00  0.00    -0.298 OA
ENDBRANCH   6   8
ENDBRANCH   1   6
TORSDOF 4
ENDMDL
MODEL 9
REMARK VINA RESULT:      -3.4      2.165      3.382
REMARK  Name = 
REMARK  5 active torsions:
REMARK  status: ('A' for Active; 'I' for Inactive)
REMARK    1  A    between atoms: C_1  and  C_2
REMARK    2  A    between atoms: C_2  and  C_4
REMARK    3  A    between atoms: C_4  and  C_5
REMARK    4  A    between atoms: C_5  and  C_6
REMARK    5  A    between atoms: C_6  and  O_7
REMARK                            x       y       z     vdW  Elec       q    Type
REMARK                         _______ _______ _______ _____ _____    ______ ____
ROOT
ATOM      1  C   UNL     1       9.212   0.600  21.525  0.00  0.00    +0.128 C 
ENDROOT
BRANCH   1   2
ATOM      2  C   UNL     1       9.237  -0.878  21.807  0.00  0.00    +0.305 C 
ATOM      3  O   UNL     1       8.328  -1.510  22.323  0.00  0.00    -0.251 OA
BRANCH   2   4
ATOM      4  O   UNL     1      10.396  -1.457  21.421  0.00  0.00    -0.481 OA
ATOM      5  H   UNL     1      11.167  -1.187  21.958  0.00  0.00    +0.295 HD
ENDBRANCH   2   4
ENDBRANCH   1   2
BRANCH   1   6
ATOM      6  C   UNL     1      10.212   1.350  22.398  0.00  0.00    +0.085 C 
BRANCH   6   8
ATOM      7  C   UNL     1      10.641   0.606  24.818  0.00  0.00    +0.086 C 
ATOM      8  C   UNL     1       9.775   1.364  23.848  0.00  0.00    +0.131 C 
ATOM      9  O   UNL     1       8.767   1.962  24.222  0.00  0.00    -0.298 OA
ENDBRANCH   6   8
ENDBRANCH   1   6
TORSDOF 4
ENDMDL
