MODEL 1
REMARK VINA RESULT:      -7.3      0.000      0.000
REMARK  Name = 
REMARK  6 active torsions:
REMARK  status: ('A' for Active; 'I' for Inactive)
REMARK    1  A    between atoms: C_2  and  C_4
REMARK    2  A    between atoms: C_7  and  N_8
REMARK    3  A    between atoms: C_11  and  O_12
REMARK    4  A    between atoms: O_12  and  C_13
REMARK    5  A    between atoms: C_13  and  C_14
REMARK    6  A    between atoms: C_20  and  N_21
REMARK                            x       y       z     vdW  Elec       q    Type
REMARK                         _______ _______ _______ _____ _____    ______ ____
ROOT
ATOM      1  N   UNL     1       9.000  -1.864  22.497  0.00  0.00    -0.283 N 
ATOM      2  H   UNL     1       9.588  -2.401  21.876  0.00  0.00    +0.155 HD
ATOM      3  C   UNL     1       7.763  -2.496  22.634  0.00  0.00    +0.224 A 
ATOM      4  N   UNL     1       7.575  -3.575  21.867  0.00  0.00    -0.197 NA
ATOM      5  C   UNL     1       6.391  -4.218  21.947  0.00  0.00    +0.154 A 
ATOM      6  N   UNL     1       6.289  -5.338  21.110  0.00  0.00    -0.341 N 
ATOM      7  H   UNL     1       7.108  -5.373  20.510  0.00  0.00    +0.144 HD
ATOM      8  H   UNL     1       5.419  -5.357  20.585  0.00  0.00    +0.144 HD
ATOM      9  C   UNL     1       5.368  -3.844  22.821  0.00  0.00    +0.208 A 
ATOM     10  C   UNL     1       5.677  -2.729  23.588  0.00  0.00    +0.251 A 
ATOM     11  N   UNL     1       6.841  -2.047  23.498  0.00  0.00    -0.177 NA
ENDROOT
BRANCH   1  15
ATOM     12  C   UNL     1      10.343   2.104  23.184  0.00  0.00    +0.037 A 
ATOM     13  C   UNL     1       9.771   1.729  21.962  0.00  0.00    +0.015 A 
ATOM     14  C   UNL     1       9.324   0.415  21.755  0.00  0.00    +0.024 A 
ATOM     15  C   UNL     1       9.421  -0.554  22.765  0.00  0.00    +0.034 A 
ATOM     16  C   UNL     1      10.006  -0.167  23.973  0.00  0.00    +0.024 A 
ATOM     17  C   UNL     1      10.451   1.144  24.191  0.00  0.00    +0.015 A 
BRANCH  12  21
ATOM     18  N   UNL     1       9.864   4.508  23.406  0.00  0.00    -0.325 N 
ATOM     19  H   UNL     1       8.867   4.371  23.400  0.00  0.00    +0.145 HD
ATOM     20  H   UNL     1      10.211   5.447  23.545  0.00  0.00    +0.145 HD
ATOM     21  C   UNL     1      10.802   3.509  23.343  0.00  0.00    +0.242 C 
ATOM     22  O   UNL     1      11.993   3.792  23.429  0.00  0.00    -0.270 OA
ENDBRANCH  12  21
ENDBRANCH   1  15
BRANCH   9  23
ATOM     23  N   UNL     1       4.194  -4.572  22.907  0.00  0.00    -0.022 NA
ATOM     24  O   UNL     1       4.338  -5.690  23.418  0.00  0.00    -0.143 OA
ENDBRANCH   9  23
BRANCH  10  25
ATOM     25  O   UNL     1       4.726  -2.287  24.506  0.00  0.00    -0.474 OA
BRANCH  25  26
ATOM     26  C   UNL     1       5.238  -2.174  25.834  0.00  0.00    +0.234 C 
BRANCH  26  27
ATOM     27  C   UNL     1       5.522  -3.543  26.454  0.00  0.00    +0.027 C 
ATOM     28  C   UNL     1       7.011  -3.763  26.760  0.00  0.00    +0.007 C 
ATOM     29  C   UNL     1       7.238  -5.249  27.027  0.00  0.00    +0.000 C 
ATOM     30  C   UNL     1       6.375  -5.761  28.182  0.00  0.00    +0.000 C 
ATOM     31  C   UNL     1       4.908  -5.329  28.093  0.00  0.00    +0.000 C 
ATOM     32  C   UNL     1       4.736  -3.846  27.737  0.00  0.00    +0.007 C 
ENDBRANCH  26  27
ENDBRANCH  25  26
ENDBRANCH  10  25
TORSDOF 6
ENDMDL
MODEL 2
REMARK VINA RESULT:      -7.2      2.795      5.371
REMARK  Name = 
REMARK  6 active torsions:
REMARK  status: ('A' for Active; 'I' for Inactive)
REMARK    1  A    between atoms: C_2  and  C_4
REMARK    2  A    between atoms: C_7  and  N_8
REMARK    3  A    between atoms: C_11  and  O_12
REMARK    4  A    between atoms: O_12  and  C_13
REMARK    5  A    between atoms: C_13  and  C_14
REMARK    6  A    between atoms: C_20  and  N_21
REMARK                            x       y       z     vdW  Elec       q    Type
REMARK                         _______ _______ _______ _____ _____    ______ ____
ROOT
ATOM      1  N   UNL     1       5.623   0.770  24.373  0.00  0.00    -0.283 N 
ATOM      2  H   UNL     1       4.809   0.877  24.961  0.00  0.00    +0.155 HD
ATOM      3  C   UNL     1       6.132  -0.522  24.509  0.00  0.00    +0.224 A 
ATOM      4  N   UNL     1       5.533  -1.288  25.427  0.00  0.00    -0.197 NA
ATOM      5  C   UNL     1       5.994  -2.543  25.612  0.00  0.00    +0.154 A 
ATOM      6  N   UNL     1       5.301  -3.270  26.591  0.00  0.00    -0.341 N 
ATOM      7  H   UNL     1       4.649  -2.648  27.058  0.00  0.00    +0.144 HD
ATOM      8  H   UNL     1       5.923  -3.743  27.241  0.00  0.00    +0.144 HD
ATOM      9  C   UNL     1       7.032  -3.102  24.863  0.00  0.00    +0.208 A 
ATOM     10  C   UNL     1       7.564  -2.231  23.922  0.00  0.00    +0.251 A 
ATOM     11  N   UNL     1       7.145  -0.958  23.745  0.00  0.00    -0.177 NA
ENDROOT
BRANCH   1  15
ATOM     12  C   UNL     1       7.264   4.429  22.980  0.00  0.00    +0.037 A 
ATOM     13  C   UNL     1       7.306   4.080  24.335  0.00  0.00    +0.015 A 
ATOM     14  C   UNL     1       6.767   2.863  24.778  0.00  0.00    +0.024 A 
ATOM     15  C   UNL     1       6.187   1.955  23.879  0.00  0.00    +0.034 A 
ATOM     16  C   UNL     1       6.141   2.323  22.532  0.00  0.00    +0.024 A 
ATOM     17  C   UNL     1       6.681   3.535  22.081  0.00  0.00    +0.015 A 
BRANCH  12  21
ATOM     18  N   UNL     1       7.446   6.295  21.385  0.00  0.00    -0.325 N 
ATOM     19  H   UNL     1       6.744   5.919  20.772  0.00  0.00    +0.145 HD
ATOM     20  H   UNL     1       7.840   7.197  21.155  0.00  0.00    +0.145 HD
ATOM     21  C   UNL     1       7.847   5.734  22.571  0.00  0.00    +0.242 C 
ATOM     22  O   UNL     1       8.665   6.322  23.272  0.00  0.00    -0.270 OA
ENDBRANCH  12  21
ENDBRANCH   1  15
BRANCH   9  23
ATOM     23  N   UNL     1       7.428  -4.414  25.052  0.00  0.00    -0.022 NA
ATOM     24  O   UNL     1       6.606  -5.245  24.646  0.00  0.00    -0.143 OA
ENDBRANCH   9  23
BRANCH  10  25
ATOM     25  O   UNL     1       8.595  -2.702  23.111  0.00  0.00    -0.474 OA
BRANCH  25  26
ATOM     26  C   UNL     1       9.850  -2.074  23.377  0.00  0.00    +0.234 C 
BRANCH  26  27
ATOM     27  C   UNL     1       9.759  -0.551  23.268  0.00  0.00    +0.027 C 
ATOM     28  C   UNL     1      10.636   0.174  24.299  0.00  0.00    +0.007 C 
ATOM     29  C   UNL     1      10.212   1.640  24.354  0.00  0.00    +0.000 C 
ATOM     30  C   UNL     1      10.322   2.319  22.986  0.00  0.00    +0.000 C 
ATOM     31  C   UNL     1       9.712   1.502  21.842  0.00  0.00    +0.000 C 
ATOM     32  C   UNL     1      10.101   0.019  21.885  0.00  0.00    +0.007 C 
ENDBRANCH  26  27
ENDBRANCH  25  26
ENDBRANCH  10  25
TORSDOF 6
ENDMDL
MODEL 3
REMARK VINA RESULT:      -7.2      3.315      7.488
REMARK  Name = 
REMARK  6 active torsions:
REMARK  status: ('A' for Active; 'I' for Inactive)
REMARK    1  A    between atoms: C_2  and  C_4
REMARK    2  A    between atoms: C_7  and  N_8
REMARK    3  A    between atoms: C_11  and  O_12
REMARK    4  A    between atoms: O_12  and  C_13
REMARK    5  A    between atoms: C_13  and  C_14
REMARK    6  A    between atoms: C_20  and  N_21
REMARK                            x       y       z     vdW  Elec       q    Type
REMARK                         _______ _______ _______ _____ _____    ______ ____
ROOT
ATOM      1  N   UNL     1       5.824   0.215  24.255  0.00  0.00    -0.283 N 
ATOM      2  H   UNL     1       4.862   0.073  23.980  0.00  0.00    +0.155 HD
ATOM      3  C   UNL     1       6.205   1.525  23.958  0.00  0.00    +0.224 A 
ATOM      4  N   UNL     1       5.301   2.259  23.303  0.00  0.00    -0.197 NA
ATOM      5  C   UNL     1       5.622   3.529  22.977  0.00  0.00    +0.154 A 
ATOM      6  N   UNL     1       4.609   4.221  22.297  0.00  0.00    -0.341 N 
ATOM      7  H   UNL     1       3.861   3.570  22.078  0.00  0.00    +0.144 HD
ATOM      8  H   UNL     1       4.953   4.710  21.476  0.00  0.00    +0.144 HD
ATOM      9  C   UNL     1       6.831   4.134  23.329  0.00  0.00    +0.208 A 
ATOM     10  C   UNL     1       7.686   3.292  24.028  0.00  0.00    +0.251 A 
ATOM     11  N   UNL     1       7.401   2.005  24.332  0.00  0.00    -0.177 NA
ENDROOT
BRANCH   1  15
ATOM     12  C   UNL     1       8.178  -3.210  25.115  0.00  0.00    +0.037 A 
ATOM     13  C   UNL     1       7.972  -2.208  26.071  0.00  0.00    +0.015 A 
ATOM     14  C   UNL     1       7.184  -1.086  25.773  0.00  0.00    +0.024 A 
ATOM     15  C   UNL     1       6.567  -0.942  24.521  0.00  0.00    +0.034 A 
ATOM     16  C   UNL     1       6.793  -1.945  23.574  0.00  0.00    +0.024 A 
ATOM     17  C   UNL     1       7.576  -3.071  23.865  0.00  0.00    +0.015 A 
BRANCH  12  21
ATOM     18  N   UNL     1       8.672  -5.129  26.576  0.00  0.00    -0.325 N 
ATOM     19  H   UNL     1       7.845  -4.995  27.132  0.00  0.00    +0.145 HD
ATOM     20  H   UNL     1       9.255  -5.929  26.780  0.00  0.00    +0.145 HD
ATOM     21  C   UNL     1       9.027  -4.373  25.487  0.00  0.00    +0.242 C 
ATOM     22  O   UNL     1      10.026  -4.674  24.841  0.00  0.00    -0.270 OA
ENDBRANCH  12  21
ENDBRANCH   1  15
BRANCH   9  23
ATOM     23  N   UNL     1       7.088   5.458  23.022  0.00  0.00    -0.022 NA
ATOM     24  O   UNL     1       7.288   5.659  21.817  0.00  0.00    -0.143 OA
ENDBRANCH   9  23
BRANCH  10  25
ATOM     25  O   UNL     1       8.912   3.808  24.440  0.00  0.00    -0.474 OA
BRANCH  25  26
ATOM     26  C   UNL     1      10.014   3.319  23.675  0.00  0.00    +0.234 C 
BRANCH  26  27
ATOM     27  C   UNL     1       9.885   1.821  23.386  0.00  0.00    +0.027 C 
ATOM     28  C   UNL     1      10.034   1.486  21.895  0.00  0.00    +0.007 C 
ATOM     29  C   UNL     1       9.541   0.060  21.665  0.00  0.00    +0.000 C 
ATOM     30  C   UNL     1      10.306  -0.954  22.520  0.00  0.00    +0.000 C 
ATOM     31  C   UNL     1      10.450  -0.539  23.987  0.00  0.00    +0.000 C 
ATOM     32  C   UNL     1      10.863   0.929  24.162  0.00  0.00    +0.007 C 
ENDBRANCH  26  27
ENDBRANCH  25  26
ENDBRANCH  10  25
TORSDOF 6
ENDMDL
MODEL 4
REMARK VINA RESULT:      -7.0      2.769      3.687
REMARK  Name = 
REMARK  6 active torsions:
REMARK  status: ('A' for Active; 'I' for Inactive)
REMARK    1  A    between atoms: C_2  and  C_4
REMARK    2  A    between atoms: C_7  and  N_8
REMARK    3  A    between atoms: C_11  and  O_12
REMARK    4  A    between atoms: O_12  and  C_13
REMARK    5  A    between atoms: C_13  and  C_14
REMARK    6  A    between atoms: C_20  and  N_21
REMARK                            x       y       z     vdW  Elec       q    Type
REMARK                         _______ _______ _______ _____ _____    ______ ____
ROOT
ATOM      1  N   UNL     1       9.679  -1.488  24.365  0.00  0.00    -0.283 N 
ATOM      2  H   UNL     1      10.567  -1.829  24.025  0.00  0.00    +0.155 HD
ATOM      3  C   UNL     1       8.974  -2.534  24.962  0.00  0.00    +0.224 A 
ATOM      4  N   UNL     1       9.540  -3.742  24.872  0.00  0.00    -0.197 NA
ATOM      5  C   UNL     1       8.894  -4.794  25.418  0.00  0.00    +0.154 A 
ATOM      6  N   UNL     1       9.566  -6.016  25.278  0.00  0.00    -0.341 N 
ATOM      7  H   UNL     1      10.372  -5.877  24.674  0.00  0.00    +0.144 HD
ATOM      8  H   UNL     1       8.959  -6.763  24.954  0.00  0.00    +0.144 HD
ATOM      9  C   UNL     1       7.688  -4.682  26.114  0.00  0.00    +0.208 A 
ATOM     10  C   UNL     1       7.202  -3.382  26.170  0.00  0.00    +0.251 A 
ATOM     11  N   UNL     1       7.812  -2.320  25.598  0.00  0.00    -0.177 NA
ENDROOT
BRANCH   1  15
ATOM     12  C   UNL     1       8.420   2.340  23.033  0.00  0.00    +0.037 A 
ATOM     13  C   UNL     1       9.302   2.197  24.111  0.00  0.00    +0.015 A 
ATOM     14  C   UNL     1       9.715   0.924  24.533  0.00  0.00    +0.024 A 
ATOM     15  C   UNL     1       9.273  -0.237  23.881  0.00  0.00    +0.034 A 
ATOM     16  C   UNL     1       8.384  -0.077  22.816  0.00  0.00    +0.024 A 
ATOM     17  C   UNL     1       7.969   1.190  22.385  0.00  0.00    +0.015 A 
BRANCH  12  21
ATOM     18  N   UNL     1       8.779   4.776  23.049  0.00  0.00    -0.325 N 
ATOM     19  H   UNL     1       9.636   4.706  23.571  0.00  0.00    +0.145 HD
ATOM     20  H   UNL     1       8.491   5.692  22.734  0.00  0.00    +0.145 HD
ATOM     21  C   UNL     1       8.015   3.715  22.635  0.00  0.00    +0.242 C 
ATOM     22  O   UNL     1       7.024   3.918  21.940  0.00  0.00    -0.270 OA
ENDBRANCH  12  21
ENDBRANCH   1  15
BRANCH   9  23
ATOM     23  N   UNL     1       7.096  -5.783  26.707  0.00  0.00    -0.022 NA
ATOM     24  O   UNL     1       7.489  -5.999  27.860  0.00  0.00    -0.143 OA
ENDBRANCH   9  23
BRANCH  10  25
ATOM     25  O   UNL     1       6.011  -3.163  26.859  0.00  0.00    -0.474 OA
BRANCH  25  26
ATOM     26  C   UNL     1       4.977  -2.623  26.036  0.00  0.00    +0.234 C 
BRANCH  26  27
ATOM     27  C   UNL     1       4.244  -3.714  25.254  0.00  0.00    +0.027 C 
ATOM     28  C   UNL     1       2.717  -3.620  25.387  0.00  0.00    +0.007 C 
ATOM     29  C   UNL     1       2.103  -4.926  24.888  0.00  0.00    +0.000 C 
ATOM     30  C   UNL     1       2.496  -5.226  23.440  0.00  0.00    +0.000 C 
ATOM     31  C   UNL     1       3.992  -5.056  23.159  0.00  0.00    +0.000 C 
ATOM     32  C   UNL     1       4.576  -3.769  23.757  0.00  0.00    +0.007 C 
ENDBRANCH  26  27
ENDBRANCH  25  26
ENDBRANCH  10  25
TORSDOF 6
ENDMDL
MODEL 5
REMARK VINA RESULT:      -6.9      1.991      3.395
REMARK  Name = 
REMARK  6 active torsions:
REMARK  status: ('A' for Active; 'I' for Inactive)
REMARK    1  A    between atoms: C_2  and  C_4
REMARK    2  A    between atoms: C_7  and  N_8
REMARK    3  A    between atoms: C_11  and  O_12
REMARK    4  A    between atoms: O_12  and  C_13
REMARK    5  A    between atoms: C_13  and  C_14
REMARK    6  A    between atoms: C_20  and  N_21
REMARK                            x       y       z     vdW  Elec       q    Type
REMARK                         _______ _______ _______ _____ _____    ______ ____
ROOT
ATOM      1  N   UNL     1       9.648  -1.950  22.933  0.00  0.00    -0.283 N 
ATOM      2  H   UNL     1      10.145  -2.496  22.245  0.00  0.00    +0.155 HD
ATOM      3  C   UNL     1       8.560  -2.681  23.413  0.00  0.00    +0.224 A 
ATOM      4  N   UNL     1       8.342  -3.857  22.817  0.00  0.00    -0.197 NA
ATOM      5  C   UNL     1       7.293  -4.600  23.231  0.00  0.00    +0.154 A 
ATOM      6  N   UNL     1       7.148  -5.817  22.550  0.00  0.00    -0.341 N 
ATOM      7  H   UNL     1       7.813  -5.842  21.782  0.00  0.00    +0.144 HD
ATOM      8  H   UNL     1       6.194  -5.985  22.247  0.00  0.00    +0.144 HD
ATOM      9  C   UNL     1       6.451  -4.228  24.281  0.00  0.00    +0.208 A 
ATOM     10  C   UNL     1       6.782  -3.003  24.846  0.00  0.00    +0.251 A 
ATOM     11  N   UNL     1       7.803  -2.225  24.423  0.00  0.00    -0.177 NA
ENDROOT
BRANCH   1  15
ATOM     12  C   UNL     1      10.500   2.202  23.171  0.00  0.00    +0.037 A 
ATOM     13  C   UNL     1      10.739   1.345  24.253  0.00  0.00    +0.015 A 
ATOM     14  C   UNL     1      10.460  -0.026  24.155  0.00  0.00    +0.024 A 
ATOM     15  C   UNL     1       9.951  -0.582  22.971  0.00  0.00    +0.034 A 
ATOM     16  C   UNL     1       9.706   0.288  21.906  0.00  0.00    +0.024 A 
ATOM     17  C   UNL     1       9.985   1.659  21.994  0.00  0.00    +0.015 A 
BRANCH  12  21
ATOM     18  N   UNL     1       9.773   4.536  23.458  0.00  0.00    -0.325 N 
ATOM     19  H   UNL     1       8.798   4.291  23.492  0.00  0.00    +0.145 HD
ATOM     20  H   UNL     1      10.022   5.505  23.600  0.00  0.00    +0.145 HD
ATOM     21  C   UNL     1      10.811   3.646  23.337  0.00  0.00    +0.242 C 
ATOM     22  O   UNL     1      11.966   4.056  23.379  0.00  0.00    -0.270 OA
ENDBRANCH  12  21
ENDBRANCH   1  15
BRANCH   9  23
ATOM     23  N   UNL     1       5.425  -5.053  24.706  0.00  0.00    -0.022 NA
ATOM     24  O   UNL     1       5.804  -5.990  25.421  0.00  0.00    -0.143 OA
ENDBRANCH   9  23
BRANCH  10  25
ATOM     25  O   UNL     1       6.010  -2.552  25.915  0.00  0.00    -0.474 OA
BRANCH  25  26
ATOM     26  C   UNL     1       5.263  -1.374  25.610  0.00  0.00    +0.234 C 
BRANCH  26  27
ATOM     27  C   UNL     1       6.136  -0.118  25.654  0.00  0.00    +0.027 C 
ATOM     28  C   UNL     1       5.920   0.801  24.443  0.00  0.00    +0.007 C 
ATOM     29  C   UNL     1       7.062   1.812  24.390  0.00  0.00    +0.000 C 
ATOM     30  C   UNL     1       7.156   2.637  25.677  0.00  0.00    +0.000 C 
ATOM     31  C   UNL     1       7.084   1.795  26.954  0.00  0.00    +0.000 C 
ATOM     32  C   UNL     1       5.974   0.736  26.918  0.00  0.00    +0.007 C 
ENDBRANCH  26  27
ENDBRANCH  25  26
ENDBRANCH  10  25
TORSDOF 6
ENDMDL
MODEL 6
REMARK VINA RESULT:      -6.7      2.524      4.006
REMARK  Name = 
REMARK  6 active torsions:
REMARK  status: ('A' for Active; 'I' for Inactive)
REMARK    1  A    between atoms: C_2  and  C_4
REMARK    2  A    between atoms: C_7  and  N_8
REMARK    3  A    between atoms: C_11  and  O_12
REMARK    4  A    between atoms: O_12  and  C_13
REMARK    5  A    between atoms: C_13  and  C_14
REMARK    6  A    between atoms: C_20  and  N_21
REMARK                            x       y       z     vdW  Elec       q    Type
REMARK                         _______ _______ _______ _____ _____    ______ ____
ROOT
ATOM      1  N   UNL     1       8.442  -2.028  26.104  0.00  0.00    -0.283 N 
ATOM      2  H   UNL     1       9.306  -2.310  26.546  0.00  0.00    +0.155 HD
ATOM      3  C   UNL     1       7.474  -3.015  26.300  0.00  0.00    +0.224 A 
ATOM      4  N   UNL     1       7.895  -4.128  26.910  0.00  0.00    -0.197 NA
ATOM      5  C   UNL     1       7.004  -5.122  27.113  0.00  0.00    +0.154 A 
ATOM      6  N   UNL     1       7.536  -6.245  27.763  0.00  0.00    -0.341 N 
ATOM      7  H   UNL     1       8.541  -6.126  27.848  0.00  0.00    +0.144 HD
ATOM      8  H   UNL     1       7.282  -7.117  27.308  0.00  0.00    +0.144 HD
ATOM      9  C   UNL     1       5.655  -5.032  26.762  0.00  0.00    +0.208 A 
ATOM     10  C   UNL     1       5.320  -3.826  26.160  0.00  0.00    +0.251 A 
ATOM     11  N   UNL     1       6.203  -2.832  25.913  0.00  0.00    -0.177 NA
ENDROOT
BRANCH   1  15
ATOM     12  C   UNL     1       8.833   1.119  23.283  0.00  0.00    +0.037 A 
ATOM     13  C   UNL     1       8.912  -0.224  22.893  0.00  0.00    +0.015 A 
ATOM     14  C   UNL     1       8.772  -1.253  23.837  0.00  0.00    +0.024 A 
ATOM     15  C   UNL     1       8.533  -0.970  25.190  0.00  0.00    +0.034 A 
ATOM     16  C   UNL     1       8.470   0.375  25.565  0.00  0.00    +0.024 A 
ATOM     17  C   UNL     1       8.605   1.408  24.628  0.00  0.00    +0.015 A 
BRANCH  12  21
ATOM     18  N   UNL     1      10.222   2.325  21.648  0.00  0.00    -0.325 N 
ATOM     19  H   UNL     1      11.033   1.757  21.828  0.00  0.00    +0.145 HD
ATOM     20  H   UNL     1      10.287   3.024  20.920  0.00  0.00    +0.145 HD
ATOM     21  C   UNL     1       8.994   2.164  22.238  0.00  0.00    +0.242 C 
ATOM     22  O   UNL     1       8.057   2.874  21.886  0.00  0.00    -0.270 OA
ENDBRANCH  12  21
ENDBRANCH   1  15
BRANCH   9  23
ATOM     23  N   UNL     1       4.769  -6.057  27.045  0.00  0.00    -0.022 NA
ATOM     24  O   UNL     1       5.003  -7.101  26.424  0.00  0.00    -0.143 OA
ENDBRANCH   9  23
BRANCH  10  25
ATOM     25  O   UNL     1       3.991  -3.632  25.789  0.00  0.00    -0.474 OA
BRANCH  25  26
ATOM     26  C   UNL     1       3.684  -4.166  24.501  0.00  0.00    +0.234 C 
BRANCH  26  27
ATOM     27  C   UNL     1       4.949  -4.467  23.693  0.00  0.00    +0.027 C 
ATOM     28  C   UNL     1       4.923  -5.857  23.041  0.00  0.00    +0.007 C 
ATOM     29  C   UNL     1       6.336  -6.202  22.577  0.00  0.00    +0.000 C 
ATOM     30  C   UNL     1       6.886  -5.163  21.597  0.00  0.00    +0.000 C 
ATOM     31  C   UNL     1       6.682  -3.715  22.056  0.00  0.00    +0.000 C 
ATOM     32  C   UNL     1       5.271  -3.445  22.595  0.00  0.00    +0.007 C 
ENDBRANCH  26  27
ENDBRANCH  25  26
ENDBRANCH  10  25
TORSDOF 6
ENDMDL
MODEL 7
REMARK VINA RESULT:      -6.6      2.846      3.953
REMARK  Name = 
REMARK  6 active torsions:
REMARK  status: ('A' for Active; 'I' for Inactive)
REMARK    1  A    between atoms: C_2  and  C_4
REMARK    2  A    between atoms: C_7  and  N_8
REMARK    3  A    between atoms: C_11  and  O_12
REMARK    4  A    between atoms: O_12  and  C_13
REMARK    5  A    between atoms: C_13  and  C_14
REMARK    6  A    between atoms: C_20  and  N_21
REMARK                            x       y       z     vdW  Elec       q    Type
REMARK                         _______ _______ _______ _____ _____    ______ ____
ROOT
ATOM      1  N   UNL     1       9.771  -1.555  24.304  0.00  0.00    -0.283 N 
ATOM      2  H   UNL     1      10.645  -1.910  23.943  0.00  0.00    +0.155 HD
ATOM      3  C   UNL     1       9.061  -2.593  24.910  0.00  0.00    +0.224 A 
ATOM      4  N   UNL     1       9.604  -3.809  24.801  0.00  0.00    -0.197 NA
ATOM      5  C   UNL     1       8.952  -4.853  25.356  0.00  0.00    +0.154 A 
ATOM      6  N   UNL     1       9.600  -6.086  25.194  0.00  0.00    -0.341 N 
ATOM      7  H   UNL     1      10.394  -5.958  24.573  0.00  0.00    +0.144 HD
ATOM      8  H   UNL     1       8.973  -6.820  24.878  0.00  0.00    +0.144 HD
ATOM      9  C   UNL     1       7.764  -4.725  26.079  0.00  0.00    +0.208 A 
ATOM     10  C   UNL     1       7.302  -3.417  26.152  0.00  0.00    +0.251 A 
ATOM     11  N   UNL     1       7.917  -2.362  25.572  0.00  0.00    -0.177 NA
ENDROOT
BRANCH   1  15
ATOM     12  C   UNL     1       8.535   2.297  23.019  0.00  0.00    +0.037 A 
ATOM     13  C   UNL     1       9.328   2.129  24.161  0.00  0.00    +0.015 A 
ATOM     14  C   UNL     1       9.736   0.849  24.567  0.00  0.00    +0.024 A 
ATOM     15  C   UNL     1       9.377  -0.294  23.837  0.00  0.00    +0.034 A 
ATOM     16  C   UNL     1       8.574  -0.110  22.707  0.00  0.00    +0.024 A 
ATOM     17  C   UNL     1       8.167   1.165  22.292  0.00  0.00    +0.015 A 
BRANCH  12  21
ATOM     18  N   UNL     1       8.896   4.731  23.073  0.00  0.00    -0.325 N 
ATOM     19  H   UNL     1       9.751   4.653  23.596  0.00  0.00    +0.145 HD
ATOM     20  H   UNL     1       8.608   5.652  22.772  0.00  0.00    +0.145 HD
ATOM     21  C   UNL     1       8.131   3.677  22.642  0.00  0.00    +0.242 C 
ATOM     22  O   UNL     1       7.141   3.892  21.949  0.00  0.00    -0.270 OA
ENDBRANCH  12  21
ENDBRANCH   1  15
BRANCH   9  23
ATOM     23  N   UNL     1       7.165  -5.819  26.678  0.00  0.00    -0.022 NA
ATOM     24  O   UNL     1       7.559  -6.031  27.831  0.00  0.00    -0.143 OA
ENDBRANCH   9  23
BRANCH  10  25
ATOM     25  O   UNL     1       6.130  -3.182  26.869  0.00  0.00    -0.474 OA
BRANCH  25  26
ATOM     26  C   UNL     1       5.154  -2.453  26.125  0.00  0.00    +0.234 C 
BRANCH  26  27
ATOM     27  C   UNL     1       5.219  -0.952  26.417  0.00  0.00    +0.027 C 
ATOM     28  C   UNL     1       5.531  -0.114  25.169  0.00  0.00    +0.007 C 
ATOM     29  C   UNL     1       5.927   1.292  25.613  0.00  0.00    +0.000 C 
ATOM     30  C   UNL     1       4.828   1.960  26.444  0.00  0.00    +0.000 C 
ATOM     31  C   UNL     1       4.257   1.061  27.545  0.00  0.00    +0.000 C 
ATOM     32  C   UNL     1       3.958  -0.366  27.066  0.00  0.00    +0.007 C 
ENDBRANCH  26  27
ENDBRANCH  25  26
ENDBRANCH  10  25
TORSDOF 6
ENDMDL
MODEL 8
REMARK VINA RESULT:      -6.5      2.304      6.942
REMARK  Name = 
REMARK  6 active torsions:
REMARK  status: ('A' for Active; 'I' for Inactive)
REMARK    1  A    between atoms: C_2  and  C_4
REMARK    2  A    between atoms: C_7  and  N_8
REMARK    3  A    between atoms: C_11  and  O_12
REMARK    4  A    between atoms: O_12  and  C_13
REMARK    5  A    between atoms: C_13  and  C_14
REMARK    6  A    between atoms: C_20  and  N_21
REMARK                            x       y       z     vdW  Elec       q    Type
REMARK                         _______ _______ _______ _____ _____    ______ ____
ROOT
ATOM      1  N   UNL     1       6.375  -3.482  22.073  0.00  0.00    -0.283 N 
ATOM      2  H   UNL     1       6.597  -3.596  21.094  0.00  0.00    +0.155 HD
ATOM      3  C   UNL     1       7.176  -2.478  22.620  0.00  0.00    +0.224 A 
ATOM      4  N   UNL     1       8.106  -1.969  21.806  0.00  0.00    -0.197 NA
ATOM      5  C   UNL     1       8.919  -1.004  22.287  0.00  0.00    +0.154 A 
ATOM      6  N   UNL     1       9.858  -0.530  21.360  0.00  0.00    -0.341 N 
ATOM      7  H   UNL     1       9.811  -1.107  20.525  0.00  0.00    +0.144 HD
ATOM      8  H   UNL     1      10.796  -0.476  21.745  0.00  0.00    +0.144 HD
ATOM      9  C   UNL     1       8.810  -0.476  23.575  0.00  0.00    +0.208 A 
ATOM     10  C   UNL     1       7.797  -1.056  24.326  0.00  0.00    +0.251 A 
ATOM     11  N   UNL     1       6.996  -2.049  23.878  0.00  0.00    -0.177 NA
ENDROOT
BRANCH   1  15
ATOM     12  C   UNL     1       4.081  -6.515  23.958  0.00  0.00    +0.037 A 
ATOM     13  C   UNL     1       3.583  -5.215  23.801  0.00  0.00    +0.015 A 
ATOM     14  C   UNL     1       4.351  -4.227  23.168  0.00  0.00    +0.024 A 
ATOM     15  C   UNL     1       5.628  -4.512  22.660  0.00  0.00    +0.034 A 
ATOM     16  C   UNL     1       6.115  -5.809  22.836  0.00  0.00    +0.024 A 
ATOM     17  C   UNL     1       5.353  -6.804  23.464  0.00  0.00    +0.015 A 
BRANCH  12  21
ATOM     18  N   UNL     1       3.244  -7.582  26.012  0.00  0.00    -0.325 N 
ATOM     19  H   UNL     1       3.765  -6.968  26.615  0.00  0.00    +0.145 HD
ATOM     20  H   UNL     1       2.625  -8.255  26.444  0.00  0.00    +0.145 HD
ATOM     21  C   UNL     1       3.223  -7.518  24.642  0.00  0.00    +0.242 C 
ATOM     22  O   UNL     1       2.493  -8.278  24.013  0.00  0.00    -0.270 OA
ENDBRANCH  12  21
ENDBRANCH   1  15
BRANCH   9  23
ATOM     23  N   UNL     1       9.631   0.554  24.001  0.00  0.00    -0.022 NA
ATOM     24  O   UNL     1      10.785   0.193  24.264  0.00  0.00    -0.143 OA
ENDBRANCH   9  23
BRANCH  10  25
ATOM     25  O   UNL     1       7.596  -0.584  25.622  0.00  0.00    -0.474 OA
BRANCH  25  26
ATOM     26  C   UNL     1       8.019  -1.506  26.627  0.00  0.00    +0.234 C 
BRANCH  26  27
ATOM     27  C   UNL     1       7.399  -2.890  26.427  0.00  0.00    +0.027 C 
ATOM     28  C   UNL     1       8.400  -4.031  26.660  0.00  0.00    +0.007 C 
ATOM     29  C   UNL     1       7.806  -5.321  26.097  0.00  0.00    +0.000 C 
ATOM     30  C   UNL     1       6.456  -5.656  26.736  0.00  0.00    +0.000 C 
ATOM     31  C   UNL     1       5.494  -4.465  26.801  0.00  0.00    +0.000 C 
ATOM     32  C   UNL     1       6.163  -3.174  27.291  0.00  0.00    +0.007 C 
ENDBRANCH  26  27
ENDBRANCH  25  26
ENDBRANCH  10  25
TORSDOF 6
ENDMDL
MODEL 9
REMARK VINA RESULT:      -6.5      2.750      6.943
REMARK  Name = 
REMARK  6 active torsions:
REMARK  status: ('A' for Active; 'I' for Inactive)
REMARK    1  A    between atoms: C_2  and  C_4
REMARK    2  A    between atoms: C_7  and  N_8
REMARK    3  A    between atoms: C_11  and  O_12
REMARK    4  A    between atoms: O_12  and  C_13
REMARK    5  A    between atoms: C_13  and  C_14
REMARK    6  A    between atoms: C_20  and  N_21
REMARK                            x       y       z     vdW  Elec       q    Type
REMARK                         _______ _______ _______ _____ _____    ______ ____
ROOT
ATOM      1  N   UNL     1      10.054   0.247  22.571  0.00  0.00    -0.283 N 
ATOM      2  H   UNL     1      10.938   0.251  22.081  0.00  0.00    +0.155 HD
ATOM      3  C   UNL     1       9.805   1.517  23.095  0.00  0.00    +0.224 A 
ATOM      4  N   UNL     1      10.787   2.410  22.944  0.00  0.00    -0.197 NA
ATOM      5  C   UNL     1      10.606   3.651  23.445  0.00  0.00    +0.154 A 
ATOM      6  N   UNL     1      11.688   4.518  23.235  0.00  0.00    -0.341 N 
ATOM      7  H   UNL     1      12.458   3.988  22.838  0.00  0.00    +0.144 HD
ATOM      8  H   UNL     1      11.954   5.024  24.075  0.00  0.00    +0.144 HD
ATOM      9  C   UNL     1       9.429   4.066  24.072  0.00  0.00    +0.208 A 
ATOM     10  C   UNL     1       8.466   3.068  24.152  0.00  0.00    +0.251 A 
ATOM     11  N   UNL     1       8.639   1.809  23.691  0.00  0.00    -0.177 NA
ENDROOT
BRANCH   1  15
ATOM     12  C   UNL     1       8.305  -3.515  23.467  0.00  0.00    +0.037 A 
ATOM     13  C   UNL     1       7.817  -2.713  22.427  0.00  0.00    +0.015 A 
ATOM     14  C   UNL     1       8.413  -1.476  22.138  0.00  0.00    +0.024 A 
ATOM     15  C   UNL     1       9.519  -1.013  22.867  0.00  0.00    +0.034 A 
ATOM     16  C   UNL     1       9.985  -1.819  23.910  0.00  0.00    +0.024 A 
ATOM     17  C   UNL     1       9.399  -3.058  24.202  0.00  0.00    +0.015 A 
BRANCH  12  21
ATOM     18  N   UNL     1       6.896  -4.957  24.879  0.00  0.00    -0.325 N 
ATOM     19  H   UNL     1       6.731  -4.233  25.558  0.00  0.00    +0.145 HD
ATOM     20  H   UNL     1       6.425  -5.842  25.009  0.00  0.00    +0.145 HD
ATOM     21  C   UNL     1       7.629  -4.813  23.729  0.00  0.00    +0.242 C 
ATOM     22  O   UNL     1       7.704  -5.749  22.939  0.00  0.00    -0.270 OA
ENDBRANCH  12  21
ENDBRANCH   1  15
BRANCH   9  23
ATOM     23  N   UNL     1       9.271   5.366  24.516  0.00  0.00    -0.022 NA
ATOM     24  O   UNL     1       9.255   6.204  23.606  0.00  0.00    -0.143 OA
ENDBRANCH   9  23
BRANCH  10  25
ATOM     25  O   UNL     1       7.246   3.389  24.745  0.00  0.00    -0.474 OA
BRANCH  25  26
ATOM     26  C   UNL     1       7.040   2.732  25.996  0.00  0.00    +0.234 C 
BRANCH  26  27
ATOM     27  C   UNL     1       6.983   1.212  25.838  0.00  0.00    +0.027 C 
ATOM     28  C   UNL     1       7.327   0.463  27.134  0.00  0.00    +0.007 C 
ATOM     29  C   UNL     1       7.594  -1.001  26.794  0.00  0.00    +0.000 C 
ATOM     30  C   UNL     1       6.395  -1.655  26.102  0.00  0.00    +0.000 C 
ATOM     31  C   UNL     1       5.807  -0.815  24.964  0.00  0.00    +0.000 C 
ATOM     32  C   UNL     1       5.641   0.666  25.330  0.00  0.00    +0.007 C 
ENDBRANCH  26  27
ENDBRANCH  25  26
ENDBRANCH  10  25
TORSDOF 6
ENDMDL
