MODEL 1
REMARK VINA RESULT:      -7.7      0.000      0.000
REMARK  Name = 
REMARK  19 active torsions:
REMARK  status: ('A' for Active; 'I' for Inactive)
REMARK    1  A    between atoms: C_7  and  C_8
REMARK    2  A    between atoms: C_8  and  O_9
REMARK    3  A    between atoms: O_9  and  P_10
REMARK    4  A    between atoms: P_10  and  O_11
REMARK    5  A    between atoms: P_10  and  O_13
REMARK    6  A    between atoms: O_13  and  P_14
REMARK    7  A    between atoms: P_14  and  O_15
REMARK    8  A    between atoms: P_14  and  O_17
REMARK    9  A    between atoms: O_17  and  P_18
REMARK   10  A    between atoms: P_18  and  O_19
REMARK   11  A    between atoms: P_18  and  O_21
REMARK   12  A    between atoms: O_21  and  P_22
REMARK   13  A    between atoms: P_22  and  O_23
REMARK   14  A    between atoms: P_22  and  O_25
REMARK   15  A    between atoms: O_25  and  C_26
REMARK   16  A    between atoms: C_26  and  C_27
REMARK   17  A    between atoms: C_30  and  N_38
REMARK   18  A    between atoms: C_32  and  O_34
REMARK   19  A    between atoms: C_35  and  O_37
REMARK                            x       y       z     vdW  Elec       q    Type
REMARK                         _______ _______ _______ _____ _____    ______ ____
ROOT
ATOM      1  P   UNL     1       9.930   1.219  23.638  0.00  0.00    +0.492 P 
ATOM      2  O   UNL     1      10.445   2.541  23.172  0.00  0.00    -0.226 OA
ENDROOT
BRANCH   1   3
ATOM      3  O   UNL     1       9.949   1.076  25.221  0.00  0.00    -0.302 OA
ATOM      4  H   UNL     1       9.091   0.998  25.703  0.00  0.00    +0.222 HD
ENDBRANCH   1   3
BRANCH   1   5
ATOM      5  O   UNL     1      10.672  -0.043  22.987  0.00  0.00    -0.186 OA
BRANCH   5   6
ATOM      6  P   UNL     1       9.529  -1.284  22.611  0.00  0.00    +0.483 P 
ATOM      7  O   UNL     1      10.706  -2.266  22.554  0.00  0.00    -0.227 OA
BRANCH   6   8
ATOM      8  O   UNL     1       9.433  -0.756  21.069  0.00  0.00    -0.302 OA
ATOM      9  H   UNL     1       9.843   0.130  21.040  0.00  0.00    +0.222 HD
ENDBRANCH   6   8
BRANCH   6  10
ATOM     10  O   UNL     1       8.385  -2.527  22.234  0.00  0.00    -0.284 OA
BRANCH  10  11
ATOM     11  C   UNL     1       7.022  -2.244  22.568  0.00  0.00    +0.206 C 
BRANCH  11  12
ATOM     12  C   UNL     1       6.086  -3.432  22.335  0.00  0.00    +0.178 C 
ATOM     13  C   UNL     1       6.778  -4.626  21.696  0.00  0.00    +0.178 C 
ATOM     14  C   UNL     1       6.985  -5.629  22.829  0.00  0.00    +0.195 C 
ATOM     15  C   UNL     1       6.397  -4.949  24.067  0.00  0.00    +0.253 C 
ATOM     16  O   UNL     1       5.527  -3.910  23.576  0.00  0.00    -0.346 OA
BRANCH  15  17
ATOM     17  N   UNL     1       5.647  -5.843  24.944  0.00  0.00    -0.286 N 
ATOM     18  C   UNL     1       5.776  -5.970  26.308  0.00  0.00    +0.167 A 
ATOM     19  N   UNL     1       6.761  -5.515  27.110  0.00  0.00    -0.216 NA
ATOM     20  C   UNL     1       6.559  -5.942  28.392  0.00  0.00    +0.225 A 
ATOM     21  N   UNL     1       5.472  -6.514  28.922  0.00  0.00    -0.219 NA
ATOM     22  C   UNL     1       4.495  -6.910  28.086  0.00  0.00    +0.147 A 
ATOM     23  N   UNL     1       3.417  -7.564  28.668  0.00  0.00    -0.341 N 
ATOM     24  H   UNL     1       3.059  -8.311  28.086  0.00  0.00    +0.144 HD
ATOM     25  H   UNL     1       3.637  -7.804  29.628  0.00  0.00    +0.144 HD
ATOM     26  C   UNL     1       4.670  -6.715  26.702  0.00  0.00    +0.147 A 
ATOM     27  N   UNL     1       3.969  -7.156  25.604  0.00  0.00    -0.231 NA
ATOM     28  C   UNL     1       4.617  -6.668  24.568  0.00  0.00    +0.203 A 
ENDBRANCH  15  17
BRANCH  14  29
ATOM     29  O   UNL     1       8.368  -5.947  23.018  0.00  0.00    -0.385 OA
ATOM     30  H   UNL     1       8.415  -6.370  23.893  0.00  0.00    +0.210 HD
ENDBRANCH  14  29
BRANCH  13  31
ATOM     31  O   UNL     1       5.907  -5.202  20.706  0.00  0.00    -0.386 OA
ATOM     32  H   UNL     1       6.174  -6.126  20.552  0.00  0.00    +0.210 HD
ENDBRANCH  13  31
ENDBRANCH  11  12
ENDBRANCH  10  11
ENDBRANCH   6  10
ENDBRANCH   5   6
ENDBRANCH   1   5
BRANCH   1  33
ATOM     33  O   UNL     1       8.432   0.896  23.280  0.00  0.00    -0.186 OA
BRANCH  33  34
ATOM     34  P   UNL     1       7.347   2.123  22.722  0.00  0.00    +0.492 P 
ATOM     35  O   UNL     1       7.880   1.948  21.295  0.00  0.00    -0.226 OA
BRANCH  34  36
ATOM     36  O   UNL     1       6.082   1.081  22.769  0.00  0.00    -0.302 OA
ATOM     37  H   UNL     1       5.261   1.605  22.744  0.00  0.00    +0.222 HD
ENDBRANCH  34  36
BRANCH  34  38
ATOM     38  O   UNL     1       6.263   3.350  22.164  0.00  0.00    -0.186 OA
BRANCH  38  39
ATOM     39  P   UNL     1       4.939   3.851  22.858  0.00  0.00    +0.484 P 
ATOM     40  O   UNL     1       3.751   2.949  22.761  0.00  0.00    -0.227 OA
BRANCH  39  41
ATOM     41  O   UNL     1       4.640   5.316  22.300  0.00  0.00    -0.302 OA
ATOM     42  H   UNL     1       3.691   5.371  22.076  0.00  0.00    +0.222 HD
ENDBRANCH  39  41
BRANCH  39  43
ATOM     43  O   UNL     1       5.363   4.175  24.354  0.00  0.00    -0.280 OA
BRANCH  43  44
ATOM     44  C   UNL     1       4.656   3.441  25.323  0.00  0.00    +0.224 C 
BRANCH  44  55
ATOM     45  N   UNL     1       8.334  -2.998  26.763  0.00  0.00    -0.329 N 
ATOM     46  H   UNL     1       7.831  -3.694  27.280  0.00  0.00    +0.145 HD
ATOM     47  H   UNL     1       9.135  -2.657  27.312  0.00  0.00    +0.145 HD
ATOM     48  C   UNL     1       7.514  -1.971  26.539  0.00  0.00    +0.195 A 
ATOM     49  N   UNL     1       6.256  -2.283  26.143  0.00  0.00    -0.293 N 
ATOM     50  H   UNL     1       5.985  -3.239  25.969  0.00  0.00    +0.172 HD
ATOM     51  C   UNL     1       5.340  -1.327  25.852  0.00  0.00    +0.280 A 
ATOM     52  O   UNL     1       4.218  -1.597  25.418  0.00  0.00    -0.265 OA
ATOM     53  C   UNL     1       5.816   0.074  26.081  0.00  0.00    +0.168 A 
ATOM     54  N   UNL     1       4.985   1.099  25.722  0.00  0.00    -0.244 NA
ATOM     55  C   UNL     1       5.481   2.289  25.779  0.00  0.00    +0.063 C 
ATOM     56  C   UNL     1       6.892   2.647  26.246  0.00  0.00    +0.156 C 
ATOM     57  N   UNL     1       7.536   1.517  26.834  0.00  0.00    -0.322 N 
ATOM     58  H   UNL     1       8.550   1.523  26.891  0.00  0.00    +0.148 HD
ATOM     59  C   UNL     1       7.068   0.240  26.569  0.00  0.00    +0.154 A 
ATOM     60  N   UNL     1       7.939  -0.777  26.778  0.00  0.00    -0.199 NA
ENDBRANCH  44  55
ENDBRANCH  43  44
ENDBRANCH  39  43
ENDBRANCH  38  39
ENDBRANCH  34  38
ENDBRANCH  33  34
ENDBRANCH   1  33
TORSDOF 19
ENDMDL
MODEL 2
REMARK VINA RESULT:      -7.5      4.400      8.813
REMARK  Name = 
REMARK  19 active torsions:
REMARK  status: ('A' for Active; 'I' for Inactive)
REMARK    1  A    between atoms: C_7  and  C_8
REMARK    2  A    between atoms: C_8  and  O_9
REMARK    3  A    between atoms: O_9  and  P_10
REMARK    4  A    between atoms: P_10  and  O_11
REMARK    5  A    between atoms: P_10  and  O_13
REMARK    6  A    between atoms: O_13  and  P_14
REMARK    7  A    between atoms: P_14  and  O_15
REMARK    8  A    between atoms: P_14  and  O_17
REMARK    9  A    between atoms: O_17  and  P_18
REMARK   10  A    between atoms: P_18  and  O_19
REMARK   11  A    between atoms: P_18  and  O_21
REMARK   12  A    between atoms: O_21  and  P_22
REMARK   13  A    between atoms: P_22  and  O_23
REMARK   14  A    between atoms: P_22  and  O_25
REMARK   15  A    between atoms: O_25  and  C_26
REMARK   16  A    between atoms: C_26  and  C_27
REMARK   17  A    between atoms: C_30  and  N_38
REMARK   18  A    between atoms: C_32  and  O_34
REMARK   19  A    between atoms: C_35  and  O_37
REMARK                            x       y       z     vdW  Elec       q    Type
REMARK                         _______ _______ _______ _____ _____    ______ ____
ROOT
ATOM      1  P   UNL     1       3.957  -4.597  27.633  0.00  0.00    +0.492 P 
ATOM      2  O   UNL     1       3.100  -5.784  27.342  0.00  0.00    -0.226 OA
ENDROOT
BRANCH   1   3
ATOM      3  O   UNL     1       3.300  -3.612  28.694  0.00  0.00    -0.302 OA
ATOM      4  H   UNL     1       3.847  -3.296  29.453  0.00  0.00    +0.222 HD
ENDBRANCH   1   3
BRANCH   1   5
ATOM      5  O   UNL     1       4.388  -3.761  26.336  0.00  0.00    -0.186 OA
BRANCH   5   6
ATOM      6  P   UNL     1       4.061  -2.079  26.570  0.00  0.00    +0.483 P 
ATOM      7  O   UNL     1       4.623  -1.837  25.163  0.00  0.00    -0.227 OA
BRANCH   6   8
ATOM      8  O   UNL     1       5.388  -1.933  27.510  0.00  0.00    -0.302 OA
ATOM      9  H   UNL     1       5.117  -1.467  28.324  0.00  0.00    +0.222 HD
ENDBRANCH   6   8
BRANCH   6  10
ATOM     10  O   UNL     1       3.735  -0.396  26.803  0.00  0.00    -0.284 OA
BRANCH  10  11
ATOM     11  C   UNL     1       3.976   0.111  28.120  0.00  0.00    +0.206 C 
BRANCH  11  12
ATOM     12  C   UNL     1       4.414   1.577  28.131  0.00  0.00    +0.178 C 
ATOM     13  C   UNL     1       5.539   1.861  29.114  0.00  0.00    +0.178 C 
ATOM     14  C   UNL     1       6.800   1.990  28.261  0.00  0.00    +0.195 C 
ATOM     15  C   UNL     1       6.325   1.770  26.823  0.00  0.00    +0.253 C 
ATOM     16  O   UNL     1       4.900   1.987  26.836  0.00  0.00    -0.346 OA
BRANCH  15  17
ATOM     17  N   UNL     1       6.948   2.654  25.843  0.00  0.00    -0.286 N 
ATOM     18  C   UNL     1       6.825   2.595  24.474  0.00  0.00    +0.167 A 
ATOM     19  N   UNL     1       6.337   1.594  23.712  0.00  0.00    -0.216 NA
ATOM     20  C   UNL     1       6.487   1.895  22.388  0.00  0.00    +0.225 A 
ATOM     21  N   UNL     1       6.825   3.063  21.828  0.00  0.00    -0.219 NA
ATOM     22  C   UNL     1       7.263   4.046  22.635  0.00  0.00    +0.147 A 
ATOM     23  N   UNL     1       7.672   5.216  22.008  0.00  0.00    -0.341 N 
ATOM     24  H   UNL     1       8.473   5.637  22.462  0.00  0.00    +0.144 HD
ATOM     25  H   UNL     1       7.747   5.064  21.008  0.00  0.00    +0.144 HD
ATOM     26  C   UNL     1       7.357   3.796  24.017  0.00  0.00    +0.147 A 
ATOM     27  N   UNL     1       7.919   4.501  25.055  0.00  0.00    -0.231 NA
ATOM     28  C   UNL     1       7.712   3.759  26.122  0.00  0.00    +0.203 A 
ENDBRANCH  15  17
BRANCH  14  29
ATOM     29  O   UNL     1       7.798   1.033  28.632  0.00  0.00    -0.385 OA
ATOM     30  H   UNL     1       7.828   1.062  29.605  0.00  0.00    +0.210 HD
ENDBRANCH  14  29
BRANCH  13  31
ATOM     31  O   UNL     1       5.283   3.114  29.775  0.00  0.00    -0.386 OA
ATOM     32  H   UNL     1       4.338   3.157  30.009  0.00  0.00    +0.210 HD
ENDBRANCH  13  31
ENDBRANCH  11  12
ENDBRANCH  10  11
ENDBRANCH   6  10
ENDBRANCH   5   6
ENDBRANCH   1   5
BRANCH   1  33
ATOM     33  O   UNL     1       5.365  -4.901  28.269  0.00  0.00    -0.186 OA
BRANCH  33  34
ATOM     34  P   UNL     1       6.704  -5.417  27.305  0.00  0.00    +0.492 P 
ATOM     35  O   UNL     1       7.182  -6.320  28.448  0.00  0.00    -0.226 OA
BRANCH  34  36
ATOM     36  O   UNL     1       5.741  -6.415  26.431  0.00  0.00    -0.302 OA
ATOM     37  H   UNL     1       5.322  -5.888  25.726  0.00  0.00    +0.222 HD
ENDBRANCH  34  36
BRANCH  34  38
ATOM     38  O   UNL     1       8.045  -5.934  26.340  0.00  0.00    -0.186 OA
BRANCH  38  39
ATOM     39  P   UNL     1       8.820  -5.102  25.249  0.00  0.00    +0.484 P 
ATOM     40  O   UNL     1       8.424  -5.331  23.826  0.00  0.00    -0.227 OA
BRANCH  39  41
ATOM     41  O   UNL     1      10.379  -5.343  25.493  0.00  0.00    -0.302 OA
ATOM     42  H   UNL     1      10.845  -4.494  25.361  0.00  0.00    +0.222 HD
ENDBRANCH  39  41
BRANCH  39  43
ATOM     43  O   UNL     1       8.670  -3.589  25.709  0.00  0.00    -0.280 OA
BRANCH  43  44
ATOM     44  C   UNL     1       7.980  -2.776  24.791  0.00  0.00    +0.224 C 
BRANCH  44  55
ATOM     45  N   UNL     1      11.025   3.870  22.891  0.00  0.00    -0.329 N 
ATOM     46  H   UNL     1      11.679   3.861  22.132  0.00  0.00    +0.145 HD
ATOM     47  H   UNL     1      11.499   4.135  23.766  0.00  0.00    +0.145 HD
ATOM     48  C   UNL     1      10.539   2.638  23.038  0.00  0.00    +0.195 A 
ATOM     49  N   UNL     1      10.194   1.990  21.898  0.00  0.00    -0.293 N 
ATOM     50  H   UNL     1      10.246   2.448  21.001  0.00  0.00    +0.172 HD
ATOM     51  C   UNL     1       9.656   0.747  21.917  0.00  0.00    +0.280 A 
ATOM     52  O   UNL     1       9.267   0.178  20.893  0.00  0.00    -0.265 OA
ATOM     53  C   UNL     1       9.556   0.138  23.281  0.00  0.00    +0.168 A 
ATOM     54  N   UNL     1       8.938  -1.077  23.396  0.00  0.00    -0.244 NA
ATOM     55  C   UNL     1       8.722  -1.501  24.596  0.00  0.00    +0.063 C 
ATOM     56  C   UNL     1       9.129  -0.784  25.883  0.00  0.00    +0.156 C 
ATOM     57  N   UNL     1       9.989   0.320  25.602  0.00  0.00    -0.322 N 
ATOM     58  H   UNL     1      10.072   1.050  26.303  0.00  0.00    +0.148 HD
ATOM     59  C   UNL     1      10.025   0.860  24.327  0.00  0.00    +0.154 A 
ATOM     60  N   UNL     1      10.496   2.126  24.220  0.00  0.00    -0.199 NA
ENDBRANCH  44  55
ENDBRANCH  43  44
ENDBRANCH  39  43
ENDBRANCH  38  39
ENDBRANCH  34  38
ENDBRANCH  33  34
ENDBRANCH   1  33
TORSDOF 19
ENDMDL
MODEL 3
REMARK VINA RESULT:      -7.1      4.384      9.008
REMARK  Name = 
REMARK  19 active torsions:
REMARK  status: ('A' for Active; 'I' for Inactive)
REMARK    1  A    between atoms: C_7  and  C_8
REMARK    2  A    between atoms: C_8  and  O_9
REMARK    3  A    between atoms: O_9  and  P_10
REMARK    4  A    between atoms: P_10  and  O_11
REMARK    5  A    between atoms: P_10  and  O_13
REMARK    6  A    between atoms: O_13  and  P_14
REMARK    7  A    between atoms: P_14  and  O_15
REMARK    8  A    between atoms: P_14  and  O_17
REMARK    9  A    between atoms: O_17  and  P_18
REMARK   10  A    between atoms: P_18  and  O_19
REMARK   11  A    between atoms: P_18  and  O_21
REMARK   12  A    between atoms: O_21  and  P_22
REMARK   13  A    between atoms: P_22  and  O_23
REMARK   14  A    between atoms: P_22  and  O_25
REMARK   15  A    between atoms: O_25  and  C_26
REMARK   16  A    between atoms: C_26  and  C_27
REMARK   17  A    between atoms: C_30  and  N_38
REMARK   18  A    between atoms: C_32  and  O_34
REMARK   19  A    between atoms: C_35  and  O_37
REMARK                            x       y       z     vdW  Elec       q    Type
REMARK                         _______ _______ _______ _____ _____    ______ ____
ROOT
ATOM      1  P   UNL     1       7.255  -5.465  26.720  0.00  0.00    +0.492 P 
ATOM      2  O   UNL     1       8.540  -5.777  26.025  0.00  0.00    -0.226 OA
ENDROOT
BRANCH   1   3
ATOM      3  O   UNL     1       6.020  -6.258  26.109  0.00  0.00    -0.302 OA
ATOM      4  H   UNL     1       5.771  -7.128  26.503  0.00  0.00    +0.222 HD
ENDBRANCH   1   3
BRANCH   1   5
ATOM      5  O   UNL     1       6.901  -3.904  26.778  0.00  0.00    -0.186 OA
BRANCH   5   6
ATOM      6  P   UNL     1       8.180  -2.971  26.080  0.00  0.00    +0.483 P 
ATOM      7  O   UNL     1       7.298  -1.731  26.273  0.00  0.00    -0.227 OA
BRANCH   6   8
ATOM      8  O   UNL     1       7.758  -3.476  24.586  0.00  0.00    -0.302 OA
ATOM      9  H   UNL     1       8.420  -3.122  23.962  0.00  0.00    +0.222 HD
ENDBRANCH   6   8
BRANCH   6  10
ATOM     10  O   UNL     1       9.458  -2.038  25.382  0.00  0.00    -0.284 OA
BRANCH  10  11
ATOM     11  C   UNL     1       9.766  -2.325  24.014  0.00  0.00    +0.206 C 
BRANCH  11  12
ATOM     12  C   UNL     1       9.961  -1.069  23.164  0.00  0.00    +0.178 C 
ATOM     13  C   UNL     1       8.864  -0.866  22.129  0.00  0.00    +0.178 C 
ATOM     14  C   UNL     1       7.972   0.237  22.695  0.00  0.00    +0.195 C 
ATOM     15  C   UNL     1       8.610   0.610  24.035  0.00  0.00    +0.253 C 
ATOM     16  O   UNL     1       9.965   0.121  23.981  0.00  0.00    -0.346 OA
BRANCH  15  17
ATOM     17  N   UNL     1       8.616   2.041  24.319  0.00  0.00    -0.286 N 
ATOM     18  C   UNL     1       9.590   2.952  23.981  0.00  0.00    +0.167 A 
ATOM     19  N   UNL     1      10.851   2.723  23.557  0.00  0.00    -0.216 NA
ATOM     20  C   UNL     1      11.525   3.903  23.428  0.00  0.00    +0.225 A 
ATOM     21  N   UNL     1      11.043   5.151  23.455  0.00  0.00    -0.219 NA
ATOM     22  C   UNL     1       9.766   5.325  23.842  0.00  0.00    +0.147 A 
ATOM     23  N   UNL     1       9.325   6.640  23.927  0.00  0.00    -0.341 N 
ATOM     24  H   UNL     1       8.695   6.785  24.706  0.00  0.00    +0.144 HD
ATOM     25  H   UNL     1      10.114   7.273  23.860  0.00  0.00    +0.144 HD
ATOM     26  C   UNL     1       9.010   4.195  24.208  0.00  0.00    +0.147 A 
ATOM     27  N   UNL     1       7.778   4.052  24.803  0.00  0.00    -0.231 NA
ATOM     28  C   UNL     1       7.602   2.752  24.912  0.00  0.00    +0.203 A 
ENDBRANCH  15  17
BRANCH  14  29
ATOM     29  O   UNL     1       6.620  -0.202  22.866  0.00  0.00    -0.385 OA
ATOM     30  H   UNL     1       6.689  -1.071  23.300  0.00  0.00    +0.210 HD
ENDBRANCH  14  29
BRANCH  13  31
ATOM     31  O   UNL     1       9.456  -0.414  20.898  0.00  0.00    -0.386 OA
ATOM     32  H   UNL     1       9.535   0.557  20.925  0.00  0.00    +0.210 HD
ENDBRANCH  13  31
ENDBRANCH  11  12
ENDBRANCH  10  11
ENDBRANCH   6  10
ENDBRANCH   5   6
ENDBRANCH   1   5
BRANCH   1  33
ATOM     33  O   UNL     1       7.186  -5.840  28.246  0.00  0.00    -0.186 OA
BRANCH  33  34
ATOM     34  P   UNL     1       5.745  -6.476  28.961  0.00  0.00    +0.492 P 
ATOM     35  O   UNL     1       6.177  -5.927  30.326  0.00  0.00    -0.226 OA
BRANCH  34  36
ATOM     36  O   UNL     1       4.851  -5.250  28.342  0.00  0.00    -0.302 OA
ATOM     37  H   UNL     1       3.911  -5.498  28.413  0.00  0.00    +0.222 HD
ENDBRANCH  34  36
BRANCH  34  38
ATOM     38  O   UNL     1       4.304  -7.111  29.676  0.00  0.00    -0.186 OA
BRANCH  38  39
ATOM     39  P   UNL     1       2.838  -7.051  29.100  0.00  0.00    +0.484 P 
ATOM     40  O   UNL     1       2.069  -5.795  29.360  0.00  0.00    -0.227 OA
BRANCH  39  41
ATOM     41  O   UNL     1       2.073  -8.351  29.619  0.00  0.00    -0.302 OA
ATOM     42  H   UNL     1       2.372  -9.116  29.089  0.00  0.00    +0.222 HD
ENDBRANCH  39  41
BRANCH  39  43
ATOM     43  O   UNL     1       2.994  -7.385  27.556  0.00  0.00    -0.280 OA
BRANCH  43  44
ATOM     44  C   UNL     1       2.041  -6.758  26.733  0.00  0.00    +0.224 C 
BRANCH  44  55
ATOM     45  N   UNL     1       6.096  -3.077  21.531  0.00  0.00    -0.329 N 
ATOM     46  H   UNL     1       5.802  -2.144  21.314  0.00  0.00    +0.145 HD
ATOM     47  H   UNL     1       5.978  -3.687  20.711  0.00  0.00    +0.145 HD
ATOM     48  C   UNL     1       5.320  -3.541  22.511  0.00  0.00    +0.195 A 
ATOM     49  N   UNL     1       5.074  -2.688  23.535  0.00  0.00    -0.293 N 
ATOM     50  H   UNL     1       5.510  -1.779  23.575  0.00  0.00    +0.172 HD
ATOM     51  C   UNL     1       4.328  -3.053  24.606  0.00  0.00    +0.280 A 
ATOM     52  O   UNL     1       4.161  -2.314  25.579  0.00  0.00    -0.265 OA
ATOM     53  C   UNL     1       3.750  -4.431  24.515  0.00  0.00    +0.168 A 
ATOM     54  N   UNL     1       3.064  -4.911  25.596  0.00  0.00    -0.244 NA
ATOM     55  C   UNL     1       2.718  -6.153  25.553  0.00  0.00    +0.063 C 
ATOM     56  C   UNL     1       2.974  -7.112  24.391  0.00  0.00    +0.156 C 
ATOM     57  N   UNL     1       3.452  -6.408  23.245  0.00  0.00    -0.322 N 
ATOM     58  H   UNL     1       3.950  -6.936  22.536  0.00  0.00    +0.148 HD
ATOM     59  C   UNL     1       4.000  -5.144  23.391  0.00  0.00    +0.154 A 
ATOM     60  N   UNL     1       4.808  -4.718  22.390  0.00  0.00    -0.199 NA
ENDBRANCH  44  55
ENDBRANCH  43  44
ENDBRANCH  39  43
ENDBRANCH  38  39
ENDBRANCH  34  38
ENDBRANCH  33  34
ENDBRANCH   1  33
TORSDOF 19
ENDMDL
MODEL 4
REMARK VINA RESULT:      -7.0      3.757      6.913
REMARK  Name = 
REMARK  19 active torsions:
REMARK  status: ('A' for Active; 'I' for Inactive)
REMARK    1  A    between atoms: C_7  and  C_8
REMARK    2  A    between atoms: C_8  and  O_9
REMARK    3  A    between atoms: O_9  and  P_10
REMARK    4  A    between atoms: P_10  and  O_11
REMARK    5  A    between atoms: P_10  and  O_13
REMARK    6  A    between atoms: O_13  and  P_14
REMARK    7  A    between atoms: P_14  and  O_15
REMARK    8  A    between atoms: P_14  and  O_17
REMARK    9  A    between atoms: O_17  and  P_18
REMARK   10  A    between atoms: P_18  and  O_19
REMARK   11  A    between atoms: P_18  and  O_21
REMARK   12  A    between atoms: O_21  and  P_22
REMARK   13  A    between atoms: P_22  and  O_23
REMARK   14  A    between atoms: P_22  and  O_25
REMARK   15  A    between atoms: O_25  and  C_26
REMARK   16  A    between atoms: C_26  and  C_27
REMARK   17  A    between atoms: C_30  and  N_38
REMARK   18  A    between atoms: C_32  and  O_34
REMARK   19  A    between atoms: C_35  and  O_37
REMARK                            x       y       z     vdW  Elec       q    Type
REMARK                         _______ _______ _______ _____ _____    ______ ____
ROOT
ATOM      1  P   UNL     1       5.223  -6.349  27.279  0.00  0.00    +0.492 P 
ATOM      2  O   UNL     1       6.500  -6.063  26.559  0.00  0.00    -0.226 OA
ENDROOT
BRANCH   1   3
ATOM      3  O   UNL     1       5.365  -7.532  28.333  0.00  0.00    -0.302 OA
ATOM      4  H   UNL     1       4.995  -8.418  28.107  0.00  0.00    +0.222 HD
ENDBRANCH   1   3
BRANCH   1   5
ATOM      5  O   UNL     1       3.979  -6.649  26.317  0.00  0.00    -0.186 OA
BRANCH   5   6
ATOM      6  P   UNL     1       4.450  -6.497  24.660  0.00  0.00    +0.483 P 
ATOM      7  O   UNL     1       3.378  -5.409  24.518  0.00  0.00    -0.227 OA
BRANCH   6   8
ATOM      8  O   UNL     1       3.628  -7.856  24.281  0.00  0.00    -0.302 OA
ATOM      9  H   UNL     1       4.016  -8.585  24.801  0.00  0.00    +0.222 HD
ENDBRANCH   6   8
BRANCH   6  10
ATOM     10  O   UNL     1       4.921  -6.345  23.002  0.00  0.00    -0.284 OA
BRANCH  10  11
ATOM     11  C   UNL     1       6.329  -6.255  22.758  0.00  0.00    +0.206 C 
BRANCH  11  12
ATOM     12  C   UNL     1       6.742  -4.938  22.097  0.00  0.00    +0.178 C 
ATOM     13  C   UNL     1       5.626  -3.906  22.063  0.00  0.00    +0.178 C 
ATOM     14  C   UNL     1       5.965  -2.904  23.164  0.00  0.00    +0.195 C 
ATOM     15  C   UNL     1       7.269  -3.421  23.777  0.00  0.00    +0.253 C 
ATOM     16  O   UNL     1       7.838  -4.319  22.804  0.00  0.00    -0.346 OA
BRANCH  15  17
ATOM     17  N   UNL     1       8.234  -2.376  24.104  0.00  0.00    -0.286 N 
ATOM     18  C   UNL     1       8.755  -1.431  23.252  0.00  0.00    +0.167 A 
ATOM     19  N   UNL     1       8.715  -1.394  21.904  0.00  0.00    -0.216 NA
ATOM     20  C   UNL     1       9.443  -0.335  21.440  0.00  0.00    +0.225 A 
ATOM     21  N   UNL     1       9.950   0.697  22.125  0.00  0.00    -0.219 NA
ATOM     22  C   UNL     1       9.926   0.634  23.468  0.00  0.00    +0.147 A 
ATOM     23  N   UNL     1      10.527   1.691  24.141  0.00  0.00    -0.341 N 
ATOM     24  H   UNL     1      11.011   1.390  24.978  0.00  0.00    +0.144 HD
ATOM     25  H   UNL     1      11.059   2.257  23.490  0.00  0.00    +0.144 HD
ATOM     26  C   UNL     1       9.386  -0.511  24.083  0.00  0.00    +0.147 A 
ATOM     27  N   UNL     1       9.379  -0.953  25.386  0.00  0.00    -0.231 NA
ATOM     28  C   UNL     1       8.736  -2.101  25.351  0.00  0.00    +0.203 A 
ENDBRANCH  15  17
BRANCH  14  29
ATOM     29  O   UNL     1       4.927  -2.816  24.147  0.00  0.00    -0.385 OA
ATOM     30  H   UNL     1       4.104  -3.007  23.664  0.00  0.00    +0.210 HD
ENDBRANCH  14  29
BRANCH  13  31
ATOM     31  O   UNL     1       5.643  -3.235  20.790  0.00  0.00    -0.386 OA
ATOM     32  H   UNL     1       6.433  -2.667  20.744  0.00  0.00    +0.210 HD
ENDBRANCH  13  31
ENDBRANCH  11  12
ENDBRANCH  10  11
ENDBRANCH   6  10
ENDBRANCH   5   6
ENDBRANCH   1   5
BRANCH   1  33
ATOM     33  O   UNL     1       4.645  -5.175  28.153  0.00  0.00    -0.186 OA
BRANCH  33  34
ATOM     34  P   UNL     1       4.330  -3.613  27.480  0.00  0.00    +0.492 P 
ATOM     35  O   UNL     1       4.341  -3.002  28.887  0.00  0.00    -0.226 OA
BRANCH  34  36
ATOM     36  O   UNL     1       5.891  -3.460  27.005  0.00  0.00    -0.302 OA
ATOM     37  H   UNL     1       5.924  -2.804  26.285  0.00  0.00    +0.222 HD
ENDBRANCH  34  36
BRANCH  34  38
ATOM     38  O   UNL     1       4.015  -2.050  26.807  0.00  0.00    -0.186 OA
BRANCH  38  39
ATOM     39  P   UNL     1       4.721  -0.688  27.171  0.00  0.00    +0.484 P 
ATOM     40  O   UNL     1       6.199  -0.738  27.388  0.00  0.00    -0.227 OA
BRANCH  39  41
ATOM     41  O   UNL     1       3.942  -0.072  28.420  0.00  0.00    -0.302 OA
ATOM     42  H   UNL     1       3.340   0.624  28.093  0.00  0.00    +0.222 HD
ENDBRANCH  39  41
BRANCH  39  43
ATOM     43  O   UNL     1       4.288   0.314  26.017  0.00  0.00    -0.280 OA
BRANCH  43  44
ATOM     44  C   UNL     1       4.264   1.665  26.410  0.00  0.00    +0.224 C 
BRANCH  44  55
ATOM     45  N   UNL     1      10.024   5.422  23.286  0.00  0.00    -0.329 N 
ATOM     46  H   UNL     1      10.511   4.957  22.544  0.00  0.00    +0.145 HD
ATOM     47  H   UNL     1      10.647   5.550  24.095  0.00  0.00    +0.145 HD
ATOM     48  C   UNL     1       9.004   4.652  23.663  0.00  0.00    +0.195 A 
ATOM     49  N   UNL     1       8.275   4.091  22.667  0.00  0.00    -0.293 N 
ATOM     50  H   UNL     1       8.464   4.304  21.699  0.00  0.00    +0.172 HD
ATOM     51  C   UNL     1       7.193   3.316  22.921  0.00  0.00    +0.280 A 
ATOM     52  O   UNL     1       6.477   2.864  22.024  0.00  0.00    -0.265 OA
ATOM     53  C   UNL     1       6.932   3.078  24.376  0.00  0.00    +0.168 A 
ATOM     54  N   UNL     1       5.805   2.385  24.719  0.00  0.00    -0.244 NA
ATOM     55  C   UNL     1       5.521   2.334  25.977  0.00  0.00    +0.063 C 
ATOM     56  C   UNL     1       6.352   2.946  27.106  0.00  0.00    +0.156 C 
ATOM     57  N   UNL     1       7.616   3.396  26.621  0.00  0.00    -0.322 N 
ATOM     58  H   UNL     1       8.118   4.086  27.171  0.00  0.00    +0.148 HD
ATOM     59  C   UNL     1       7.795   3.623  25.266  0.00  0.00    +0.154 A 
ATOM     60  N   UNL     1       8.823   4.436  24.922  0.00  0.00    -0.199 NA
ENDBRANCH  44  55
ENDBRANCH  43  44
ENDBRANCH  39  43
ENDBRANCH  38  39
ENDBRANCH  34  38
ENDBRANCH  33  34
ENDBRANCH   1  33
TORSDOF 19
ENDMDL
MODEL 5
REMARK VINA RESULT:      -6.9      3.978      7.110
REMARK  Name = 
REMARK  19 active torsions:
REMARK  status: ('A' for Active; 'I' for Inactive)
REMARK    1  A    between atoms: C_7  and  C_8
REMARK    2  A    between atoms: C_8  and  O_9
REMARK    3  A    between atoms: O_9  and  P_10
REMARK    4  A    between atoms: P_10  and  O_11
REMARK    5  A    between atoms: P_10  and  O_13
REMARK    6  A    between atoms: O_13  and  P_14
REMARK    7  A    between atoms: P_14  and  O_15
REMARK    8  A    between atoms: P_14  and  O_17
REMARK    9  A    between atoms: O_17  and  P_18
REMARK   10  A    between atoms: P_18  and  O_19
REMARK   11  A    between atoms: P_18  and  O_21
REMARK   12  A    between atoms: O_21  and  P_22
REMARK   13  A    between atoms: P_22  and  O_23
REMARK   14  A    between atoms: P_22  and  O_25
REMARK   15  A    between atoms: O_25  and  C_26
REMARK   16  A    between atoms: C_26  and  C_27
REMARK   17  A    between atoms: C_30  and  N_38
REMARK   18  A    between atoms: C_32  and  O_34
REMARK   19  A    between atoms: C_35  and  O_37
REMARK                            x       y       z     vdW  Elec       q    Type
REMARK                         _______ _______ _______ _____ _____    ______ ____
ROOT
ATOM      1  P   UNL     1       2.739  -5.669  27.806  0.00  0.00    +0.492 P 
ATOM      2  O   UNL     1       3.713  -5.665  28.938  0.00  0.00    -0.226 OA
ENDROOT
BRANCH   1   3
ATOM      3  O   UNL     1       1.693  -6.863  27.901  0.00  0.00    -0.302 OA
ATOM      4  H   UNL     1       1.255  -7.179  27.074  0.00  0.00    +0.222 HD
ENDBRANCH   1   3
BRANCH   1   5
ATOM      5  O   UNL     1       3.416  -5.676  26.354  0.00  0.00    -0.186 OA
BRANCH   5   6
ATOM      6  P   UNL     1       5.117  -5.959  26.487  0.00  0.00    +0.483 P 
ATOM      7  O   UNL     1       5.111  -6.316  24.995  0.00  0.00    -0.227 OA
BRANCH   6   8
ATOM      8  O   UNL     1       4.841  -7.403  27.197  0.00  0.00    -0.302 OA
ATOM      9  H   UNL     1       3.874  -7.537  27.216  0.00  0.00    +0.222 HD
ENDBRANCH   6   8
BRANCH   6  10
ATOM     10  O   UNL     1       6.818  -6.243  26.619  0.00  0.00    -0.284 OA
BRANCH  10  11
ATOM     11  C   UNL     1       7.563  -5.255  27.339  0.00  0.00    +0.206 C 
BRANCH  11  12
ATOM     12  C   UNL     1       8.594  -4.528  26.474  0.00  0.00    +0.178 C 
ATOM     13  C   UNL     1       8.895  -5.245  25.167  0.00  0.00    +0.178 C 
ATOM     14  C   UNL     1       8.149  -4.459  24.091  0.00  0.00    +0.195 C 
ATOM     15  C   UNL     1       7.453  -3.324  24.846  0.00  0.00    +0.253 C 
ATOM     16  O   UNL     1       8.137  -3.209  26.110  0.00  0.00    -0.346 OA
BRANCH  15  17
ATOM     17  N   UNL     1       7.479  -2.039  24.155  0.00  0.00    -0.286 N 
ATOM     18  C   UNL     1       8.540  -1.479  23.482  0.00  0.00    +0.167 A 
ATOM     19  N   UNL     1       9.842  -1.833  23.512  0.00  0.00    -0.216 NA
ATOM     20  C   UNL     1      10.586  -0.955  22.777  0.00  0.00    +0.225 A 
ATOM     21  N   UNL     1      10.167  -0.009  21.928  0.00  0.00    -0.219 NA
ATOM     22  C   UNL     1       8.852   0.278  21.901  0.00  0.00    +0.147 A 
ATOM     23  N   UNL     1       8.468   1.314  21.060  0.00  0.00    -0.341 N 
ATOM     24  H   UNL     1       7.721   1.873  21.454  0.00  0.00    +0.144 HD
ATOM     25  H   UNL     1       9.287   1.817  20.737  0.00  0.00    +0.144 HD
ATOM     26  C   UNL     1       7.991  -0.418  22.770  0.00  0.00    +0.147 A 
ATOM     27  N   UNL     1       6.670  -0.242  23.110  0.00  0.00    -0.231 NA
ATOM     28  C   UNL     1       6.414  -1.190  23.987  0.00  0.00    +0.203 A 
ENDBRANCH  15  17
BRANCH  14  29
ATOM     29  O   UNL     1       7.203  -5.274  23.391  0.00  0.00    -0.385 OA
ATOM     30  H   UNL     1       7.456  -5.209  22.453  0.00  0.00    +0.210 HD
ENDBRANCH  14  29
BRANCH  13  31
ATOM     31  O   UNL     1      10.309  -5.180  24.907  0.00  0.00    -0.386 OA
ATOM     32  H   UNL     1      10.448  -4.828  24.010  0.00  0.00    +0.210 HD
ENDBRANCH  13  31
ENDBRANCH  11  12
ENDBRANCH  10  11
ENDBRANCH   6  10
ENDBRANCH   5   6
ENDBRANCH   1   5
BRANCH   1  33
ATOM     33  O   UNL     1       1.809  -4.404  27.692  0.00  0.00    -0.186 OA
BRANCH  33  34
ATOM     34  P   UNL     1       2.390  -2.905  27.053  0.00  0.00    +0.492 P 
ATOM     35  O   UNL     1       1.455  -2.139  27.997  0.00  0.00    -0.226 OA
BRANCH  34  36
ATOM     36  O   UNL     1       3.772  -3.023  27.927  0.00  0.00    -0.302 OA
ATOM     37  H   UNL     1       4.521  -3.033  27.304  0.00  0.00    +0.222 HD
ENDBRANCH  34  36
BRANCH  34  38
ATOM     38  O   UNL     1       2.970  -1.405  26.415  0.00  0.00    -0.186 OA
BRANCH  38  39
ATOM     39  P   UNL     1       3.519  -0.166  27.221  0.00  0.00    +0.484 P 
ATOM     40  O   UNL     1       4.523  -0.455  28.290  0.00  0.00    -0.227 OA
BRANCH  39  41
ATOM     41  O   UNL     1       2.253   0.633  27.774  0.00  0.00    -0.302 OA
ATOM     42  H   UNL     1       1.483   0.032  27.768  0.00  0.00    +0.222 HD
ENDBRANCH  39  41
BRANCH  39  43
ATOM     43  O   UNL     1       4.051   0.837  26.111  0.00  0.00    -0.280 OA
BRANCH  43  44
ATOM     44  C   UNL     1       4.725   1.959  26.627  0.00  0.00    +0.224 C 
BRANCH  44  55
ATOM     45  N   UNL     1      11.171   3.768  23.129  0.00  0.00    -0.329 N 
ATOM     46  H   UNL     1      11.136   3.822  22.129  0.00  0.00    +0.145 HD
ATOM     47  H   UNL     1      11.786   2.997  23.423  0.00  0.00    +0.145 HD
ATOM     48  C   UNL     1       9.941   3.514  23.576  0.00  0.00    +0.195 A 
ATOM     49  N   UNL     1       8.936   4.221  23.003  0.00  0.00    -0.293 N 
ATOM     50  H   UNL     1       9.127   4.943  22.324  0.00  0.00    +0.172 HD
ATOM     51  C   UNL     1       7.647   4.078  23.395  0.00  0.00    +0.280 A 
ATOM     52  O   UNL     1       6.735   4.771  22.936  0.00  0.00    -0.265 OA
ATOM     53  C   UNL     1       7.432   3.029  24.441  0.00  0.00    +0.168 A 
ATOM     54  N   UNL     1       6.174   2.888  24.958  0.00  0.00    -0.244 NA
ATOM     55  C   UNL     1       6.052   2.094  25.967  0.00  0.00    +0.063 C 
ATOM     56  C   UNL     1       7.178   1.276  26.602  0.00  0.00    +0.156 C 
ATOM     57  N   UNL     1       8.356   1.322  25.797  0.00  0.00    -0.322 N 
ATOM     58  H   UNL     1       9.243   1.101  26.240  0.00  0.00    +0.148 HD
ATOM     59  C   UNL     1       8.513   2.330  24.860  0.00  0.00    +0.154 A 
ATOM     60  N   UNL     1       9.781   2.581  24.452  0.00  0.00    -0.199 NA
ENDBRANCH  44  55
ENDBRANCH  43  44
ENDBRANCH  39  43
ENDBRANCH  38  39
ENDBRANCH  34  38
ENDBRANCH  33  34
ENDBRANCH   1  33
TORSDOF 19
ENDMDL
MODEL 6
REMARK VINA RESULT:      -6.9      3.911      6.988
REMARK  Name = 
REMARK  19 active torsions:
REMARK  status: ('A' for Active; 'I' for Inactive)
REMARK    1  A    between atoms: C_7  and  C_8
REMARK    2  A    between atoms: C_8  and  O_9
REMARK    3  A    between atoms: O_9  and  P_10
REMARK    4  A    between atoms: P_10  and  O_11
REMARK    5  A    between atoms: P_10  and  O_13
REMARK    6  A    between atoms: O_13  and  P_14
REMARK    7  A    between atoms: P_14  and  O_15
REMARK    8  A    between atoms: P_14  and  O_17
REMARK    9  A    between atoms: O_17  and  P_18
REMARK   10  A    between atoms: P_18  and  O_19
REMARK   11  A    between atoms: P_18  and  O_21
REMARK   12  A    between atoms: O_21  and  P_22
REMARK   13  A    between atoms: P_22  and  O_23
REMARK   14  A    between atoms: P_22  and  O_25
REMARK   15  A    between atoms: O_25  and  C_26
REMARK   16  A    between atoms: C_26  and  C_27
REMARK   17  A    between atoms: C_30  and  N_38
REMARK   18  A    between atoms: C_32  and  O_34
REMARK   19  A    between atoms: C_35  and  O_37
REMARK                            x       y       z     vdW  Elec       q    Type
REMARK                         _______ _______ _______ _____ _____    ______ ____
ROOT
ATOM      1  P   UNL     1       2.988  -4.417  25.534  0.00  0.00    +0.492 P 
ATOM      2  O   UNL     1       1.563  -4.270  25.111  0.00  0.00    -0.226 OA
ENDROOT
BRANCH   1   3
ATOM      3  O   UNL     1       4.007  -3.789  24.486  0.00  0.00    -0.302 OA
ATOM      4  H   UNL     1       4.188  -2.820  24.521  0.00  0.00    +0.222 HD
ENDBRANCH   1   3
BRANCH   1   5
ATOM      5  O   UNL     1       3.427  -5.923  25.857  0.00  0.00    -0.186 OA
BRANCH   5   6
ATOM      6  P   UNL     1       5.127  -6.000  26.164  0.00  0.00    +0.483 P 
ATOM      7  O   UNL     1       5.305  -6.479  24.717  0.00  0.00    -0.227 OA
BRANCH   6   8
ATOM      8  O   UNL     1       4.935  -7.402  26.979  0.00  0.00    -0.302 OA
ATOM      9  H   UNL     1       4.242  -7.913  26.519  0.00  0.00    +0.222 HD
ENDBRANCH   6   8
BRANCH   6  10
ATOM     10  O   UNL     1       6.828  -6.079  26.470  0.00  0.00    -0.284 OA
BRANCH  10  11
ATOM     11  C   UNL     1       7.389  -4.964  27.172  0.00  0.00    +0.206 C 
BRANCH  11  12
ATOM     12  C   UNL     1       8.473  -4.235  26.376  0.00  0.00    +0.178 C 
ATOM     13  C   UNL     1       8.855  -4.946  25.088  0.00  0.00    +0.178 C 
ATOM     14  C   UNL     1       8.177  -4.155  23.971  0.00  0.00    +0.195 C 
ATOM     15  C   UNL     1       7.436  -3.024  24.685  0.00  0.00    +0.253 C 
ATOM     16  O   UNL     1       8.039  -2.913  25.990  0.00  0.00    -0.346 OA
BRANCH  15  17
ATOM     17  N   UNL     1       7.505  -1.736  24.002  0.00  0.00    -0.286 N 
ATOM     18  C   UNL     1       8.631  -0.983  23.761  0.00  0.00    +0.167 A 
ATOM     19  N   UNL     1       9.862  -1.106  24.299  0.00  0.00    -0.216 NA
ATOM     20  C   UNL     1      10.669  -0.093  23.866  0.00  0.00    +0.225 A 
ATOM     21  N   UNL     1      10.452   0.788  22.882  0.00  0.00    -0.219 NA
ATOM     22  C   UNL     1       9.220   0.842  22.345  0.00  0.00    +0.147 A 
ATOM     23  N   UNL     1       9.016   1.818  21.378  0.00  0.00    -0.341 N 
ATOM     24  H   UNL     1       8.091   2.228  21.433  0.00  0.00    +0.144 HD
ATOM     25  H   UNL     1       9.797   2.464  21.369  0.00  0.00    +0.144 HD
ATOM     26  C   UNL     1       8.223  -0.015  22.849  0.00  0.00    +0.147 A 
ATOM     27  N   UNL     1       6.863  -0.079  22.652  0.00  0.00    -0.231 NA
ATOM     28  C   UNL     1       6.458  -1.080  23.405  0.00  0.00    +0.203 A 
ENDBRANCH  15  17
BRANCH  14  29
ATOM     29  O   UNL     1       7.278  -4.968  23.209  0.00  0.00    -0.385 OA
ATOM     30  H   UNL     1       7.728  -5.117  22.358  0.00  0.00    +0.210 HD
ENDBRANCH  14  29
BRANCH  13  31
ATOM     31  O   UNL     1      10.282  -4.880  24.918  0.00  0.00    -0.386 OA
ATOM     32  H   UNL     1      10.499  -5.096  23.993  0.00  0.00    +0.210 HD
ENDBRANCH  13  31
ENDBRANCH  11  12
ENDBRANCH  10  11
ENDBRANCH   6  10
ENDBRANCH   5   6
ENDBRANCH   1   5
BRANCH   1  33
ATOM     33  O   UNL     1       3.387  -3.699  26.876  0.00  0.00    -0.186 OA
BRANCH  33  34
ATOM     34  P   UNL     1       4.114  -2.130  26.885  0.00  0.00    +0.492 P 
ATOM     35  O   UNL     1       2.804  -1.517  26.378  0.00  0.00    -0.226 OA
BRANCH  34  36
ATOM     36  O   UNL     1       3.959  -2.024  28.514  0.00  0.00    -0.302 OA
ATOM     37  H   UNL     1       4.849  -2.081  28.906  0.00  0.00    +0.222 HD
ENDBRANCH  34  36
BRANCH  34  38
ATOM     38  O   UNL     1       4.842  -0.559  26.895  0.00  0.00    -0.186 OA
BRANCH  38  39
ATOM     39  P   UNL     1       4.548   0.629  27.887  0.00  0.00    +0.484 P 
ATOM     40  O   UNL     1       5.304   0.625  29.177  0.00  0.00    -0.227 OA
BRANCH  39  41
ATOM     41  O   UNL     1       2.968   0.681  28.106  0.00  0.00    -0.302 OA
ATOM     42  H   UNL     1       2.540   0.786  27.234  0.00  0.00    +0.222 HD
ENDBRANCH  39  41
BRANCH  39  43
ATOM     43  O   UNL     1       4.779   1.944  27.026  0.00  0.00    -0.280 OA
BRANCH  43  44
ATOM     44  C   UNL     1       4.970   1.704  25.653  0.00  0.00    +0.224 C 
BRANCH  44  55
ATOM     45  N   UNL     1      10.692   6.000  23.232  0.00  0.00    -0.329 N 
ATOM     46  H   UNL     1      10.756   6.143  22.243  0.00  0.00    +0.145 HD
ATOM     47  H   UNL     1      11.506   5.465  23.567  0.00  0.00    +0.145 HD
ATOM     48  C   UNL     1       9.593   5.288  23.481  0.00  0.00    +0.195 A 
ATOM     49  N   UNL     1       8.475   5.658  22.811  0.00  0.00    -0.293 N 
ATOM     50  H   UNL     1       8.470   6.467  22.209  0.00  0.00    +0.172 HD
ATOM     51  C   UNL     1       7.287   5.034  23.003  0.00  0.00    +0.280 A 
ATOM     52  O   UNL     1       6.246   5.411  22.458  0.00  0.00    -0.265 OA
ATOM     53  C   UNL     1       7.345   3.873  23.946  0.00  0.00    +0.168 A 
ATOM     54  N   UNL     1       6.170   3.249  24.266  0.00  0.00    -0.244 NA
ATOM     55  C   UNL     1       6.227   2.361  25.200  0.00  0.00    +0.063 C 
ATOM     56  C   UNL     1       7.490   1.925  25.943  0.00  0.00    +0.156 C 
ATOM     57  N   UNL     1       8.657   2.462  25.321  0.00  0.00    -0.322 N 
ATOM     58  H   UNL     1       9.508   2.518  25.874  0.00  0.00    +0.148 HD
ATOM     59  C   UNL     1       8.549   3.553  24.476  0.00  0.00    +0.154 A 
ATOM     60  N   UNL     1       9.680   4.272  24.271  0.00  0.00    -0.199 NA
ENDBRANCH  44  55
ENDBRANCH  43  44
ENDBRANCH  39  43
ENDBRANCH  38  39
ENDBRANCH  34  38
ENDBRANCH  33  34
ENDBRANCH   1  33
TORSDOF 19
ENDMDL
MODEL 7
REMARK VINA RESULT:      -6.9      2.067      5.787
REMARK  Name = 
REMARK  19 active torsions:
REMARK  status: ('A' for Active; 'I' for Inactive)
REMARK    1  A    between atoms: C_7  and  C_8
REMARK    2  A    between atoms: C_8  and  O_9
REMARK    3  A    between atoms: O_9  and  P_10
REMARK    4  A    between atoms: P_10  and  O_11
REMARK    5  A    between atoms: P_10  and  O_13
REMARK    6  A    between atoms: O_13  and  P_14
REMARK    7  A    between atoms: P_14  and  O_15
REMARK    8  A    between atoms: P_14  and  O_17
REMARK    9  A    between atoms: O_17  and  P_18
REMARK   10  A    between atoms: P_18  and  O_19
REMARK   11  A    between atoms: P_18  and  O_21
REMARK   12  A    between atoms: O_21  and  P_22
REMARK   13  A    between atoms: P_22  and  O_23
REMARK   14  A    between atoms: P_22  and  O_25
REMARK   15  A    between atoms: O_25  and  C_26
REMARK   16  A    between atoms: C_26  and  C_27
REMARK   17  A    between atoms: C_30  and  N_38
REMARK   18  A    between atoms: C_32  and  O_34
REMARK   19  A    between atoms: C_35  and  O_37
REMARK                            x       y       z     vdW  Elec       q    Type
REMARK                         _______ _______ _______ _____ _____    ______ ____
ROOT
ATOM      1  P   UNL     1       7.527   5.278  22.998  0.00  0.00    +0.492 P 
ATOM      2  O   UNL     1       7.845   6.309  21.964  0.00  0.00    -0.226 OA
ENDROOT
BRANCH   1   3
ATOM      3  O   UNL     1       6.759   4.023  22.396  0.00  0.00    -0.302 OA
ATOM      4  H   UNL     1       6.505   4.033  21.442  0.00  0.00    +0.222 HD
ENDBRANCH   1   3
BRANCH   1   5
ATOM      5  O   UNL     1       6.713   5.839  24.258  0.00  0.00    -0.186 OA
BRANCH   5   6
ATOM      6  P   UNL     1       5.822   4.563  25.013  0.00  0.00    +0.483 P 
ATOM      7  O   UNL     1       4.893   5.637  25.592  0.00  0.00    -0.227 OA
BRANCH   6   8
ATOM      8  O   UNL     1       6.966   4.424  26.170  0.00  0.00    -0.302 OA
ATOM      9  H   UNL     1       6.505   4.273  27.017  0.00  0.00    +0.222 HD
ENDBRANCH   6   8
BRANCH   6  10
ATOM     10  O   UNL     1       4.931   3.287  25.769  0.00  0.00    -0.284 OA
BRANCH  10  11
ATOM     11  C   UNL     1       4.944   2.027  25.089  0.00  0.00    +0.206 C 
BRANCH  11  12
ATOM     12  C   UNL     1       6.022   1.074  25.607  0.00  0.00    +0.178 C 
ATOM     13  C   UNL     1       6.330   1.259  27.085  0.00  0.00    +0.178 C 
ATOM     14  C   UNL     1       5.639   0.094  27.792  0.00  0.00    +0.195 C 
ATOM     15  C   UNL     1       4.967  -0.702  26.672  0.00  0.00    +0.253 C 
ATOM     16  O   UNL     1       5.622  -0.304  25.451  0.00  0.00    -0.346 OA
BRANCH  15  17
ATOM     17  N   UNL     1       5.056  -2.150  26.828  0.00  0.00    -0.286 N 
ATOM     18  C   UNL     1       6.199  -2.916  26.827  0.00  0.00    +0.167 A 
ATOM     19  N   UNL     1       7.445  -2.576  26.437  0.00  0.00    -0.216 NA
ATOM     20  C   UNL     1       8.271  -3.662  26.501  0.00  0.00    +0.225 A 
ATOM     21  N   UNL     1       8.048  -4.851  27.073  0.00  0.00    -0.219 NA
ATOM     22  C   UNL     1       6.799  -5.127  27.488  0.00  0.00    +0.147 A 
ATOM     23  N   UNL     1       6.593  -6.398  28.009  0.00  0.00    -0.341 N 
ATOM     24  H   UNL     1       5.687  -6.776  27.759  0.00  0.00    +0.144 HD
ATOM     25  H   UNL     1       7.396  -6.985  27.815  0.00  0.00    +0.144 HD
ATOM     26  C   UNL     1       5.792  -4.163  27.290  0.00  0.00    +0.147 A 
ATOM     27  N   UNL     1       4.424  -4.204  27.428  0.00  0.00    -0.231 NA
ATOM     28  C   UNL     1       4.011  -3.002  27.083  0.00  0.00    +0.203 A 
ENDBRANCH  15  17
BRANCH  14  29
ATOM     29  O   UNL     1       4.682   0.545  28.757  0.00  0.00    -0.385 OA
ATOM     30  H   UNL     1       4.621   1.508  28.624  0.00  0.00    +0.210 HD
ENDBRANCH  14  29
BRANCH  13  31
ATOM     31  O   UNL     1       7.751   1.162  27.287  0.00  0.00    -0.386 OA
ATOM     32  H   UNL     1       8.175   1.961  26.926  0.00  0.00    +0.210 HD
ENDBRANCH  13  31
ENDBRANCH  11  12
ENDBRANCH  10  11
ENDBRANCH   6  10
ENDBRANCH   5   6
ENDBRANCH   1   5
BRANCH   1  33
ATOM     33  O   UNL     1       8.762   4.616  23.715  0.00  0.00    -0.186 OA
BRANCH  33  34
ATOM     34  P   UNL     1       9.200   2.967  23.431  0.00  0.00    +0.492 P 
ATOM     35  O   UNL     1      10.670   3.380  23.289  0.00  0.00    -0.226 OA
BRANCH  34  36
ATOM     36  O   UNL     1       9.073   2.618  25.028  0.00  0.00    -0.302 OA
ATOM     37  H   UNL     1       9.747   1.948  25.244  0.00  0.00    +0.222 HD
ENDBRANCH  34  36
BRANCH  34  38
ATOM     38  O   UNL     1       9.639   1.318  23.147  0.00  0.00    -0.186 OA
BRANCH  38  39
ATOM     39  P   UNL     1      10.172   0.271  24.198  0.00  0.00    +0.484 P 
ATOM     40  O   UNL     1       9.300   0.010  25.384  0.00  0.00    -0.227 OA
BRANCH  39  41
ATOM     41  O   UNL     1      11.644   0.728  24.614  0.00  0.00    -0.302 OA
ATOM     42  H   UNL     1      12.167   0.858  23.799  0.00  0.00    +0.222 HD
ENDBRANCH  39  41
BRANCH  39  43
ATOM     43  O   UNL     1      10.487  -1.033  23.349  0.00  0.00    -0.280 OA
BRANCH  43  44
ATOM     44  C   UNL     1       9.726  -1.149  22.172  0.00  0.00    +0.224 C 
BRANCH  44  55
ATOM     45  N   UNL     1       3.872  -5.382  24.379  0.00  0.00    -0.329 N 
ATOM     46  H   UNL     1       3.757  -6.263  23.915  0.00  0.00    +0.145 HD
ATOM     47  H   UNL     1       3.078  -4.762  24.165  0.00  0.00    +0.145 HD
ATOM     48  C   UNL     1       4.984  -4.810  23.920  0.00  0.00    +0.195 A 
ATOM     49  N   UNL     1       6.066  -5.617  23.795  0.00  0.00    -0.293 N 
ATOM     50  H   UNL     1       6.037  -6.580  24.096  0.00  0.00    +0.172 HD
ATOM     51  C   UNL     1       7.264  -5.147  23.372  0.00  0.00    +0.280 A 
ATOM     52  O   UNL     1       8.274  -5.854  23.328  0.00  0.00    -0.265 OA
ATOM     53  C   UNL     1       7.259  -3.700  22.987  0.00  0.00    +0.168 A 
ATOM     54  N   UNL     1       8.451  -3.126  22.639  0.00  0.00    -0.244 NA
ATOM     55  C   UNL     1       8.445  -1.846  22.471  0.00  0.00    +0.063 C 
ATOM     56  C   UNL     1       7.223  -0.935  22.588  0.00  0.00    +0.156 C 
ATOM     57  N   UNL     1       6.024  -1.703  22.689  0.00  0.00    -0.322 N 
ATOM     58  H   UNL     1       5.202  -1.252  23.082  0.00  0.00    +0.148 HD
ATOM     59  C   UNL     1       6.084  -3.032  23.073  0.00  0.00    +0.154 A 
ATOM     60  N   UNL     1       4.942  -3.571  23.564  0.00  0.00    -0.199 NA
ENDBRANCH  44  55
ENDBRANCH  43  44
ENDBRANCH  39  43
ENDBRANCH  38  39
ENDBRANCH  34  38
ENDBRANCH  33  34
ENDBRANCH   1  33
TORSDOF 19
ENDMDL
MODEL 8
REMARK VINA RESULT:      -6.7      3.537      8.114
REMARK  Name = 
REMARK  19 active torsions:
REMARK  status: ('A' for Active; 'I' for Inactive)
REMARK    1  A    between atoms: C_7  and  C_8
REMARK    2  A    between atoms: C_8  and  O_9
REMARK    3  A    between atoms: O_9  and  P_10
REMARK    4  A    between atoms: P_10  and  O_11
REMARK    5  A    between atoms: P_10  and  O_13
REMARK    6  A    between atoms: O_13  and  P_14
REMARK    7  A    between atoms: P_14  and  O_15
REMARK    8  A    between atoms: P_14  and  O_17
REMARK    9  A    between atoms: O_17  and  P_18
REMARK   10  A    between atoms: P_18  and  O_19
REMARK   11  A    between atoms: P_18  and  O_21
REMARK   12  A    between atoms: O_21  and  P_22
REMARK   13  A    between atoms: P_22  and  O_23
REMARK   14  A    between atoms: P_22  and  O_25
REMARK   15  A    between atoms: O_25  and  C_26
REMARK   16  A    between atoms: C_26  and  C_27
REMARK   17  A    between atoms: C_30  and  N_38
REMARK   18  A    between atoms: C_32  and  O_34
REMARK   19  A    between atoms: C_35  and  O_37
REMARK                            x       y       z     vdW  Elec       q    Type
REMARK                         _______ _______ _______ _____ _____    ______ ____
ROOT
ATOM      1  P   UNL     1       6.419  -5.114  22.152  0.00  0.00    +0.492 P 
ATOM      2  O   UNL     1       7.207  -5.927  21.177  0.00  0.00    -0.226 OA
ENDROOT
BRANCH   1   3
ATOM      3  O   UNL     1       6.442  -3.560  21.815  0.00  0.00    -0.302 OA
ATOM      4  H   UNL     1       5.803  -3.208  21.151  0.00  0.00    +0.222 HD
ENDBRANCH   1   3
BRANCH   1   5
ATOM      5  O   UNL     1       6.845  -5.327  23.681  0.00  0.00    -0.186 OA
BRANCH   5   6
ATOM      6  P   UNL     1       8.197  -4.323  24.074  0.00  0.00    +0.483 P 
ATOM      7  O   UNL     1       8.996  -5.606  24.336  0.00  0.00    -0.227 OA
BRANCH   6   8
ATOM      8  O   UNL     1       7.555  -4.000  25.540  0.00  0.00    -0.302 OA
ATOM      9  H   UNL     1       8.193  -3.437  26.018  0.00  0.00    +0.222 HD
ENDBRANCH   6   8
BRANCH   6  10
ATOM     10  O   UNL     1       9.550  -3.319  24.468  0.00  0.00    -0.284 OA
BRANCH  10  11
ATOM     11  C   UNL     1       9.265  -1.928  24.646  0.00  0.00    +0.206 C 
BRANCH  11  12
ATOM     12  C   UNL     1       9.849  -1.046  23.541  0.00  0.00    +0.178 C 
ATOM     13  C   UNL     1       8.955  -0.948  22.314  0.00  0.00    +0.178 C 
ATOM     14  C   UNL     1       8.297   0.428  22.401  0.00  0.00    +0.195 C 
ATOM     15  C   UNL     1       8.853   1.049  23.685  0.00  0.00    +0.253 C 
ATOM     16  O   UNL     1      10.049   0.307  24.001  0.00  0.00    -0.346 OA
BRANCH  15  17
ATOM     17  N   UNL     1       9.171   2.469  23.575  0.00  0.00    -0.286 N 
ATOM     18  C   UNL     1       8.282   3.518  23.534  0.00  0.00    +0.167 A 
ATOM     19  N   UNL     1       6.949   3.490  23.326  0.00  0.00    -0.216 NA
ATOM     20  C   UNL     1       6.456   4.761  23.260  0.00  0.00    +0.225 A 
ATOM     21  N   UNL     1       7.061   5.912  23.578  0.00  0.00    -0.219 NA
ATOM     22  C   UNL     1       8.384   5.883  23.822  0.00  0.00    +0.147 A 
ATOM     23  N   UNL     1       8.987   7.108  24.077  0.00  0.00    -0.341 N 
ATOM     24  H   UNL     1       9.917   7.169  23.680  0.00  0.00    +0.144 HD
ATOM     25  H   UNL     1       8.348   7.861  23.849  0.00  0.00    +0.144 HD
ATOM     26  C   UNL     1       9.063   4.654  23.718  0.00  0.00    +0.147 A 
ATOM     27  N   UNL     1      10.399   4.326  23.724  0.00  0.00    -0.231 NA
ATOM     28  C   UNL     1      10.429   3.018  23.573  0.00  0.00    +0.203 A 
ENDBRANCH  15  17
BRANCH  14  29
ATOM     29  O   UNL     1       6.869   0.337  22.444  0.00  0.00    -0.385 OA
ATOM     30  H   UNL     1       6.554   1.259  22.424  0.00  0.00    +0.210 HD
ENDBRANCH  14  29
BRANCH  13  31
ATOM     31  O   UNL     1       9.770  -1.010  21.130  0.00  0.00    -0.386 OA
ATOM     32  H   UNL     1      10.594  -0.514  21.289  0.00  0.00    +0.210 HD
ENDBRANCH  13  31
ENDBRANCH  11  12
ENDBRANCH  10  11
ENDBRANCH   6  10
ENDBRANCH   5   6
ENDBRANCH   1   5
BRANCH   1  33
ATOM     33  O   UNL     1       4.879  -5.429  22.227  0.00  0.00    -0.186 OA
BRANCH  33  34
ATOM     34  P   UNL     1       4.088  -5.736  23.735  0.00  0.00    +0.492 P 
ATOM     35  O   UNL     1       2.734  -5.787  23.016  0.00  0.00    -0.226 OA
BRANCH  34  36
ATOM     36  O   UNL     1       4.571  -7.303  23.714  0.00  0.00    -0.302 OA
ATOM     37  H   UNL     1       3.917  -7.812  23.201  0.00  0.00    +0.222 HD
ENDBRANCH  34  36
BRANCH  34  38
ATOM     38  O   UNL     1       3.296  -6.044  25.242  0.00  0.00    -0.186 OA
BRANCH  38  39
ATOM     39  P   UNL     1       1.976  -5.377  25.788  0.00  0.00    +0.484 P 
ATOM     40  O   UNL     1       0.725  -6.187  25.682  0.00  0.00    -0.227 OA
BRANCH  39  41
ATOM     41  O   UNL     1       1.841  -3.953  25.080  0.00  0.00    -0.302 OA
ATOM     42  H   UNL     1       2.729  -3.547  25.034  0.00  0.00    +0.222 HD
ENDBRANCH  39  41
BRANCH  39  43
ATOM     43  O   UNL     1       2.324  -4.946  27.276  0.00  0.00    -0.280 OA
BRANCH  43  44
ATOM     44  C   UNL     1       3.703  -4.843  27.536  0.00  0.00    +0.224 C 
BRANCH  44  55
ATOM     45  N   UNL     1       5.552   2.317  25.997  0.00  0.00    -0.329 N 
ATOM     46  H   UNL     1       6.448   2.466  25.574  0.00  0.00    +0.145 HD
ATOM     47  H   UNL     1       5.528   2.741  26.936  0.00  0.00    +0.145 HD
ATOM     48  C   UNL     1       5.365   1.004  26.128  0.00  0.00    +0.195 A 
ATOM     49  N   UNL     1       5.707   0.240  25.061  0.00  0.00    -0.293 N 
ATOM     50  H   UNL     1       6.024   0.659  24.200  0.00  0.00    +0.172 HD
ATOM     51  C   UNL     1       5.533  -1.103  25.058  0.00  0.00    +0.280 A 
ATOM     52  O   UNL     1       5.768  -1.798  24.066  0.00  0.00    -0.265 OA
ATOM     53  C   UNL     1       5.012  -1.661  26.346  0.00  0.00    +0.168 A 
ATOM     54  N   UNL     1       4.719  -2.996  26.393  0.00  0.00    -0.244 NA
ATOM     55  C   UNL     1       4.123  -3.417  27.457  0.00  0.00    +0.063 C 
ATOM     56  C   UNL     1       3.755  -2.565  28.672  0.00  0.00    +0.156 C 
ATOM     57  N   UNL     1       4.356  -1.273  28.588  0.00  0.00    -0.322 N 
ATOM     58  H   UNL     1       3.952  -0.523  29.141  0.00  0.00    +0.148 HD
ATOM     59  C   UNL     1       4.800  -0.796  27.365  0.00  0.00    +0.154 A 
ATOM     60  N   UNL     1       4.948   0.547  27.260  0.00  0.00    -0.199 NA
ENDBRANCH  44  55
ENDBRANCH  43  44
ENDBRANCH  39  43
ENDBRANCH  38  39
ENDBRANCH  34  38
ENDBRANCH  33  34
ENDBRANCH   1  33
TORSDOF 19
ENDMDL
MODEL 9
REMARK VINA RESULT:      -6.7      3.680      8.326
REMARK  Name = 
REMARK  19 active torsions:
REMARK  status: ('A' for Active; 'I' for Inactive)
REMARK    1  A    between atoms: C_7  and  C_8
REMARK    2  A    between atoms: C_8  and  O_9
REMARK    3  A    between atoms: O_9  and  P_10
REMARK    4  A    between atoms: P_10  and  O_11
REMARK    5  A    between atoms: P_10  and  O_13
REMARK    6  A    between atoms: O_13  and  P_14
REMARK    7  A    between atoms: P_14  and  O_15
REMARK    8  A    between atoms: P_14  and  O_17
REMARK    9  A    between atoms: O_17  and  P_18
REMARK   10  A    between atoms: P_18  and  O_19
REMARK   11  A    between atoms: P_18  and  O_21
REMARK   12  A    between atoms: O_21  and  P_22
REMARK   13  A    between atoms: P_22  and  O_23
REMARK   14  A    between atoms: P_22  and  O_25
REMARK   15  A    between atoms: O_25  and  C_26
REMARK   16  A    between atoms: C_26  and  C_27
REMARK   17  A    between atoms: C_30  and  N_38
REMARK   18  A    between atoms: C_32  and  O_34
REMARK   19  A    between atoms: C_35  and  O_37
REMARK                            x       y       z     vdW  Elec       q    Type
REMARK                         _______ _______ _______ _____ _____    ______ ____
ROOT
ATOM      1  P   UNL     1       7.268  -5.277  22.794  0.00  0.00    +0.492 P 
ATOM      2  O   UNL     1       6.980  -6.283  21.728  0.00  0.00    -0.226 OA
ENDROOT
BRANCH   1   3
ATOM      3  O   UNL     1       7.333  -3.790  22.234  0.00  0.00    -0.302 OA
ATOM      4  H   UNL     1       6.551  -3.201  22.355  0.00  0.00    +0.222 HD
ENDBRANCH   1   3
BRANCH   1   5
ATOM      5  O   UNL     1       8.593  -5.578  23.642  0.00  0.00    -0.186 OA
BRANCH   5   6
ATOM      6  P   UNL     1       8.618  -4.615  25.079  0.00  0.00    +0.483 P 
ATOM      7  O   UNL     1      10.137  -4.492  24.897  0.00  0.00    -0.227 OA
BRANCH   6   8
ATOM      8  O   UNL     1       8.480  -5.955  26.002  0.00  0.00    -0.302 OA
ATOM      9  H   UNL     1       9.056  -5.832  26.780  0.00  0.00    +0.222 HD
ENDBRANCH   6   8
BRANCH   6  10
ATOM     10  O   UNL     1       8.644  -3.652  26.516  0.00  0.00    -0.284 OA
BRANCH  10  11
ATOM     11  C   UNL     1       7.904  -2.428  26.462  0.00  0.00    +0.206 C 
BRANCH  11  12
ATOM     12  C   UNL     1       7.734  -1.890  25.040  0.00  0.00    +0.178 C 
ATOM     13  C   UNL     1       6.379  -1.241  24.800  0.00  0.00    +0.178 C 
ATOM     14  C   UNL     1       6.639   0.264  24.825  0.00  0.00    +0.195 C 
ATOM     15  C   UNL     1       8.142   0.398  25.081  0.00  0.00    +0.253 C 
ATOM     16  O   UNL     1       8.720  -0.878  24.742  0.00  0.00    -0.346 OA
BRANCH  15  17
ATOM     17  N   UNL     1       8.791   1.452  24.306  0.00  0.00    -0.286 N 
ATOM     18  C   UNL     1       8.795   2.800  24.579  0.00  0.00    +0.167 A 
ATOM     19  N   UNL     1       8.018   3.492  25.439  0.00  0.00    -0.216 NA
ATOM     20  C   UNL     1       8.274   4.829  25.333  0.00  0.00    +0.225 A 
ATOM     21  N   UNL     1       9.277   5.442  24.693  0.00  0.00    -0.219 NA
ATOM     22  C   UNL     1      10.053   4.701  23.881  0.00  0.00    +0.147 A 
ATOM     23  N   UNL     1      11.036   5.388  23.180  0.00  0.00    -0.341 N 
ATOM     24  H   UNL     1      11.168   5.023  22.244  0.00  0.00    +0.144 HD
ATOM     25  H   UNL     1      10.882   6.386  23.259  0.00  0.00    +0.144 HD
ATOM     26  C   UNL     1       9.765   3.331  23.735  0.00  0.00    +0.147 A 
ATOM     27  N   UNL     1      10.235   2.368  22.873  0.00  0.00    -0.231 NA
ATOM     28  C   UNL     1       9.584   1.271  23.201  0.00  0.00    +0.203 A 
ENDBRANCH  15  17
BRANCH  14  29
ATOM     29  O   UNL     1       5.877   0.923  25.842  0.00  0.00    -0.385 OA
ATOM     30  H   UNL     1       5.282   0.239  26.197  0.00  0.00    +0.210 HD
ENDBRANCH  14  29
BRANCH  13  31
ATOM     31  O   UNL     1       5.900  -1.619  23.497  0.00  0.00    -0.386 OA
ATOM     32  H   UNL     1       5.281  -0.936  23.180  0.00  0.00    +0.210 HD
ENDBRANCH  13  31
ENDBRANCH  11  12
ENDBRANCH  10  11
ENDBRANCH   6  10
ENDBRANCH   5   6
ENDBRANCH   1   5
BRANCH   1  33
ATOM     33  O   UNL     1       6.200  -5.166  23.945  0.00  0.00    -0.186 OA
BRANCH  33  34
ATOM     34  P   UNL     1       4.561  -5.667  23.714  0.00  0.00    +0.492 P 
ATOM     35  O   UNL     1       4.545  -4.989  22.339  0.00  0.00    -0.226 OA
BRANCH  34  36
ATOM     36  O   UNL     1       5.037  -7.196  23.361  0.00  0.00    -0.302 OA
ATOM     37  H   UNL     1       5.762  -7.432  23.968  0.00  0.00    +0.222 HD
ENDBRANCH  34  36
BRANCH  34  38
ATOM     38  O   UNL     1       2.921  -6.168  23.482  0.00  0.00    -0.186 OA
BRANCH  38  39
ATOM     39  P   UNL     1       2.189  -7.396  24.146  0.00  0.00    +0.484 P 
ATOM     40  O   UNL     1       3.059  -8.415  24.809  0.00  0.00    -0.227 OA
BRANCH  39  41
ATOM     41  O   UNL     1       1.239  -8.036  23.035  0.00  0.00    -0.302 OA
ATOM     42  H   UNL     1       0.501  -8.490  23.486  0.00  0.00    +0.222 HD
ENDBRANCH  39  41
BRANCH  39  43
ATOM     43  O   UNL     1       1.119  -6.749  25.125  0.00  0.00    -0.280 OA
BRANCH  43  44
ATOM     44  C   UNL     1       1.473  -6.812  26.485  0.00  0.00    +0.224 C 
BRANCH  44  55
ATOM     45  N   UNL     1       4.958  -0.393  28.412  0.00  0.00    -0.329 N 
ATOM     46  H   UNL     1       5.014   0.314  27.704  0.00  0.00    +0.145 HD
ATOM     47  H   UNL     1       5.901  -0.735  28.648  0.00  0.00    +0.145 HD
ATOM     48  C   UNL     1       4.254  -1.415  27.925  0.00  0.00    +0.195 A 
ATOM     49  N   UNL     1       3.127  -1.095  27.244  0.00  0.00    -0.293 N 
ATOM     50  H   UNL     1       2.814  -0.139  27.170  0.00  0.00    +0.172 HD
ATOM     51  C   UNL     1       2.308  -2.045  26.731  0.00  0.00    +0.280 A 
ATOM     52  O   UNL     1       1.241  -1.769  26.176  0.00  0.00    -0.265 OA
ATOM     53  C   UNL     1       2.797  -3.448  26.915  0.00  0.00    +0.168 A 
ATOM     54  N   UNL     1       1.983  -4.468  26.509  0.00  0.00    -0.244 NA
ATOM     55  C   UNL     1       2.356  -5.663  26.826  0.00  0.00    +0.063 C 
ATOM     56  C   UNL     1       3.638  -6.029  27.574  0.00  0.00    +0.156 C 
ATOM     57  N   UNL     1       4.501  -4.898  27.691  0.00  0.00    -0.322 N 
ATOM     58  H   UNL     1       5.211  -4.915  28.416  0.00  0.00    +0.148 HD
ATOM     59  C   UNL     1       3.989  -3.621  27.534  0.00  0.00    +0.154 A 
ATOM     60  N   UNL     1       4.717  -2.610  28.069  0.00  0.00    -0.199 NA
ENDBRANCH  44  55
ENDBRANCH  43  44
ENDBRANCH  39  43
ENDBRANCH  38  39
ENDBRANCH  34  38
ENDBRANCH  33  34
ENDBRANCH   1  33
TORSDOF 19
ENDMDL
