MODEL 1
REMARK VINA RESULT:      -6.0      0.000      0.000
REMARK  Name = 
REMARK  2 active torsions:
REMARK  status: ('A' for Active; 'I' for Inactive)
REMARK    1  A    between atoms: C_5  and  C_7
REMARK    2  A    between atoms: C_7  and  C_8
REMARK                            x       y       z     vdW  Elec       q    Type
REMARK                         _______ _______ _______ _____ _____    ______ ____
ROOT
ATOM      1  N   UNL     1      10.144  -5.637  25.600  0.00  0.00    -0.291 N 
ATOM      2  H   UNL     1      10.721  -4.988  25.061  0.00  0.00    +0.254 HD
ATOM      3  H   UNL     1      10.665  -6.159  26.290  0.00  0.00    +0.254 HD
ATOM      4  C   UNL     1       8.947  -5.142  25.964  0.00  0.00    +0.375 C 
ATOM      5  N   UNL     1       8.446  -4.019  25.381  0.00  0.00    -0.175 N 
ATOM      6  H   UNL     1       7.534  -3.765  25.738  0.00  0.00    +0.254 HD
ATOM      7  C   UNL     1       9.057  -3.222  24.429  0.00  0.00    +0.280 C 
ATOM      8  O   UNL     1      10.219  -3.377  24.054  0.00  0.00    -0.257 OA
ATOM      9  N   UNL     1       8.204  -5.668  26.864  0.00  0.00    -0.131 NA
ATOM     10  H   UNL     1       8.659  -6.517  27.209  0.00  0.00    +0.306 HD
ENDROOT
BRANCH   7  11
ATOM     11  C   UNL     1       8.180  -2.093  23.917  0.00  0.00    +0.152 C 
BRANCH  11  12
ATOM     12  C   UNL     1       8.922  -0.777  23.857  0.00  0.00    -0.001 A 
ATOM     13  C   UNL     1       9.433  -0.283  22.640  0.00  0.00    +0.046 A 
ATOM     14 CL   UNL     1       9.293  -1.165  21.158  0.00  0.00    -0.083 Cl
ATOM     15  C   UNL     1      10.084   0.955  22.574  0.00  0.00    +0.020 A 
ATOM     16  C   UNL     1      10.239   1.728  23.719  0.00  0.00    +0.003 A 
ATOM     17  C   UNL     1       9.740   1.262  24.933  0.00  0.00    +0.020 A 
ATOM     18  C   UNL     1       9.085   0.027  25.002  0.00  0.00    +0.046 A 
ATOM     19 CL   UNL     1       8.500  -0.454  26.557  0.00  0.00    -0.083 Cl
ENDBRANCH  11  12
ENDBRANCH   7  11
TORSDOF 2
ENDMDL
MODEL 2
REMARK VINA RESULT:      -6.0      0.125      2.364
REMARK  Name = 
REMARK  2 active torsions:
REMARK  status: ('A' for Active; 'I' for Inactive)
REMARK    1  A    between atoms: C_5  and  C_7
REMARK    2  A    between atoms: C_7  and  C_8
REMARK                            x       y       z     vdW  Elec       q    Type
REMARK                         _______ _______ _______ _____ _____    ______ ____
ROOT
ATOM      1  N   UNL     1      10.139  -5.642  25.609  0.00  0.00    -0.291 N 
ATOM      2  H   UNL     1      10.707  -5.003  25.049  0.00  0.00    +0.254 HD
ATOM      3  H   UNL     1      10.673  -6.164  26.289  0.00  0.00    +0.254 HD
ATOM      4  C   UNL     1       8.957  -5.131  26.003  0.00  0.00    +0.375 C 
ATOM      5  N   UNL     1       8.451  -4.007  25.426  0.00  0.00    -0.175 N 
ATOM      6  H   UNL     1       7.553  -3.742  25.805  0.00  0.00    +0.254 HD
ATOM      7  C   UNL     1       9.044  -3.225  24.450  0.00  0.00    +0.280 C 
ATOM      8  O   UNL     1      10.194  -3.394  24.044  0.00  0.00    -0.257 OA
ATOM      9  N   UNL     1       8.234  -5.642  26.928  0.00  0.00    -0.131 NA
ATOM     10  H   UNL     1       8.690  -6.493  27.267  0.00  0.00    +0.306 HD
ENDROOT
BRANCH   7  11
ATOM     11  C   UNL     1       8.165  -2.091  23.954  0.00  0.00    +0.152 C 
BRANCH  11  12
ATOM     12  C   UNL     1       8.926  -0.790  23.832  0.00  0.00    -0.001 A 
ATOM     13  C   UNL     1       9.212  -0.003  24.965  0.00  0.00    +0.046 A 
ATOM     14 CL   UNL     1       8.672  -0.442  26.549  0.00  0.00    -0.083 Cl
ATOM     15  C   UNL     1       9.953   1.181  24.860  0.00  0.00    +0.020 A 
ATOM     16  C   UNL     1      10.425   1.606  23.623  0.00  0.00    +0.003 A 
ATOM     17  C   UNL     1      10.157   0.843  22.489  0.00  0.00    +0.020 A 
ATOM     18  C   UNL     1       9.421  -0.343  22.590  0.00  0.00    +0.046 A 
ATOM     19 CL   UNL     1       9.150  -1.215  21.122  0.00  0.00    -0.083 Cl
ENDBRANCH  11  12
ENDBRANCH   7  11
TORSDOF 2
ENDMDL
MODEL 3
REMARK VINA RESULT:      -5.7      5.653      7.112
REMARK  Name = 
REMARK  2 active torsions:
REMARK  status: ('A' for Active; 'I' for Inactive)
REMARK    1  A    between atoms: C_5  and  C_7
REMARK    2  A    between atoms: C_7  and  C_8
REMARK                            x       y       z     vdW  Elec       q    Type
REMARK                         _______ _______ _______ _____ _____    ______ ____
ROOT
ATOM      1  N   UNL     1      12.303   6.208  24.182  0.00  0.00    -0.291 N 
ATOM      2  H   UNL     1      11.394   6.004  24.605  0.00  0.00    +0.254 HD
ATOM      3  H   UNL     1      12.924   6.719  24.793  0.00  0.00    +0.254 HD
ATOM      4  C   UNL     1      12.824   5.190  23.473  0.00  0.00    +0.375 C 
ATOM      5  N   UNL     1      12.055   4.133  23.094  0.00  0.00    -0.175 N 
ATOM      6  H   UNL     1      12.567   3.448  22.555  0.00  0.00    +0.254 HD
ATOM      7  C   UNL     1      10.723   3.911  23.397  0.00  0.00    +0.280 C 
ATOM      8  O   UNL     1      10.072   4.618  24.167  0.00  0.00    -0.257 OA
ATOM      9  N   UNL     1      14.050   5.131  23.108  0.00  0.00    -0.131 NA
ATOM     10  H   UNL     1      14.523   5.985  23.415  0.00  0.00    +0.306 HD
ENDROOT
BRANCH   7  11
ATOM     11  C   UNL     1      10.138   2.677  22.735  0.00  0.00    +0.152 C 
BRANCH  11  12
ATOM     12  C   UNL     1       9.061   2.032  23.578  0.00  0.00    -0.001 A 
ATOM     13  C   UNL     1       7.699   2.339  23.381  0.00  0.00    +0.046 A 
ATOM     14 CL   UNL     1       7.179   3.500  22.209  0.00  0.00    -0.083 Cl
ATOM     15  C   UNL     1       6.697   1.713  24.133  0.00  0.00    +0.020 A 
ATOM     16  C   UNL     1       7.030   0.767  25.096  0.00  0.00    +0.003 A 
ATOM     17  C   UNL     1       8.368   0.446  25.307  0.00  0.00    +0.020 A 
ATOM     18  C   UNL     1       9.373   1.066  24.555  0.00  0.00    +0.046 A 
ATOM     19 CL   UNL     1      11.001   0.590  24.894  0.00  0.00    -0.083 Cl
ENDBRANCH  11  12
ENDBRANCH   7  11
TORSDOF 2
ENDMDL
MODEL 4
REMARK VINA RESULT:      -5.7      5.618      7.197
REMARK  Name = 
REMARK  2 active torsions:
REMARK  status: ('A' for Active; 'I' for Inactive)
REMARK    1  A    between atoms: C_5  and  C_7
REMARK    2  A    between atoms: C_7  and  C_8
REMARK                            x       y       z     vdW  Elec       q    Type
REMARK                         _______ _______ _______ _____ _____    ______ ____
ROOT
ATOM      1  N   UNL     1      12.143   6.185  24.180  0.00  0.00    -0.291 N 
ATOM      2  H   UNL     1      11.238   5.950  24.593  0.00  0.00    +0.254 HD
ATOM      3  H   UNL     1      12.738   6.721  24.796  0.00  0.00    +0.254 HD
ATOM      4  C   UNL     1      12.709   5.183  23.481  0.00  0.00    +0.375 C 
ATOM      5  N   UNL     1      11.983   4.098  23.098  0.00  0.00    -0.175 N 
ATOM      6  H   UNL     1      12.526   3.430  22.568  0.00  0.00    +0.254 HD
ATOM      7  C   UNL     1      10.656   3.831  23.386  0.00  0.00    +0.280 C 
ATOM      8  O   UNL     1       9.970   4.517  24.145  0.00  0.00    -0.257 OA
ATOM      9  N   UNL     1      13.941   5.167  23.132  0.00  0.00    -0.131 NA
ATOM     10  H   UNL     1      14.380   6.038  23.441  0.00  0.00    +0.306 HD
ENDROOT
BRANCH   7  11
ATOM     11  C   UNL     1      10.123   2.573  22.722  0.00  0.00    +0.152 C 
BRANCH  11  12
ATOM     12  C   UNL     1       9.022   1.924  23.530  0.00  0.00    -0.001 A 
ATOM     13  C   UNL     1       9.316   1.008  24.559  0.00  0.00    +0.046 A 
ATOM     14 CL   UNL     1      10.936   0.529  24.929  0.00  0.00    -0.083 Cl
ATOM     15  C   UNL     1       8.299   0.437  25.335  0.00  0.00    +0.020 A 
ATOM     16  C   UNL     1       6.970   0.767  25.103  0.00  0.00    +0.003 A 
ATOM     17  C   UNL     1       6.655   1.673  24.094  0.00  0.00    +0.020 A 
ATOM     18  C   UNL     1       7.667   2.249  23.318  0.00  0.00    +0.046 A 
ATOM     19 CL   UNL     1       7.167   3.364  22.095  0.00  0.00    -0.083 Cl
ENDBRANCH  11  12
ENDBRANCH   7  11
TORSDOF 2
ENDMDL
MODEL 5
REMARK VINA RESULT:      -5.6      3.269      5.224
REMARK  Name = 
REMARK  2 active torsions:
REMARK  status: ('A' for Active; 'I' for Inactive)
REMARK    1  A    between atoms: C_5  and  C_7
REMARK    2  A    between atoms: C_7  and  C_8
REMARK                            x       y       z     vdW  Elec       q    Type
REMARK                         _______ _______ _______ _____ _____    ______ ____
ROOT
ATOM      1  N   UNL     1      10.147  -5.299  25.949  0.00  0.00    -0.291 N 
ATOM      2  H   UNL     1      10.576  -4.575  25.369  0.00  0.00    +0.254 HD
ATOM      3  H   UNL     1      10.635  -5.459  26.818  0.00  0.00    +0.254 HD
ATOM      4  C   UNL     1       8.802  -5.252  25.987  0.00  0.00    +0.375 C 
ATOM      5  N   UNL     1       8.100  -4.522  25.078  0.00  0.00    -0.175 N 
ATOM      6  H   UNL     1       7.100  -4.586  25.213  0.00  0.00    +0.254 HD
ATOM      7  C   UNL     1       8.608  -3.719  24.072  0.00  0.00    +0.280 C 
ATOM      8  O   UNL     1       9.806  -3.471  23.936  0.00  0.00    -0.257 OA
ATOM      9  N   UNL     1       8.093  -5.870  26.856  0.00  0.00    -0.131 NA
ATOM     10  H   UNL     1       8.717  -6.408  27.463  0.00  0.00    +0.306 HD
ENDROOT
BRANCH   7  11
ATOM     11  C   UNL     1       7.545  -3.116  23.170  0.00  0.00    +0.152 C 
BRANCH  11  12
ATOM     12  C   UNL     1       6.223  -3.841  23.283  0.00  0.00    -0.001 A 
ATOM     13  C   UNL     1       5.164  -3.312  24.046  0.00  0.00    +0.046 A 
ATOM     14 CL   UNL     1       5.321  -1.840  24.941  0.00  0.00    -0.083 Cl
ATOM     15  C   UNL     1       3.925  -3.961  24.118  0.00  0.00    +0.020 A 
ATOM     16  C   UNL     1       3.715  -5.150  23.430  0.00  0.00    +0.003 A 
ATOM     17  C   UNL     1       4.746  -5.691  22.666  0.00  0.00    +0.020 A 
ATOM     18  C   UNL     1       5.984  -5.044  22.588  0.00  0.00    +0.046 A 
ATOM     19 CL   UNL     1       7.193  -5.798  21.607  0.00  0.00    -0.083 Cl
ENDBRANCH  11  12
ENDBRANCH   7  11
TORSDOF 2
ENDMDL
MODEL 6
REMARK VINA RESULT:      -5.5      3.239      4.773
REMARK  Name = 
REMARK  2 active torsions:
REMARK  status: ('A' for Active; 'I' for Inactive)
REMARK    1  A    between atoms: C_5  and  C_7
REMARK    2  A    between atoms: C_7  and  C_8
REMARK                            x       y       z     vdW  Elec       q    Type
REMARK                         _______ _______ _______ _____ _____    ______ ____
ROOT
ATOM      1  N   UNL     1      10.106  -5.325  25.958  0.00  0.00    -0.291 N 
ATOM      2  H   UNL     1      10.559  -4.609  25.386  0.00  0.00    +0.254 HD
ATOM      3  H   UNL     1      10.577  -5.496  26.835  0.00  0.00    +0.254 HD
ATOM      4  C   UNL     1       8.762  -5.250  25.976  0.00  0.00    +0.375 C 
ATOM      5  N   UNL     1       8.089  -4.504  25.058  0.00  0.00    -0.175 N 
ATOM      6  H   UNL     1       7.086  -4.547  25.177  0.00  0.00    +0.254 HD
ATOM      7  C   UNL     1       8.629  -3.709  24.062  0.00  0.00    +0.280 C 
ATOM      8  O   UNL     1       9.835  -3.487  23.945  0.00  0.00    -0.257 OA
ATOM      9  N   UNL     1       8.027  -5.854  26.833  0.00  0.00    -0.131 NA
ATOM     10  H   UNL     1       8.630  -6.407  27.448  0.00  0.00    +0.306 HD
ENDROOT
BRANCH   7  11
ATOM     11  C   UNL     1       7.594  -3.083  23.145  0.00  0.00    +0.152 C 
BRANCH  11  12
ATOM     12  C   UNL     1       6.254  -3.779  23.237  0.00  0.00    -0.001 A 
ATOM     13  C   UNL     1       6.018  -4.999  22.573  0.00  0.00    +0.046 A 
ATOM     14 CL   UNL     1       7.216  -5.748  21.573  0.00  0.00    -0.083 Cl
ATOM     15  C   UNL     1       4.792  -5.665  22.690  0.00  0.00    +0.020 A 
ATOM     16  C   UNL     1       3.776  -5.131  23.474  0.00  0.00    +0.003 A 
ATOM     17  C   UNL     1       3.987  -3.928  24.143  0.00  0.00    +0.020 A 
ATOM     18  C   UNL     1       5.212  -3.261  24.031  0.00  0.00    +0.046 A 
ATOM     19 CL   UNL     1       5.369  -1.778  24.907  0.00  0.00    -0.083 Cl
ENDBRANCH  11  12
ENDBRANCH   7  11
TORSDOF 2
ENDMDL
MODEL 7
REMARK VINA RESULT:      -5.5      1.748      1.982
REMARK  Name = 
REMARK  2 active torsions:
REMARK  status: ('A' for Active; 'I' for Inactive)
REMARK    1  A    between atoms: C_5  and  C_7
REMARK    2  A    between atoms: C_7  and  C_8
REMARK                            x       y       z     vdW  Elec       q    Type
REMARK                         _______ _______ _______ _____ _____    ______ ____
ROOT
ATOM      1  N   UNL     1      10.125  -5.267  25.985  0.00  0.00    -0.291 N 
ATOM      2  H   UNL     1      10.578  -4.519  25.456  0.00  0.00    +0.254 HD
ATOM      3  H   UNL     1      10.552  -5.438  26.884  0.00  0.00    +0.254 HD
ATOM      4  C   UNL     1       8.781  -5.250  25.925  0.00  0.00    +0.375 C 
ATOM      5  N   UNL     1       8.129  -4.513  24.985  0.00  0.00    -0.175 N 
ATOM      6  H   UNL     1       7.124  -4.602  25.044  0.00  0.00    +0.254 HD
ATOM      7  C   UNL     1       8.690  -3.673  24.039  0.00  0.00    +0.280 C 
ATOM      8  O   UNL     1       9.889  -3.396  23.998  0.00  0.00    -0.257 OA
ATOM      9  N   UNL     1       8.025  -5.906  26.725  0.00  0.00    -0.131 NA
ATOM     10  H   UNL     1       8.615  -6.446  27.364  0.00  0.00    +0.306 HD
ENDROOT
BRANCH   7  11
ATOM     11  C   UNL     1       7.683  -3.071  23.076  0.00  0.00    +0.152 C 
BRANCH  11  12
ATOM     12  C   UNL     1       7.482  -1.591  23.311  0.00  0.00    -0.001 A 
ATOM     13  C   UNL     1       8.240  -0.632  22.611  0.00  0.00    +0.046 A 
ATOM     14 CL   UNL     1       9.475  -1.079  21.485  0.00  0.00    -0.083 Cl
ATOM     15  C   UNL     1       8.027   0.740  22.797  0.00  0.00    +0.020 A 
ATOM     16  C   UNL     1       7.054   1.185  23.684  0.00  0.00    +0.003 A 
ATOM     17  C   UNL     1       6.290   0.256  24.385  0.00  0.00    +0.020 A 
ATOM     18  C   UNL     1       6.496  -1.116  24.200  0.00  0.00    +0.046 A 
ATOM     19 CL   UNL     1       5.490  -2.183  25.116  0.00  0.00    -0.083 Cl
ENDBRANCH  11  12
ENDBRANCH   7  11
TORSDOF 2
ENDMDL
MODEL 8
REMARK VINA RESULT:      -5.5      1.545      1.796
REMARK  Name = 
REMARK  2 active torsions:
REMARK  status: ('A' for Active; 'I' for Inactive)
REMARK    1  A    between atoms: C_5  and  C_7
REMARK    2  A    between atoms: C_7  and  C_8
REMARK                            x       y       z     vdW  Elec       q    Type
REMARK                         _______ _______ _______ _____ _____    ______ ____
ROOT
ATOM      1  N   UNL     1       8.407  -5.745  26.794  0.00  0.00    -0.291 N 
ATOM      2  H   UNL     1       7.434  -5.454  26.913  0.00  0.00    +0.254 HD
ATOM      3  H   UNL     1       8.548  -6.738  26.911  0.00  0.00    +0.254 HD
ATOM      4  C   UNL     1       9.044  -5.140  25.774  0.00  0.00    +0.375 C 
ATOM      5  N   UNL     1       8.530  -4.024  25.189  0.00  0.00    -0.175 N 
ATOM      6  H   UNL     1       9.115  -3.666  24.447  0.00  0.00    +0.254 HD
ATOM      7  C   UNL     1       7.331  -3.398  25.482  0.00  0.00    +0.280 C 
ATOM      8  O   UNL     1       6.497  -3.853  26.265  0.00  0.00    -0.257 OA
ATOM      9  N   UNL     1      10.150  -5.555  25.281  0.00  0.00    -0.131 NA
ATOM     10  H   UNL     1      10.459  -6.373  25.812  0.00  0.00    +0.306 HD
ENDROOT
BRANCH   7  11
ATOM     11  C   UNL     1       7.102  -2.114  24.706  0.00  0.00    +0.152 C 
BRANCH  11  12
ATOM     12  C   UNL     1       8.378  -1.326  24.517  0.00  0.00    -0.001 A 
ATOM     13  C   UNL     1       9.045  -1.305  23.275  0.00  0.00    +0.046 A 
ATOM     14 CL   UNL     1       8.483  -2.212  21.914  0.00  0.00    -0.083 Cl
ATOM     15  C   UNL     1      10.205  -0.543  23.086  0.00  0.00    +0.020 A 
ATOM     16  C   UNL     1      10.724   0.215  24.129  0.00  0.00    +0.003 A 
ATOM     17  C   UNL     1      10.081   0.213  25.364  0.00  0.00    +0.020 A 
ATOM     18  C   UNL     1       8.919  -0.543  25.556  0.00  0.00    +0.046 A 
ATOM     19 CL   UNL     1       8.198  -0.471  27.127  0.00  0.00    -0.083 Cl
ENDBRANCH  11  12
ENDBRANCH   7  11
TORSDOF 2
ENDMDL
MODEL 9
REMARK VINA RESULT:      -5.5      5.378      6.874
REMARK  Name = 
REMARK  2 active torsions:
REMARK  status: ('A' for Active; 'I' for Inactive)
REMARK    1  A    between atoms: C_5  and  C_7
REMARK    2  A    between atoms: C_7  and  C_8
REMARK                            x       y       z     vdW  Elec       q    Type
REMARK                         _______ _______ _______ _____ _____    ______ ____
ROOT
ATOM      1  N   UNL     1       5.846   5.325  22.378  0.00  0.00    -0.291 N 
ATOM      2  H   UNL     1       5.467   4.436  22.710  0.00  0.00    +0.254 HD
ATOM      3  H   UNL     1       5.506   6.124  22.893  0.00  0.00    +0.254 HD
ATOM      4  C   UNL     1       7.158   5.290  22.077  0.00  0.00    +0.375 C 
ATOM      5  N   UNL     1       7.810   4.106  21.920  0.00  0.00    -0.175 N 
ATOM      6  H   UNL     1       8.785   4.223  21.682  0.00  0.00    +0.254 HD
ATOM      7  C   UNL     1       7.291   2.833  22.085  0.00  0.00    +0.280 C 
ATOM      8  O   UNL     1       6.160   2.607  22.516  0.00  0.00    -0.257 OA
ATOM      9  N   UNL     1       7.880   6.335  21.921  0.00  0.00    -0.131 NA
ATOM     10  H   UNL     1       7.287   7.162  22.029  0.00  0.00    +0.306 HD
ENDROOT
BRANCH   7  11
ATOM     11  C   UNL     1       8.266   1.722  21.737  0.00  0.00    +0.152 C 
BRANCH  11  12
ATOM     12  C   UNL     1       8.840   1.060  22.970  0.00  0.00    -0.001 A 
ATOM     13  C   UNL     1       8.245  -0.091  23.524  0.00  0.00    +0.046 A 
ATOM     14 CL   UNL     1       6.802  -0.786  22.869  0.00  0.00    -0.083 Cl
ATOM     15  C   UNL     1       8.799  -0.730  24.640  0.00  0.00    +0.020 A 
ATOM     16  C   UNL     1       9.958  -0.236  25.228  0.00  0.00    +0.003 A 
ATOM     17  C   UNL     1      10.566   0.898  24.696  0.00  0.00    +0.020 A 
ATOM     18  C   UNL     1      10.018   1.537  23.578  0.00  0.00    +0.046 A 
ATOM     19 CL   UNL     1      10.856   2.934  22.996  0.00  0.00    -0.083 Cl
ENDBRANCH  11  12
ENDBRANCH   7  11
TORSDOF 2
ENDMDL
