MODEL 1
REMARK VINA RESULT:      -4.2      0.000      0.000
REMARK  Name = 
REMARK  8 active torsions:
REMARK  status: ('A' for Active; 'I' for Inactive)
REMARK    1  A    between atoms: C_1  and  C_2
REMARK    2  A    between atoms: C_2  and  C_4
REMARK    3  A    between atoms: C_2  and  CA_8
REMARK    4  A    between atoms: C_4  and  C_5
REMARK    5  A    between atoms: C_5  and  O_6
REMARK    6  A    between atoms: CA_8  and  N_10
REMARK    7  A    between atoms: CA_8  and  C_11
REMARK    8  A    between atoms: C_11  and  O_12
REMARK                            x       y       z     vdW  Elec       q    Type
REMARK                         _______ _______ _______ _____ _____    ______ ____
ROOT
ATOM      1  CA  UNL     1       7.906  -4.860  26.043  0.00  0.00    +0.164 C 
ENDROOT
BRANCH   1   2
ATOM      2  N   UNL     1       8.015  -5.714  27.265  0.00  0.00    -0.318 NA
ATOM      3  H1  UNL     1       7.221  -5.489  27.873  0.00  0.00    +0.119 HD
ATOM      4  H2  UNL     1       7.846  -6.687  26.999  0.00  0.00    +0.119 HD
ENDBRANCH   1   2
BRANCH   1   6
ATOM      5  C   UNL     1       5.607  -5.996  25.929  0.00  0.00    +0.010 C 
ATOM      6  C   UNL     1       6.694  -5.231  25.154  0.00  0.00    +0.024 C 
BRANCH   6   7
ATOM      7  C   UNL     1       6.109  -3.965  24.493  0.00  0.00    +0.125 C 
BRANCH   7   8
ATOM      8  C   UNL     1       6.087  -4.021  22.982  0.00  0.00    +0.305 C 
ATOM      9  O   UNL     1       5.078  -4.049  22.297  0.00  0.00    -0.251 OA
BRANCH   8  10
ATOM     10  O   UNL     1       7.327  -4.082  22.443  0.00  0.00    -0.481 OA
ATOM     11  H   UNL     1       7.375  -3.857  21.496  0.00  0.00    +0.295 HD
ENDBRANCH   8  10
ENDBRANCH   7   8
ENDBRANCH   6   7
ENDBRANCH   1   6
BRANCH   1  12
ATOM     12  C   UNL     1       9.226  -4.979  25.258  0.00  0.00    +0.322 C 
ATOM     13  OXT UNL     1       9.634  -4.166  24.446  0.00  0.00    -0.249 OA
BRANCH  12  14
ATOM     14  O   UNL     1       9.895  -6.114  25.590  0.00  0.00    -0.480 OA
ATOM     15  H   UNL     1      10.423  -5.909  26.399  0.00  0.00    +0.295 HD
ENDBRANCH  12  14
ENDBRANCH   1  12
TORSDOF 7
ENDMDL
MODEL 2
REMARK VINA RESULT:      -4.1      2.670      3.299
REMARK  Name = 
REMARK  8 active torsions:
REMARK  status: ('A' for Active; 'I' for Inactive)
REMARK    1  A    between atoms: C_1  and  C_2
REMARK    2  A    between atoms: C_2  and  C_4
REMARK    3  A    between atoms: C_2  and  CA_8
REMARK    4  A    between atoms: C_4  and  C_5
REMARK    5  A    between atoms: C_5  and  O_6
REMARK    6  A    between atoms: CA_8  and  N_10
REMARK    7  A    between atoms: CA_8  and  C_11
REMARK    8  A    between atoms: C_11  and  O_12
REMARK                            x       y       z     vdW  Elec       q    Type
REMARK                         _______ _______ _______ _____ _____    ______ ____
ROOT
ATOM      1  CA  UNL     1       8.781  -4.732  24.746  0.00  0.00    +0.164 C 
ENDROOT
BRANCH   1   2
ATOM      2  N   UNL     1      10.155  -5.165  25.148  0.00  0.00    -0.318 NA
ATOM      3  H1  UNL     1      10.718  -5.241  24.295  0.00  0.00    +0.119 HD
ATOM      4  H2  UNL     1      10.599  -4.400  25.662  0.00  0.00    +0.119 HD
ENDBRANCH   1   2
BRANCH   1   6
ATOM      5  C   UNL     1       8.562  -2.539  26.062  0.00  0.00    +0.010 C 
ATOM      6  C   UNL     1       8.631  -3.193  24.671  0.00  0.00    +0.024 C 
BRANCH   6   7
ATOM      7  C   UNL     1       9.777  -2.585  23.835  0.00  0.00    +0.125 C 
BRANCH   7   8
ATOM      8  C   UNL     1       9.320  -1.973  22.530  0.00  0.00    +0.305 C 
ATOM      9  O   UNL     1       8.157  -1.836  22.190  0.00  0.00    -0.251 OA
BRANCH   8  10
ATOM     10  O   UNL     1      10.352  -1.619  21.729  0.00  0.00    -0.481 OA
ATOM     11  H   UNL     1      11.137  -1.279  22.196  0.00  0.00    +0.295 HD
ENDBRANCH   8  10
ENDBRANCH   7   8
ENDBRANCH   6   7
ENDBRANCH   1   6
BRANCH   1  12
ATOM     12  C   UNL     1       7.779  -5.339  25.745  0.00  0.00    +0.322 C 
ATOM     13  OXT UNL     1       6.567  -5.342  25.608  0.00  0.00    -0.249 OA
BRANCH  12  14
ATOM     14  O   UNL     1       8.417  -5.884  26.814  0.00  0.00    -0.480 OA
ATOM     15  H   UNL     1       9.386  -5.832  26.626  0.00  0.00    +0.295 HD
ENDBRANCH  12  14
ENDBRANCH   1  12
TORSDOF 7
ENDMDL
MODEL 3
REMARK VINA RESULT:      -4.1      5.445      6.360
REMARK  Name = 
REMARK  8 active torsions:
REMARK  status: ('A' for Active; 'I' for Inactive)
REMARK    1  A    between atoms: C_1  and  C_2
REMARK    2  A    between atoms: C_2  and  C_4
REMARK    3  A    between atoms: C_2  and  CA_8
REMARK    4  A    between atoms: C_4  and  C_5
REMARK    5  A    between atoms: C_5  and  O_6
REMARK    6  A    between atoms: CA_8  and  N_10
REMARK    7  A    between atoms: CA_8  and  C_11
REMARK    8  A    between atoms: C_11  and  O_12
REMARK                            x       y       z     vdW  Elec       q    Type
REMARK                         _______ _______ _______ _____ _____    ______ ____
ROOT
ATOM      1  CA  UNL     1      10.081  -1.339  23.089  0.00  0.00    +0.164 C 
ENDROOT
BRANCH   1   2
ATOM      2  N   UNL     1      10.114  -2.622  23.855  0.00  0.00    -0.318 NA
ATOM      3  H1  UNL     1      11.054  -3.020  23.754  0.00  0.00    +0.119 HD
ATOM      4  H2  UNL     1      10.050  -2.407  24.853  0.00  0.00    +0.119 HD
ENDBRANCH   1   2
BRANCH   1   6
ATOM      5  C   UNL     1       9.500  -0.499  25.445  0.00  0.00    +0.010 C 
ATOM      6  C   UNL     1       9.678  -0.126  23.962  0.00  0.00    +0.024 C 
BRANCH   6   7
ATOM      7  C   UNL     1      10.709   1.012  23.804  0.00  0.00    +0.125 C 
BRANCH   7   8
ATOM      8  C   UNL     1      10.187   2.205  23.035  0.00  0.00    +0.305 C 
ATOM      9  O   UNL     1       9.786   3.241  23.538  0.00  0.00    -0.251 OA
BRANCH   8  10
ATOM     10  O   UNL     1      10.164   1.996  21.699  0.00  0.00    -0.481 OA
ATOM     11  H   UNL     1      10.990   2.223  21.232  0.00  0.00    +0.295 HD
ENDBRANCH   8  10
ENDBRANCH   7   8
ENDBRANCH   6   7
ENDBRANCH   1   6
BRANCH   1  12
ATOM     12  C   UNL     1       9.113  -1.515  21.905  0.00  0.00    +0.322 C 
ATOM     13  OXT UNL     1       8.131  -2.238  21.903  0.00  0.00    -0.249 OA
BRANCH  12  14
ATOM     14  O   UNL     1       9.487  -0.750  20.845  0.00  0.00    -0.480 OA
ATOM     15  H   UNL     1       9.093  -1.166  20.040  0.00  0.00    +0.295 HD
ENDBRANCH  12  14
ENDBRANCH   1  12
TORSDOF 7
ENDMDL
MODEL 4
REMARK VINA RESULT:      -4.1      5.866      6.843
REMARK  Name = 
REMARK  8 active torsions:
REMARK  status: ('A' for Active; 'I' for Inactive)
REMARK    1  A    between atoms: C_1  and  C_2
REMARK    2  A    between atoms: C_2  and  C_4
REMARK    3  A    between atoms: C_2  and  CA_8
REMARK    4  A    between atoms: C_4  and  C_5
REMARK    5  A    between atoms: C_5  and  O_6
REMARK    6  A    between atoms: CA_8  and  N_10
REMARK    7  A    between atoms: CA_8  and  C_11
REMARK    8  A    between atoms: C_11  and  O_12
REMARK                            x       y       z     vdW  Elec       q    Type
REMARK                         _______ _______ _______ _____ _____    ______ ____
ROOT
ATOM      1  CA  UNL     1       8.962   1.380  23.652  0.00  0.00    +0.164 C 
ENDROOT
BRANCH   1   2
ATOM      2  N   UNL     1       9.021   2.262  24.857  0.00  0.00    -0.318 NA
ATOM      3  H1  UNL     1       9.905   2.072  25.339  0.00  0.00    +0.119 HD
ATOM      4  H2  UNL     1       9.121   3.232  24.546  0.00  0.00    +0.119 HD
ENDBRANCH   1   2
BRANCH   1   6
ATOM      5  C   UNL     1      11.223   0.675  24.642  0.00  0.00    +0.010 C 
ATOM      6  C   UNL     1      10.175   0.424  23.544  0.00  0.00    +0.024 C 
BRANCH   6   7
ATOM      7  C   UNL     1       9.701  -1.044  23.564  0.00  0.00    +0.125 C 
BRANCH   7   8
ATOM      8  C   UNL     1       9.209  -1.544  22.223  0.00  0.00    +0.305 C 
ATOM      9  O   UNL     1       8.360  -2.406  22.067  0.00  0.00    -0.251 OA
BRANCH   8  10
ATOM     10  O   UNL     1       9.847  -0.963  21.183  0.00  0.00    -0.481 OA
ATOM     11  H   UNL     1      10.369  -1.571  20.627  0.00  0.00    +0.295 HD
ENDBRANCH   8  10
ENDBRANCH   7   8
ENDBRANCH   6   7
ENDBRANCH   1   6
BRANCH   1  12
ATOM     12  C   UNL     1       8.853   2.280  22.407  0.00  0.00    +0.322 C 
ATOM     13  OXT UNL     1       7.979   3.108  22.215  0.00  0.00    -0.249 OA
BRANCH  12  14
ATOM     14  O   UNL     1       9.868   2.040  21.536  0.00  0.00    -0.480 OA
ATOM     15  H   UNL     1      10.686   2.420  21.938  0.00  0.00    +0.295 HD
ENDBRANCH  12  14
ENDBRANCH   1  12
TORSDOF 7
ENDMDL
MODEL 5
REMARK VINA RESULT:      -4.1      2.135      2.597
REMARK  Name = 
REMARK  8 active torsions:
REMARK  status: ('A' for Active; 'I' for Inactive)
REMARK    1  A    between atoms: C_1  and  C_2
REMARK    2  A    between atoms: C_2  and  C_4
REMARK    3  A    between atoms: C_2  and  CA_8
REMARK    4  A    between atoms: C_4  and  C_5
REMARK    5  A    between atoms: C_5  and  O_6
REMARK    6  A    between atoms: CA_8  and  N_10
REMARK    7  A    between atoms: CA_8  and  C_11
REMARK    8  A    between atoms: C_11  and  O_12
REMARK                            x       y       z     vdW  Elec       q    Type
REMARK                         _______ _______ _______ _____ _____    ______ ____
ROOT
ATOM      1  CA  UNL     1       8.698  -5.382  25.095  0.00  0.00    +0.164 C 
ENDROOT
BRANCH   1   2
ATOM      2  N   UNL     1      10.155  -5.112  24.903  0.00  0.00    -0.318 NA
ATOM      3  H1  UNL     1      10.622  -5.270  25.802  0.00  0.00    +0.119 HD
ATOM      4  H2  UNL     1      10.544  -5.841  24.299  0.00  0.00    +0.119 HD
ENDBRANCH   1   2
BRANCH   1   6
ATOM      5  C   UNL     1       8.437  -3.319  23.590  0.00  0.00    +0.010 C 
ATOM      6  C   UNL     1       7.806  -4.637  24.072  0.00  0.00    +0.024 C 
BRANCH   6   7
ATOM      7  C   UNL     1       7.480  -5.558  22.877  0.00  0.00    +0.125 C 
BRANCH   7   8
ATOM      8  C   UNL     1       6.020  -5.547  22.481  0.00  0.00    +0.305 C 
ATOM      9  O   UNL     1       5.477  -4.666  21.835  0.00  0.00    -0.251 OA
BRANCH   8  10
ATOM     10  O   UNL     1       5.341  -6.615  22.958  0.00  0.00    -0.481 OA
ATOM     11  H   UNL     1       5.821  -7.463  22.910  0.00  0.00    +0.295 HD
ENDBRANCH   8  10
ENDBRANCH   7   8
ENDBRANCH   6   7
ENDBRANCH   1   6
BRANCH   1  12
ATOM     12  C   UNL     1       8.327  -4.996  26.539  0.00  0.00    +0.322 C 
ATOM     13  OXT UNL     1       8.451  -3.882  27.020  0.00  0.00    -0.249 OA
BRANCH  12  14
ATOM     14  O   UNL     1       7.832  -6.061  27.222  0.00  0.00    -0.480 OA
ATOM     15  H   UNL     1       8.234  -6.869  26.821  0.00  0.00    +0.295 HD
ENDBRANCH  12  14
ENDBRANCH   1  12
TORSDOF 7
ENDMDL
MODEL 6
REMARK VINA RESULT:      -4.1      5.231      6.446
REMARK  Name = 
REMARK  8 active torsions:
REMARK  status: ('A' for Active; 'I' for Inactive)
REMARK    1  A    between atoms: C_1  and  C_2
REMARK    2  A    between atoms: C_2  and  C_4
REMARK    3  A    between atoms: C_2  and  CA_8
REMARK    4  A    between atoms: C_4  and  C_5
REMARK    5  A    between atoms: C_5  and  O_6
REMARK    6  A    between atoms: CA_8  and  N_10
REMARK    7  A    between atoms: CA_8  and  C_11
REMARK    8  A    between atoms: C_11  and  O_12
REMARK                            x       y       z     vdW  Elec       q    Type
REMARK                         _______ _______ _______ _____ _____    ______ ____
ROOT
ATOM      1  CA  UNL     1      10.198  -0.032  22.156  0.00  0.00    +0.164 C 
ENDROOT
BRANCH   1   2
ATOM      2  N   UNL     1       9.628  -1.160  21.359  0.00  0.00    -0.318 NA
ATOM      3  H1  UNL     1       9.425  -1.927  22.009  0.00  0.00    +0.119 HD
ATOM      4  H2  UNL     1       8.704  -0.883  21.018  0.00  0.00    +0.119 HD
ENDBRANCH   1   2
BRANCH   1   6
ATOM      5  C   UNL     1      10.509   0.927  24.517  0.00  0.00    +0.010 C 
ATOM      6  C   UNL     1      10.262  -0.335  23.673  0.00  0.00    +0.024 C 
BRANCH   6   7
ATOM      7  C   UNL     1       8.976  -1.056  24.128  0.00  0.00    +0.125 C 
BRANCH   7   8
ATOM      8  C   UNL     1       9.209  -2.468  24.618  0.00  0.00    +0.305 C 
ATOM      9  O   UNL     1       8.656  -2.975  25.580  0.00  0.00    -0.251 OA
BRANCH   8  10
ATOM     10  O   UNL     1      10.147  -3.124  23.896  0.00  0.00    -0.481 OA
ATOM     11  H   UNL     1       9.796  -3.769  23.255  0.00  0.00    +0.295 HD
ENDBRANCH   8  10
ENDBRANCH   7   8
ENDBRANCH   6   7
ENDBRANCH   1   6
BRANCH   1  12
ATOM     12  C   UNL     1       9.352   1.224  21.878  0.00  0.00    +0.322 C 
ATOM     13  OXT UNL     1       8.137   1.282  21.954  0.00  0.00    -0.249 OA
BRANCH  12  14
ATOM     14  O   UNL     1      10.136   2.281  21.537  0.00  0.00    -0.480 OA
ATOM     15  H   UNL     1      10.924   2.256  22.132  0.00  0.00    +0.295 HD
ENDBRANCH  12  14
ENDBRANCH   1  12
TORSDOF 7
ENDMDL
MODEL 7
REMARK VINA RESULT:      -4.0      5.911      6.785
REMARK  Name = 
REMARK  8 active torsions:
REMARK  status: ('A' for Active; 'I' for Inactive)
REMARK    1  A    between atoms: C_1  and  C_2
REMARK    2  A    between atoms: C_2  and  C_4
REMARK    3  A    between atoms: C_2  and  CA_8
REMARK    4  A    between atoms: C_4  and  C_5
REMARK    5  A    between atoms: C_5  and  O_6
REMARK    6  A    between atoms: CA_8  and  N_10
REMARK    7  A    between atoms: CA_8  and  C_11
REMARK    8  A    between atoms: C_11  and  O_12
REMARK                            x       y       z     vdW  Elec       q    Type
REMARK                         _______ _______ _______ _____ _____    ______ ____
ROOT
ATOM      1  CA  UNL     1       9.805   1.234  22.592  0.00  0.00    +0.164 C 
ENDROOT
BRANCH   1   2
ATOM      2  N   UNL     1       9.701   2.239  21.491  0.00  0.00    -0.318 NA
ATOM      3  H1  UNL     1      10.354   1.959  20.752  0.00  0.00    +0.119 HD
ATOM      4  H2  UNL     1       8.783   2.145  21.049  0.00  0.00    +0.119 HD
ENDBRANCH   1   2
BRANCH   1   6
ATOM      5  C   UNL     1       7.252   1.391  22.373  0.00  0.00    +0.010 C 
ATOM      6  C   UNL     1       8.438   0.621  22.980  0.00  0.00    +0.024 C 
BRANCH   6   7
ATOM      7  C   UNL     1       8.387  -0.868  22.579  0.00  0.00    +0.125 C 
BRANCH   7   8
ATOM      8  C   UNL     1       9.669  -1.620  22.860  0.00  0.00    +0.305 C 
ATOM      9  O   UNL     1      10.062  -1.942  23.969  0.00  0.00    -0.251 OA
BRANCH   8  10
ATOM     10  O   UNL     1      10.384  -1.872  21.740  0.00  0.00    -0.481 OA
ATOM     11  H   UNL     1      10.620  -1.085  21.216  0.00  0.00    +0.295 HD
ENDBRANCH   8  10
ENDBRANCH   7   8
ENDBRANCH   6   7
ENDBRANCH   1   6
BRANCH   1  12
ATOM     12  C   UNL     1      10.468   1.918  23.802  0.00  0.00    +0.322 C 
ATOM     13  OXT UNL     1      10.999   3.016  23.782  0.00  0.00    -0.249 OA
BRANCH  12  14
ATOM     14  O   UNL     1      10.386   1.142  24.914  0.00  0.00    -0.480 OA
ATOM     15  H   UNL     1       9.823   1.629  25.562  0.00  0.00    +0.295 HD
ENDBRANCH  12  14
ENDBRANCH   1  12
TORSDOF 7
ENDMDL
MODEL 8
REMARK VINA RESULT:      -3.9      4.878      5.532
REMARK  Name = 
REMARK  8 active torsions:
REMARK  status: ('A' for Active; 'I' for Inactive)
REMARK    1  A    between atoms: C_1  and  C_2
REMARK    2  A    between atoms: C_2  and  C_4
REMARK    3  A    between atoms: C_2  and  CA_8
REMARK    4  A    between atoms: C_4  and  C_5
REMARK    5  A    between atoms: C_5  and  O_6
REMARK    6  A    between atoms: CA_8  and  N_10
REMARK    7  A    between atoms: CA_8  and  C_11
REMARK    8  A    between atoms: C_11  and  O_12
REMARK                            x       y       z     vdW  Elec       q    Type
REMARK                         _______ _______ _______ _____ _____    ______ ____
ROOT
ATOM      1  CA  UNL     1       9.468  -1.110  24.880  0.00  0.00    +0.164 C 
ENDROOT
BRANCH   1   2
ATOM      2  N   UNL     1       8.683  -1.521  26.084  0.00  0.00    -0.318 NA
ATOM      3  H1  UNL     1       7.696  -1.567  25.811  0.00  0.00    +0.119 HD
ATOM      4  H2  UNL     1       8.916  -2.492  26.308  0.00  0.00    +0.119 HD
ENDBRANCH   1   2
BRANCH   1   6
ATOM      5  C   UNL     1       8.139   1.064  25.188  0.00  0.00    +0.010 C 
ATOM      6  C   UNL     1       8.913   0.168  24.206  0.00  0.00    +0.024 C 
BRANCH   6   7
ATOM      7  C   UNL     1      10.056   0.955  23.531  0.00  0.00    +0.125 C 
BRANCH   7   8
ATOM      8  C   UNL     1       9.882   1.124  22.038  0.00  0.00    +0.305 C 
ATOM      9  O   UNL     1       9.473   0.260  21.279  0.00  0.00    -0.251 OA
BRANCH   8  10
ATOM     10  O   UNL     1      10.272   2.343  21.600  0.00  0.00    -0.481 OA
ATOM     11  H   UNL     1      10.222   3.054  22.265  0.00  0.00    +0.295 HD
ENDBRANCH   8  10
ENDBRANCH   7   8
ENDBRANCH   6   7
ENDBRANCH   1   6
BRANCH   1  12
ATOM     12  C   UNL     1       9.484  -2.293  23.895  0.00  0.00    +0.322 C 
ATOM     13  OXT UNL     1      10.196  -3.279  23.995  0.00  0.00    -0.249 OA
BRANCH  12  14
ATOM     14  O   UNL     1       8.593  -2.107  22.886  0.00  0.00    -0.480 OA
ATOM     15  H   UNL     1       8.661  -1.160  22.615  0.00  0.00    +0.295 HD
ENDBRANCH  12  14
ENDBRANCH   1  12
TORSDOF 7
ENDMDL
MODEL 9
REMARK VINA RESULT:      -3.9      4.265      5.432
REMARK  Name = 
REMARK  8 active torsions:
REMARK  status: ('A' for Active; 'I' for Inactive)
REMARK    1  A    between atoms: C_1  and  C_2
REMARK    2  A    between atoms: C_2  and  C_4
REMARK    3  A    between atoms: C_2  and  CA_8
REMARK    4  A    between atoms: C_4  and  C_5
REMARK    5  A    between atoms: C_5  and  O_6
REMARK    6  A    between atoms: CA_8  and  N_10
REMARK    7  A    between atoms: CA_8  and  C_11
REMARK    8  A    between atoms: C_11  and  O_12
REMARK                            x       y       z     vdW  Elec       q    Type
REMARK                         _______ _______ _______ _____ _____    ______ ____
ROOT
ATOM      1  CA  UNL     1       9.378  -1.501  23.096  0.00  0.00    +0.164 C 
ENDROOT
BRANCH   1   2
ATOM      2  N   UNL     1      10.350  -1.549  21.961  0.00  0.00    -0.318 NA
ATOM      3  H1  UNL     1      11.134  -2.142  22.248  0.00  0.00    +0.119 HD
ATOM      4  H2  UNL     1       9.924  -2.070  21.190  0.00  0.00    +0.119 HD
ENDBRANCH   1   2
BRANCH   1   6
ATOM      5  C   UNL     1      10.788   0.461  23.964  0.00  0.00    +0.010 C 
ATOM      6  C   UNL     1       9.937  -0.766  24.338  0.00  0.00    +0.024 C 
BRANCH   6   7
ATOM      7  C   UNL     1       8.786  -0.366  25.285  0.00  0.00    +0.125 C 
BRANCH   7   8
ATOM      8  C   UNL     1       8.772  -1.137  26.587  0.00  0.00    +0.305 C 
ATOM      9  O   UNL     1       8.402  -2.293  26.711  0.00  0.00    -0.251 OA
BRANCH   8  10
ATOM     10  O   UNL     1       9.178  -0.392  27.640  0.00  0.00    -0.481 OA
ATOM     11  H   UNL     1       8.828   0.518  27.660  0.00  0.00    +0.295 HD
ENDBRANCH   8  10
ENDBRANCH   7   8
ENDBRANCH   6   7
ENDBRANCH   1   6
BRANCH   1  12
ATOM     12  C   UNL     1       8.977  -2.947  23.442  0.00  0.00    +0.322 C 
ATOM     13  OXT UNL     1       7.962  -3.503  23.058  0.00  0.00    -0.249 OA
BRANCH  12  14
ATOM     14  O   UNL     1       9.907  -3.540  24.235  0.00  0.00    -0.480 OA
ATOM     15  H   UNL     1      10.731  -3.625  23.695  0.00  0.00    +0.295 HD
ENDBRANCH  12  14
ENDBRANCH   1  12
TORSDOF 7
ENDMDL
