MODEL 1
REMARK VINA RESULT:      -5.7      0.000      0.000
REMARK  Name = 
REMARK  9 active torsions:
REMARK  status: ('A' for Active; 'I' for Inactive)
REMARK    1  A    between atoms: C_1  and  O_2
REMARK    2  A    between atoms: O_2  and  C_3
REMARK    3  A    between atoms: C_5  and  C_6
REMARK    4  A    between atoms: C_6  and  O_7
REMARK    5  A    between atoms: C_6  and  C_8
REMARK    6  A    between atoms: C_8  and  C_9
REMARK    7  A    between atoms: C_8  and  N_10
REMARK    8  A    between atoms: C_11  and  O_12
REMARK    9  A    between atoms: O_12  and  C_13
REMARK                            x       y       z     vdW  Elec       q    Type
REMARK                         _______ _______ _______ _____ _____    ______ ____
ROOT
ATOM      1  C   UNL     1       9.442  -1.947  23.305  0.00  0.00    +0.121 A 
ATOM      2  C   UNL     1       8.484  -2.033  22.301  0.00  0.00    +0.049 A 
ATOM      3  C   UNL     1       7.625  -3.134  22.248  0.00  0.00    +0.049 A 
ATOM      4  C   UNL     1       7.725  -4.167  23.187  0.00  0.00    +0.126 A 
ATOM      5  C   UNL     1       8.693  -4.098  24.207  0.00  0.00    +0.027 A 
ATOM      6  C   UNL     1       9.549  -2.978  24.238  0.00  0.00    +0.055 A 
ENDROOT
BRANCH   1   8
ATOM      7  C   UNL     1      10.212  -0.157  24.630  0.00  0.00    +0.277 C 
ATOM      8  O   UNL     1      10.347  -0.932  23.444  0.00  0.00    -0.495 OA
ENDBRANCH   1   8
BRANCH   4   9
ATOM      9  O   UNL     1       6.892  -5.258  23.198  0.00  0.00    -0.495 OA
ATOM     10  C   UNL     1       6.887  -6.038  22.005  0.00  0.00    +0.277 C 
ENDBRANCH   4   9
BRANCH   5  11
ATOM     11  C   UNL     1       8.802  -5.199  25.253  0.00  0.00    +0.164 C 
BRANCH  11  12
ATOM     12  C   UNL     1       8.302  -4.774  26.672  0.00  0.00    +0.081 C 
ATOM     13  C   UNL     1       7.129  -3.793  26.563  0.00  0.00    +0.026 C 
BRANCH  12  14
ATOM     14  N   UNL     1       7.854  -5.914  27.502  0.00  0.00    -0.325 NA
ATOM     15  H   UNL     1       8.544  -6.072  28.237  0.00  0.00    +0.119 HD
ATOM     16  H   UNL     1       6.994  -5.675  27.994  0.00  0.00    +0.119 HD
ENDBRANCH  12  14
ENDBRANCH  11  12
BRANCH  11  17
ATOM     17  O   UNL     1      10.146  -5.696  25.338  0.00  0.00    -0.386 OA
ATOM     18  H   UNL     1      10.297  -6.180  24.513  0.00  0.00    +0.210 HD
ENDBRANCH  11  17
ENDBRANCH   5  11
TORSDOF 6
ENDMDL
MODEL 2
REMARK VINA RESULT:      -5.3      2.746      4.850
REMARK  Name = 
REMARK  9 active torsions:
REMARK  status: ('A' for Active; 'I' for Inactive)
REMARK    1  A    between atoms: C_1  and  O_2
REMARK    2  A    between atoms: O_2  and  C_3
REMARK    3  A    between atoms: C_5  and  C_6
REMARK    4  A    between atoms: C_6  and  O_7
REMARK    5  A    between atoms: C_6  and  C_8
REMARK    6  A    between atoms: C_8  and  C_9
REMARK    7  A    between atoms: C_8  and  N_10
REMARK    8  A    between atoms: C_11  and  O_12
REMARK    9  A    between atoms: O_12  and  C_13
REMARK                            x       y       z     vdW  Elec       q    Type
REMARK                         _______ _______ _______ _____ _____    ______ ____
ROOT
ATOM      1  C   UNL     1       5.135  -5.829  23.270  0.00  0.00    +0.121 A 
ATOM      2  C   UNL     1       4.208  -6.505  24.055  0.00  0.00    +0.049 A 
ATOM      3  C   UNL     1       4.450  -6.686  25.419  0.00  0.00    +0.049 A 
ATOM      4  C   UNL     1       5.626  -6.207  26.009  0.00  0.00    +0.126 A 
ATOM      5  C   UNL     1       6.576  -5.524  25.227  0.00  0.00    +0.027 A 
ATOM      6  C   UNL     1       6.311  -5.357  23.852  0.00  0.00    +0.055 A 
ENDROOT
BRANCH   1   8
ATOM      7  C   UNL     1       6.208  -5.811  21.171  0.00  0.00    +0.277 C 
ATOM      8  O   UNL     1       5.017  -5.612  21.925  0.00  0.00    -0.495 OA
ENDBRANCH   1   8
BRANCH   4   9
ATOM      9  O   UNL     1       5.902  -6.334  27.347  0.00  0.00    -0.495 OA
ATOM     10  C   UNL     1       4.856  -6.890  28.141  0.00  0.00    +0.277 C 
ENDBRANCH   4   9
BRANCH   5  11
ATOM     11  C   UNL     1       7.850  -4.974  25.853  0.00  0.00    +0.164 C 
BRANCH  11  12
ATOM     12  C   UNL     1       8.929  -4.536  24.810  0.00  0.00    +0.081 C 
ATOM     13  C   UNL     1       9.113  -3.014  24.826  0.00  0.00    +0.026 C 
BRANCH  12  14
ATOM     14  N   UNL     1      10.255  -5.148  25.046  0.00  0.00    -0.325 NA
ATOM     15  H   UNL     1      10.707  -5.299  24.143  0.00  0.00    +0.119 HD
ATOM     16  H   UNL     1      10.862  -4.494  25.538  0.00  0.00    +0.119 HD
ENDBRANCH  12  14
ENDBRANCH  11  12
BRANCH  11  17
ATOM     17  O   UNL     1       8.418  -5.916  26.776  0.00  0.00    -0.386 OA
ATOM     18  H   UNL     1       9.368  -5.922  26.590  0.00  0.00    +0.210 HD
ENDBRANCH  11  17
ENDBRANCH   5  11
TORSDOF 6
ENDMDL
MODEL 3
REMARK VINA RESULT:      -5.2      2.606      4.740
REMARK  Name = 
REMARK  9 active torsions:
REMARK  status: ('A' for Active; 'I' for Inactive)
REMARK    1  A    between atoms: C_1  and  O_2
REMARK    2  A    between atoms: O_2  and  C_3
REMARK    3  A    between atoms: C_5  and  C_6
REMARK    4  A    between atoms: C_6  and  O_7
REMARK    5  A    between atoms: C_6  and  C_8
REMARK    6  A    between atoms: C_8  and  C_9
REMARK    7  A    between atoms: C_8  and  N_10
REMARK    8  A    between atoms: C_11  and  O_12
REMARK    9  A    between atoms: O_12  and  C_13
REMARK                            x       y       z     vdW  Elec       q    Type
REMARK                         _______ _______ _______ _____ _____    ______ ____
ROOT
ATOM      1  C   UNL     1       7.583  -5.327  26.582  0.00  0.00    +0.121 A 
ATOM      2  C   UNL     1       8.697  -4.633  26.124  0.00  0.00    +0.049 A 
ATOM      3  C   UNL     1       8.764  -4.225  24.789  0.00  0.00    +0.049 A 
ATOM      4  C   UNL     1       7.726  -4.519  23.897  0.00  0.00    +0.126 A 
ATOM      5  C   UNL     1       6.593  -5.224  24.343  0.00  0.00    +0.027 A 
ATOM      6  C   UNL     1       6.550  -5.627  25.694  0.00  0.00    +0.055 A 
ENDROOT
BRANCH   1   8
ATOM      7  C   UNL     1       6.069  -5.854  28.309  0.00  0.00    +0.277 C 
ATOM      8  O   UNL     1       7.416  -5.794  27.856  0.00  0.00    -0.495 OA
ENDBRANCH   1   8
BRANCH   4   9
ATOM      9  O   UNL     1       7.728  -4.120  22.583  0.00  0.00    -0.495 OA
ATOM     10  C   UNL     1       7.756  -2.711  22.369  0.00  0.00    +0.277 C 
ENDBRANCH   4   9
BRANCH   5  11
ATOM     11  C   UNL     1       5.443  -5.532  23.395  0.00  0.00    +0.164 C 
BRANCH  11  12
ATOM     12  C   UNL     1       4.164  -6.078  24.109  0.00  0.00    +0.081 C 
ATOM     13  C   UNL     1       2.896  -5.501  23.468  0.00  0.00    +0.026 C 
BRANCH  12  14
ATOM     14  N   UNL     1       4.053  -7.553  24.068  0.00  0.00    -0.325 NA
ATOM     15  H   UNL     1       4.985  -7.944  23.929  0.00  0.00    +0.119 HD
ATOM     16  H   UNL     1       3.751  -7.907  24.974  0.00  0.00    +0.119 HD
ENDBRANCH  12  14
ENDBRANCH  11  12
BRANCH  11  17
ATOM     17  O   UNL     1       5.855  -6.445  22.366  0.00  0.00    -0.386 OA
ATOM     18  H   UNL     1       5.178  -7.137  22.347  0.00  0.00    +0.210 HD
ENDBRANCH  11  17
ENDBRANCH   5  11
TORSDOF 6
ENDMDL
MODEL 4
REMARK VINA RESULT:      -5.1      2.165      3.741
REMARK  Name = 
REMARK  9 active torsions:
REMARK  status: ('A' for Active; 'I' for Inactive)
REMARK    1  A    between atoms: C_1  and  O_2
REMARK    2  A    between atoms: O_2  and  C_3
REMARK    3  A    between atoms: C_5  and  C_6
REMARK    4  A    between atoms: C_6  and  O_7
REMARK    5  A    between atoms: C_6  and  C_8
REMARK    6  A    between atoms: C_8  and  C_9
REMARK    7  A    between atoms: C_8  and  N_10
REMARK    8  A    between atoms: C_11  and  O_12
REMARK    9  A    between atoms: O_12  and  C_13
REMARK                            x       y       z     vdW  Elec       q    Type
REMARK                         _______ _______ _______ _____ _____    ______ ____
ROOT
ATOM      1  C   UNL     1       9.036  -1.800  22.304  0.00  0.00    +0.121 A 
ATOM      2  C   UNL     1       9.988  -2.089  23.275  0.00  0.00    +0.049 A 
ATOM      3  C   UNL     1       9.717  -3.046  24.256  0.00  0.00    +0.049 A 
ATOM      4  C   UNL     1       8.486  -3.714  24.283  0.00  0.00    +0.126 A 
ATOM      5  C   UNL     1       7.510  -3.431  23.310  0.00  0.00    +0.027 A 
ATOM      6  C   UNL     1       7.807  -2.459  22.333  0.00  0.00    +0.055 A 
ENDROOT
BRANCH   1   8
ATOM      7  C   UNL     1       9.663   0.400  21.736  0.00  0.00    +0.277 C 
ATOM      8  O   UNL     1       9.181  -0.871  21.312  0.00  0.00    -0.495 OA
ENDBRANCH   1   8
BRANCH   4   9
ATOM      9  O   UNL     1       8.177  -4.682  25.207  0.00  0.00    -0.495 OA
ATOM     10  C   UNL     1       8.594  -4.412  26.543  0.00  0.00    +0.277 C 
ENDBRANCH   4   9
BRANCH   5  11
ATOM     11  C   UNL     1       6.176  -4.164  23.309  0.00  0.00    +0.164 C 
BRANCH  11  12
ATOM     12  C   UNL     1       5.977  -5.113  22.082  0.00  0.00    +0.081 C 
ATOM     13  C   UNL     1       7.169  -6.066  21.935  0.00  0.00    +0.026 C 
BRANCH  12  14
ATOM     14  N   UNL     1       4.753  -5.939  22.172  0.00  0.00    -0.325 NA
ATOM     15  H   UNL     1       4.452  -6.176  21.226  0.00  0.00    +0.119 HD
ATOM     16  H   UNL     1       4.965  -6.833  22.614  0.00  0.00    +0.119 HD
ENDBRANCH  12  14
ENDBRANCH  11  12
BRANCH  11  17
ATOM     17  O   UNL     1       5.081  -3.238  23.392  0.00  0.00    -0.386 OA
ATOM     18  H   UNL     1       5.126  -2.709  22.582  0.00  0.00    +0.210 HD
ENDBRANCH  11  17
ENDBRANCH   5  11
TORSDOF 6
ENDMDL
MODEL 5
REMARK VINA RESULT:      -5.0      1.745      3.634
REMARK  Name = 
REMARK  9 active torsions:
REMARK  status: ('A' for Active; 'I' for Inactive)
REMARK    1  A    between atoms: C_1  and  O_2
REMARK    2  A    between atoms: O_2  and  C_3
REMARK    3  A    between atoms: C_5  and  C_6
REMARK    4  A    between atoms: C_6  and  O_7
REMARK    5  A    between atoms: C_6  and  C_8
REMARK    6  A    between atoms: C_8  and  C_9
REMARK    7  A    between atoms: C_8  and  N_10
REMARK    8  A    between atoms: C_11  and  O_12
REMARK    9  A    between atoms: O_12  and  C_13
REMARK                            x       y       z     vdW  Elec       q    Type
REMARK                         _______ _______ _______ _____ _____    ______ ____
ROOT
ATOM      1  C   UNL     1       6.746  -3.879  22.282  0.00  0.00    +0.121 A 
ATOM      2  C   UNL     1       7.186  -2.573  22.463  0.00  0.00    +0.049 A 
ATOM      3  C   UNL     1       7.841  -2.215  23.645  0.00  0.00    +0.049 A 
ATOM      4  C   UNL     1       8.049  -3.155  24.661  0.00  0.00    +0.126 A 
ATOM      5  C   UNL     1       7.606  -4.480  24.495  0.00  0.00    +0.027 A 
ATOM      6  C   UNL     1       6.945  -4.816  23.296  0.00  0.00    +0.055 A 
ENDROOT
BRANCH   1   8
ATOM      7  C   UNL     1       6.215  -5.730  20.924  0.00  0.00    +0.277 C 
ATOM      8  O   UNL     1       6.076  -4.337  21.181  0.00  0.00    -0.495 OA
ENDBRANCH   1   8
BRANCH   4   9
ATOM      9  O   UNL     1       8.709  -2.865  25.830  0.00  0.00    -0.495 OA
ATOM     10  C   UNL     1       8.408  -1.597  26.407  0.00  0.00    +0.277 C 
ENDBRANCH   4   9
BRANCH   5  11
ATOM     11  C   UNL     1       7.844  -5.523  25.579  0.00  0.00    +0.164 C 
BRANCH  11  12
ATOM     12  C   UNL     1       6.903  -5.373  26.818  0.00  0.00    +0.081 C 
ATOM     13  C   UNL     1       5.492  -5.878  26.494  0.00  0.00    +0.026 C 
BRANCH  12  14
ATOM     14  N   UNL     1       7.379  -6.112  28.009  0.00  0.00    -0.325 NA
ATOM     15  H   UNL     1       7.107  -5.592  28.843  0.00  0.00    +0.119 HD
ATOM     16  H   UNL     1       6.894  -7.005  28.084  0.00  0.00    +0.119 HD
ENDBRANCH  12  14
ENDBRANCH  11  12
BRANCH  11  17
ATOM     17  O   UNL     1       9.215  -5.520  26.003  0.00  0.00    -0.386 OA
ATOM     18  H   UNL     1       9.437  -6.447  26.173  0.00  0.00    +0.210 HD
ENDBRANCH  11  17
ENDBRANCH   5  11
TORSDOF 6
ENDMDL
MODEL 6
REMARK VINA RESULT:      -4.9      2.236      4.070
REMARK  Name = 
REMARK  9 active torsions:
REMARK  status: ('A' for Active; 'I' for Inactive)
REMARK    1  A    between atoms: C_1  and  O_2
REMARK    2  A    between atoms: O_2  and  C_3
REMARK    3  A    between atoms: C_5  and  C_6
REMARK    4  A    between atoms: C_6  and  O_7
REMARK    5  A    between atoms: C_6  and  C_8
REMARK    6  A    between atoms: C_8  and  C_9
REMARK    7  A    between atoms: C_8  and  N_10
REMARK    8  A    between atoms: C_11  and  O_12
REMARK    9  A    between atoms: O_12  and  C_13
REMARK                            x       y       z     vdW  Elec       q    Type
REMARK                         _______ _______ _______ _____ _____    ______ ____
ROOT
ATOM      1  C   UNL     1       9.112  -4.056  24.696  0.00  0.00    +0.121 A 
ATOM      2  C   UNL     1       9.180  -4.709  25.922  0.00  0.00    +0.049 A 
ATOM      3  C   UNL     1       8.048  -5.344  26.438  0.00  0.00    +0.049 A 
ATOM      4  C   UNL     1       6.833  -5.321  25.741  0.00  0.00    +0.126 A 
ATOM      5  C   UNL     1       6.746  -4.661  24.502  0.00  0.00    +0.027 A 
ATOM      6  C   UNL     1       7.902  -4.025  24.003  0.00  0.00    +0.055 A 
ENDROOT
BRANCH   1   8
ATOM      7  C   UNL     1       9.816  -2.098  23.588  0.00  0.00    +0.277 C 
ATOM      8  O   UNL     1      10.145  -3.383  24.105  0.00  0.00    -0.495 OA
ENDBRANCH   1   8
BRANCH   4   9
ATOM      9  O   UNL     1       5.698  -5.950  26.188  0.00  0.00    -0.495 OA
ATOM     10  C   UNL     1       5.292  -5.616  27.513  0.00  0.00    +0.277 C 
ENDBRANCH   4   9
BRANCH   5  11
ATOM     11  C   UNL     1       5.441  -4.645  23.717  0.00  0.00    +0.164 C 
BRANCH  11  12
ATOM     12  C   UNL     1       5.234  -5.901  22.810  0.00  0.00    +0.081 C 
ATOM     13  C   UNL     1       6.533  -6.266  22.082  0.00  0.00    +0.026 C 
BRANCH  12  14
ATOM     14  N   UNL     1       4.791  -7.098  23.559  0.00  0.00    -0.325 NA
ATOM     15  H   UNL     1       4.730  -7.883  22.909  0.00  0.00    +0.119 HD
ATOM     16  H   UNL     1       5.501  -7.372  24.236  0.00  0.00    +0.119 HD
ENDBRANCH  12  14
ENDBRANCH  11  12
BRANCH  11  17
ATOM     17  O   UNL     1       5.330  -3.450  22.929  0.00  0.00    -0.386 OA
ATOM     18  H   UNL     1       5.511  -2.719  23.538  0.00  0.00    +0.210 HD
ENDBRANCH  11  17
ENDBRANCH   5  11
TORSDOF 6
ENDMDL
MODEL 7
REMARK VINA RESULT:      -4.8      3.080      5.353
REMARK  Name = 
REMARK  9 active torsions:
REMARK  status: ('A' for Active; 'I' for Inactive)
REMARK    1  A    between atoms: C_1  and  O_2
REMARK    2  A    between atoms: O_2  and  C_3
REMARK    3  A    between atoms: C_5  and  C_6
REMARK    4  A    between atoms: C_6  and  O_7
REMARK    5  A    between atoms: C_6  and  C_8
REMARK    6  A    between atoms: C_8  and  C_9
REMARK    7  A    between atoms: C_8  and  N_10
REMARK    8  A    between atoms: C_11  and  O_12
REMARK    9  A    between atoms: O_12  and  C_13
REMARK                            x       y       z     vdW  Elec       q    Type
REMARK                         _______ _______ _______ _____ _____    ______ ____
ROOT
ATOM      1  C   UNL     1       6.621  -3.552  22.536  0.00  0.00    +0.121 A 
ATOM      2  C   UNL     1       6.401  -3.823  23.882  0.00  0.00    +0.049 A 
ATOM      3  C   UNL     1       7.228  -3.250  24.852  0.00  0.00    +0.049 A 
ATOM      4  C   UNL     1       8.290  -2.414  24.486  0.00  0.00    +0.126 A 
ATOM      5  C   UNL     1       8.528  -2.134  23.128  0.00  0.00    +0.027 A 
ATOM      6  C   UNL     1       7.682  -2.726  22.168  0.00  0.00    +0.055 A 
ENDROOT
BRANCH   1   8
ATOM      7  C   UNL     1       6.213  -5.411  21.146  0.00  0.00    +0.277 C 
ATOM      8  O   UNL     1       5.893  -4.071  21.501  0.00  0.00    -0.495 OA
ENDBRANCH   1   8
BRANCH   4   9
ATOM      9  O   UNL     1       9.117  -1.805  25.398  0.00  0.00    -0.495 OA
ATOM     10  C   UNL     1       8.460  -1.075  26.431  0.00  0.00    +0.277 C 
ENDBRANCH   4   9
BRANCH   5  11
ATOM     11  C   UNL     1       9.663  -1.208  22.710  0.00  0.00    +0.164 C 
BRANCH  11  12
ATOM     12  C   UNL     1       9.274   0.306  22.707  0.00  0.00    +0.081 C 
ATOM     13  C   UNL     1      10.150   1.093  23.689  0.00  0.00    +0.026 C 
BRANCH  12  14
ATOM     14  N   UNL     1       9.409   0.944  21.379  0.00  0.00    -0.325 NA
ATOM     15  H   UNL     1       9.672   1.920  21.514  0.00  0.00    +0.119 HD
ATOM     16  H   UNL     1      10.186   0.528  20.867  0.00  0.00    +0.119 HD
ENDBRANCH  12  14
ENDBRANCH  11  12
BRANCH  11  17
ATOM     17  O   UNL     1      10.184  -1.581  21.426  0.00  0.00    -0.386 OA
ATOM     18  H   UNL     1      10.953  -2.141  21.610  0.00  0.00    +0.210 HD
ENDBRANCH  11  17
ENDBRANCH   5  11
TORSDOF 6
ENDMDL
MODEL 8
REMARK VINA RESULT:      -4.7      1.804      3.151
REMARK  Name = 
REMARK  9 active torsions:
REMARK  status: ('A' for Active; 'I' for Inactive)
REMARK    1  A    between atoms: C_1  and  O_2
REMARK    2  A    between atoms: O_2  and  C_3
REMARK    3  A    between atoms: C_5  and  C_6
REMARK    4  A    between atoms: C_6  and  O_7
REMARK    5  A    between atoms: C_6  and  C_8
REMARK    6  A    between atoms: C_8  and  C_9
REMARK    7  A    between atoms: C_8  and  N_10
REMARK    8  A    between atoms: C_11  and  O_12
REMARK    9  A    between atoms: O_12  and  C_13
REMARK                            x       y       z     vdW  Elec       q    Type
REMARK                         _______ _______ _______ _____ _____    ______ ____
ROOT
ATOM      1  C   UNL     1       9.875  -0.961  24.200  0.00  0.00    +0.121 A 
ATOM      2  C   UNL     1       9.347  -0.462  25.385  0.00  0.00    +0.049 A 
ATOM      3  C   UNL     1       8.577  -1.288  26.209  0.00  0.00    +0.049 A 
ATOM      4  C   UNL     1       8.316  -2.616  25.849  0.00  0.00    +0.126 A 
ATOM      5  C   UNL     1       8.839  -3.135  24.651  0.00  0.00    +0.027 A 
ATOM      6  C   UNL     1       9.611  -2.282  23.836  0.00  0.00    +0.055 A 
ENDROOT
BRANCH   1   8
ATOM      7  C   UNL     1       9.970   0.066  22.081  0.00  0.00    +0.277 C 
ATOM      8  O   UNL     1      10.622  -0.244  23.308  0.00  0.00    -0.495 OA
ENDBRANCH   1   8
BRANCH   4   9
ATOM      9  O   UNL     1       7.589  -3.478  26.631  0.00  0.00    -0.495 OA
ATOM     10  C   UNL     1       6.281  -3.033  26.985  0.00  0.00    +0.277 C 
ENDBRANCH   4   9
BRANCH   5  11
ATOM     11  C   UNL     1       8.588  -4.583  24.253  0.00  0.00    +0.164 C 
BRANCH  11  12
ATOM     12  C   UNL     1       7.164  -4.837  23.659  0.00  0.00    +0.081 C 
ATOM     13  C   UNL     1       7.251  -5.687  22.385  0.00  0.00    +0.026 C 
BRANCH  12  14
ATOM     14  N   UNL     1       6.252  -5.530  24.596  0.00  0.00    -0.325 NA
ATOM     15  H   UNL     1       5.849  -6.337  24.119  0.00  0.00    +0.119 HD
ATOM     16  H   UNL     1       6.779  -5.920  25.375  0.00  0.00    +0.119 HD
ENDBRANCH  12  14
ENDBRANCH  11  12
BRANCH  11  17
ATOM     17  O   UNL     1       8.819  -5.468  25.360  0.00  0.00    -0.386 OA
ATOM     18  H   UNL     1       8.044  -6.048  25.396  0.00  0.00    +0.210 HD
ENDBRANCH  11  17
ENDBRANCH   5  11
TORSDOF 6
ENDMDL
MODEL 9
REMARK VINA RESULT:      -4.7      3.347      5.816
REMARK  Name = 
REMARK  9 active torsions:
REMARK  status: ('A' for Active; 'I' for Inactive)
REMARK    1  A    between atoms: C_1  and  O_2
REMARK    2  A    between atoms: O_2  and  C_3
REMARK    3  A    between atoms: C_5  and  C_6
REMARK    4  A    between atoms: C_6  and  O_7
REMARK    5  A    between atoms: C_6  and  C_8
REMARK    6  A    between atoms: C_8  and  C_9
REMARK    7  A    between atoms: C_8  and  N_10
REMARK    8  A    between atoms: C_11  and  O_12
REMARK    9  A    between atoms: O_12  and  C_13
REMARK                            x       y       z     vdW  Elec       q    Type
REMARK                         _______ _______ _______ _____ _____    ______ ____
ROOT
ATOM      1  C   UNL     1       8.427  -2.428  23.241  0.00  0.00    +0.121 A 
ATOM      2  C   UNL     1       7.085  -2.065  23.238  0.00  0.00    +0.049 A 
ATOM      3  C   UNL     1       6.722  -0.736  23.004  0.00  0.00    +0.049 A 
ATOM      4  C   UNL     1       7.696   0.245  22.785  0.00  0.00    +0.126 A 
ATOM      5  C   UNL     1       9.059  -0.105  22.789  0.00  0.00    +0.027 A 
ATOM      6  C   UNL     1       9.400  -1.451  23.030  0.00  0.00    +0.055 A 
ENDROOT
BRANCH   1   8
ATOM      7  C   UNL     1       9.348  -3.927  24.809  0.00  0.00    +0.277 C 
ATOM      8  O   UNL     1       8.901  -3.688  23.479  0.00  0.00    -0.495 OA
ENDBRANCH   1   8
BRANCH   4   9
ATOM      9  O   UNL     1       7.395   1.559  22.524  0.00  0.00    -0.495 OA
ATOM     10  C   UNL     1       6.249   2.072  23.198  0.00  0.00    +0.277 C 
ENDBRANCH   4   9
BRANCH   5  11
ATOM     11  C   UNL     1      10.133   0.943  22.528  0.00  0.00    +0.164 C 
BRANCH  11  12
ATOM     12  C   UNL     1      10.526   1.773  23.793  0.00  0.00    +0.081 C 
ATOM     13  C   UNL     1      10.741   3.247  23.430  0.00  0.00    +0.026 C 
BRANCH  12  14
ATOM     14  N   UNL     1       9.510   1.721  24.867  0.00  0.00    -0.325 NA
ATOM     15  H   UNL     1       9.040   2.625  24.912  0.00  0.00    +0.119 HD
ATOM     16  H   UNL     1       8.779   1.054  24.628  0.00  0.00    +0.119 HD
ENDBRANCH  12  14
ENDBRANCH  11  12
BRANCH  11  17
ATOM     17  O   UNL     1       9.743   1.826  21.466  0.00  0.00    -0.386 OA
ATOM     18  H   UNL     1       9.929   1.345  20.646  0.00  0.00    +0.210 HD
ENDBRANCH  11  17
ENDBRANCH   5  11
TORSDOF 6
ENDMDL
