MODEL 1
REMARK VINA RESULT:      -6.9      0.000      0.000
REMARK  Name = 
REMARK  6 active torsions:
REMARK  status: ('A' for Active; 'I' for Inactive)
REMARK    1  A    between atoms: C_7  and  C_9
REMARK    2  A    between atoms: C_11  and  C_14
REMARK    3  A    between atoms: C_14  and  O_16
REMARK    4  A    between atoms: C_14  and  C_17
REMARK    5  A    between atoms: C_20  and  O_21
REMARK    6  A    between atoms: O_21  and  C_22
REMARK                            x       y       z     vdW  Elec       q    Type
REMARK                         _______ _______ _______ _____ _____    ______ ____
ROOT
ATOM      1  C   UNL     1       9.024  -4.830  25.791  0.00  0.00    +0.162 C 
ENDROOT
BRANCH   1   2
ATOM      2  C   UNL     1       8.533  -4.328  24.426  0.00  0.00    -0.007 A 
ATOM      3  C   UNL     1       7.766  -5.197  23.628  0.00  0.00    +0.026 A 
ATOM      4  C   UNL     1       7.250  -4.750  22.433  0.00  0.00    +0.112 A 
ATOM      5  N   UNL     1       7.428  -3.504  21.967  0.00  0.00    -0.255 NA
ATOM      6  C   UNL     1       8.166  -2.661  22.696  0.00  0.00    +0.072 A 
ATOM      7  C   UNL     1       8.339  -1.390  22.175  0.00  0.00    +0.032 A 
ATOM      8  C   UNL     1       9.110  -0.424  22.822  0.00  0.00    +0.048 A 
ATOM      9  C   UNL     1       9.730  -0.735  24.023  0.00  0.00    +0.121 A 
ATOM     10  C   UNL     1       9.553  -2.014  24.576  0.00  0.00    +0.056 A 
ATOM     11  C   UNL     1       8.762  -2.999  23.937  0.00  0.00    +0.010 A 
BRANCH   9  12
ATOM     12  O   UNL     1      10.534   0.104  24.745  0.00  0.00    -0.495 OA
ATOM     13  C   UNL     1      10.727   1.416  24.222  0.00  0.00    +0.277 C 
ENDBRANCH   9  12
ENDBRANCH   1   2
BRANCH   1  16
ATOM     14  C   UNL     1       5.521  -3.880  27.123  0.00  0.00    -0.000 C 
ATOM     15  C   UNL     1       6.974  -3.542  26.737  0.00  0.00    +0.026 C 
ATOM     16  C   UNL     1       7.891  -4.786  26.889  0.00  0.00    +0.090 C 
ATOM     17  N   UNL     1       7.033  -6.016  27.030  0.00  0.00    -0.296 NA
ATOM     18  C   UNL     1       6.004  -6.038  25.950  0.00  0.00    +0.092 C 
ATOM     19  C   UNL     1       6.304  -5.924  28.333  0.00  0.00    +0.085 C 
ATOM     20  C   UNL     1       4.914  -4.961  26.188  0.00  0.00    +0.028 C 
ATOM     21  C   UNL     1       5.611  -4.553  28.507  0.00  0.00    +0.019 C 
BRANCH  20  22
ATOM     22  C   UNL     1       4.189  -4.587  24.921  0.00  0.00    -0.030 C 
ATOM     23  C   UNL     1       4.334  -3.506  24.147  0.00  0.00    +0.004 C 
ENDBRANCH  20  22
ENDBRANCH   1  16
BRANCH   1  24
ATOM     24  O   UNL     1       9.541  -6.161  25.636  0.00  0.00    -0.386 OA
ATOM     25  H   UNL     1      10.507  -6.110  25.718  0.00  0.00    +0.210 HD
ENDBRANCH   1  24
TORSDOF 5
ENDMDL
MODEL 2
REMARK VINA RESULT:      -6.8      2.513      6.570
REMARK  Name = 
REMARK  6 active torsions:
REMARK  status: ('A' for Active; 'I' for Inactive)
REMARK    1  A    between atoms: C_7  and  C_9
REMARK    2  A    between atoms: C_11  and  C_14
REMARK    3  A    between atoms: C_14  and  O_16
REMARK    4  A    between atoms: C_14  and  C_17
REMARK    5  A    between atoms: C_20  and  O_21
REMARK    6  A    between atoms: O_21  and  C_22
REMARK                            x       y       z     vdW  Elec       q    Type
REMARK                         _______ _______ _______ _____ _____    ______ ____
ROOT
ATOM      1  C   UNL     1       7.819  -2.572  23.438  0.00  0.00    +0.162 C 
ENDROOT
BRANCH   1   2
ATOM      2  C   UNL     1       7.661  -3.705  24.461  0.00  0.00    -0.007 A 
ATOM      3  C   UNL     1       8.707  -3.934  25.374  0.00  0.00    +0.026 A 
ATOM      4  C   UNL     1       8.565  -4.893  26.351  0.00  0.00    +0.112 A 
ATOM      5  N   UNL     1       7.461  -5.642  26.501  0.00  0.00    -0.255 NA
ATOM      6  C   UNL     1       6.456  -5.458  25.637  0.00  0.00    +0.072 A 
ATOM      7  C   UNL     1       5.342  -6.260  25.814  0.00  0.00    +0.032 A 
ATOM      8  C   UNL     1       4.237  -6.188  24.966  0.00  0.00    +0.048 A 
ATOM      9  C   UNL     1       4.245  -5.293  23.906  0.00  0.00    +0.121 A 
ATOM     10  C   UNL     1       5.360  -4.460  23.719  0.00  0.00    +0.056 A 
ATOM     11  C   UNL     1       6.482  -4.512  24.581  0.00  0.00    +0.010 A 
BRANCH   9  12
ATOM     12  O   UNL     1       3.245  -5.141  22.985  0.00  0.00    -0.495 OA
ATOM     13  C   UNL     1       2.211  -6.123  22.991  0.00  0.00    +0.277 C 
ENDBRANCH   9  12
ENDBRANCH   1   2
BRANCH   1  16
ATOM     14  C   UNL     1      10.179   0.416  22.771  0.00  0.00    -0.000 C 
ATOM     15  C   UNL     1       9.722  -1.038  22.553  0.00  0.00    +0.026 C 
ATOM     16  C   UNL     1       8.993  -1.585  23.811  0.00  0.00    +0.090 C 
ATOM     17  N   UNL     1       8.649  -0.434  24.720  0.00  0.00    -0.296 NA
ATOM     18  C   UNL     1       7.975   0.641  23.937  0.00  0.00    +0.092 C 
ATOM     19  C   UNL     1       9.928   0.138  25.244  0.00  0.00    +0.085 C 
ATOM     20  C   UNL     1       8.974   1.370  23.001  0.00  0.00    +0.028 C 
ATOM     21  C   UNL     1      10.943   0.409  24.110  0.00  0.00    +0.019 C 
BRANCH  20  22
ATOM     22  C   UNL     1       8.288   2.059  21.850  0.00  0.00    -0.030 C 
ATOM     23  C   UNL     1       7.249   2.901  21.862  0.00  0.00    +0.004 C 
ENDBRANCH  20  22
ENDBRANCH   1  16
BRANCH   1  24
ATOM     24  O   UNL     1       8.021  -3.147  22.138  0.00  0.00    -0.386 OA
ATOM     25  H   UNL     1       8.675  -3.859  22.232  0.00  0.00    +0.210 HD
ENDBRANCH   1  24
TORSDOF 5
ENDMDL
MODEL 3
REMARK VINA RESULT:      -6.7      2.046      5.690
REMARK  Name = 
REMARK  6 active torsions:
REMARK  status: ('A' for Active; 'I' for Inactive)
REMARK    1  A    between atoms: C_7  and  C_9
REMARK    2  A    between atoms: C_11  and  C_14
REMARK    3  A    between atoms: C_14  and  O_16
REMARK    4  A    between atoms: C_14  and  C_17
REMARK    5  A    between atoms: C_20  and  O_21
REMARK    6  A    between atoms: O_21  and  C_22
REMARK                            x       y       z     vdW  Elec       q    Type
REMARK                         _______ _______ _______ _____ _____    ______ ____
ROOT
ATOM      1  C   UNL     1       8.789  -3.256  23.821  0.00  0.00    +0.162 C 
ENDROOT
BRANCH   1   2
ATOM      2  C   UNL     1       7.546  -4.108  23.530  0.00  0.00    -0.007 A 
ATOM      3  C   UNL     1       7.107  -4.221  22.198  0.00  0.00    +0.026 A 
ATOM      4  C   UNL     1       6.040  -5.036  21.896  0.00  0.00    +0.112 A 
ATOM      5  N   UNL     1       5.375  -5.757  22.811  0.00  0.00    -0.255 NA
ATOM      6  C   UNL     1       5.759  -5.658  24.088  0.00  0.00    +0.072 A 
ATOM      7  C   UNL     1       5.038  -6.404  25.004  0.00  0.00    +0.032 A 
ATOM      8  C   UNL     1       5.318  -6.369  26.370  0.00  0.00    +0.048 A 
ATOM      9  C   UNL     1       6.344  -5.561  26.838  0.00  0.00    +0.121 A 
ATOM     10  C   UNL     1       7.097  -4.809  25.923  0.00  0.00    +0.056 A 
ATOM     11  C   UNL     1       6.833  -4.846  24.532  0.00  0.00    +0.010 A 
BRANCH   9  12
ATOM     12  O   UNL     1       6.704  -5.411  28.149  0.00  0.00    -0.495 OA
ATOM     13  C   UNL     1       6.149  -6.338  29.079  0.00  0.00    +0.277 C 
ENDBRANCH   9  12
ENDBRANCH   1   2
BRANCH   1  16
ATOM     14  C   UNL     1       9.050   0.496  24.713  0.00  0.00    -0.000 C 
ATOM     15  C   UNL     1       9.606  -0.940  24.672  0.00  0.00    +0.026 C 
ATOM     16  C   UNL     1       8.454  -1.981  24.689  0.00  0.00    +0.090 C 
ATOM     17  N   UNL     1       7.153  -1.281  24.391  0.00  0.00    -0.296 NA
ATOM     18  C   UNL     1       7.305  -0.431  23.176  0.00  0.00    +0.092 C 
ATOM     19  C   UNL     1       6.850  -0.365  25.535  0.00  0.00    +0.085 C 
ATOM     20  C   UNL     1       8.184   0.815  23.464  0.00  0.00    +0.028 C 
ATOM     21  C   UNL     1       8.065   0.520  25.899  0.00  0.00    +0.019 C 
BRANCH  20  22
ATOM     22  C   UNL     1       8.793   1.392  22.212  0.00  0.00    -0.030 C 
ATOM     23  C   UNL     1      10.040   1.821  21.994  0.00  0.00    +0.004 C 
ENDBRANCH  20  22
ENDBRANCH   1  16
BRANCH   1  24
ATOM     24  O   UNL     1       9.771  -4.078  24.469  0.00  0.00    -0.386 OA
ATOM     25  H   UNL     1       9.316  -4.588  25.160  0.00  0.00    +0.210 HD
ENDBRANCH   1  24
TORSDOF 5
ENDMDL
MODEL 4
REMARK VINA RESULT:      -6.6      2.425      3.663
REMARK  Name = 
REMARK  6 active torsions:
REMARK  status: ('A' for Active; 'I' for Inactive)
REMARK    1  A    between atoms: C_7  and  C_9
REMARK    2  A    between atoms: C_11  and  C_14
REMARK    3  A    between atoms: C_14  and  O_16
REMARK    4  A    between atoms: C_14  and  C_17
REMARK    5  A    between atoms: C_20  and  O_21
REMARK    6  A    between atoms: O_21  and  C_22
REMARK                            x       y       z     vdW  Elec       q    Type
REMARK                         _______ _______ _______ _____ _____    ______ ____
ROOT
ATOM      1  C   UNL     1       6.952  -1.477  25.558  0.00  0.00    +0.162 C 
ENDROOT
BRANCH   1   2
ATOM      2  C   UNL     1       8.057  -1.419  24.495  0.00  0.00    -0.007 A 
ATOM      3  C   UNL     1       9.029  -2.436  24.483  0.00  0.00    +0.026 A 
ATOM      4  C   UNL     1       9.989  -2.452  23.496  0.00  0.00    +0.112 A 
ATOM      5  N   UNL     1      10.058  -1.542  22.513  0.00  0.00    -0.255 NA
ATOM      6  C   UNL     1       9.157  -0.554  22.508  0.00  0.00    +0.072 A 
ATOM      7  C   UNL     1       9.271   0.374  21.487  0.00  0.00    +0.032 A 
ATOM      8  C   UNL     1       8.412   1.468  21.384  0.00  0.00    +0.048 A 
ATOM      9  C   UNL     1       7.412   1.645  22.328  0.00  0.00    +0.121 A 
ATOM     10  C   UNL     1       7.270   0.706  23.362  0.00  0.00    +0.056 A 
ATOM     11  C   UNL     1       8.126  -0.417  23.472  0.00  0.00    +0.010 A 
BRANCH   9  12
ATOM     12  O   UNL     1       6.523   2.685  22.362  0.00  0.00    -0.495 OA
ATOM     13  C   UNL     1       7.066   3.998  22.251  0.00  0.00    +0.277 C 
ENDBRANCH   9  12
ENDBRANCH   1   2
BRANCH   1  16
ATOM     14  C   UNL     1       5.146  -3.936  23.184  0.00  0.00    -0.000 C 
ATOM     15  C   UNL     1       5.661  -2.535  23.565  0.00  0.00    +0.026 C 
ATOM     16  C   UNL     1       5.732  -2.372  25.108  0.00  0.00    +0.090 C 
ATOM     17  N   UNL     1       5.611  -3.728  25.753  0.00  0.00    -0.296 NA
ATOM     18  C   UNL     1       6.563  -4.678  25.109  0.00  0.00    +0.092 C 
ATOM     19  C   UNL     1       4.230  -4.242  25.492  0.00  0.00    +0.085 C 
ATOM     20  C   UNL     1       6.102  -5.056  23.677  0.00  0.00    +0.028 C 
ATOM     21  C   UNL     1       3.850  -4.131  23.997  0.00  0.00    +0.019 C 
BRANCH  20  22
ATOM     22  C   UNL     1       7.238  -5.553  22.819  0.00  0.00    -0.030 C 
ATOM     23  C   UNL     1       7.251  -5.848  21.515  0.00  0.00    +0.004 C 
ENDBRANCH  20  22
ENDBRANCH   1  16
BRANCH   1  24
ATOM     24  O   UNL     1       7.516  -1.956  26.788  0.00  0.00    -0.386 OA
ATOM     25  H   UNL     1       6.780  -2.221  27.364  0.00  0.00    +0.210 HD
ENDBRANCH   1  24
TORSDOF 5
ENDMDL
MODEL 5
REMARK VINA RESULT:      -6.6      2.640      4.599
REMARK  Name = 
REMARK  6 active torsions:
REMARK  status: ('A' for Active; 'I' for Inactive)
REMARK    1  A    between atoms: C_7  and  C_9
REMARK    2  A    between atoms: C_11  and  C_14
REMARK    3  A    between atoms: C_14  and  O_16
REMARK    4  A    between atoms: C_14  and  C_17
REMARK    5  A    between atoms: C_20  and  O_21
REMARK    6  A    between atoms: O_21  and  C_22
REMARK                            x       y       z     vdW  Elec       q    Type
REMARK                         _______ _______ _______ _____ _____    ______ ____
ROOT
ATOM      1  C   UNL     1       8.335  -2.746  23.570  0.00  0.00    +0.162 C 
ENDROOT
BRANCH   1   2
ATOM      2  C   UNL     1       8.414  -1.330  22.982  0.00  0.00    -0.007 A 
ATOM      3  C   UNL     1       9.388  -1.065  22.002  0.00  0.00    +0.026 A 
ATOM      4  C   UNL     1       9.436   0.174  21.403  0.00  0.00    +0.112 A 
ATOM      5  N   UNL     1       8.586   1.171  21.693  0.00  0.00    -0.255 NA
ATOM      6  C   UNL     1       7.660   0.953  22.632  0.00  0.00    +0.072 A 
ATOM      7  C   UNL     1       6.813   2.012  22.914  0.00  0.00    +0.032 A 
ATOM      8  C   UNL     1       5.822   1.925  23.892  0.00  0.00    +0.048 A 
ATOM      9  C   UNL     1       5.673   0.750  24.613  0.00  0.00    +0.121 A 
ATOM     10  C   UNL     1       6.511  -0.341  24.331  0.00  0.00    +0.056 A 
ATOM     11  C   UNL     1       7.513  -0.271  23.331  0.00  0.00    +0.010 A 
BRANCH   9  12
ATOM     12  O   UNL     1       4.765   0.540  25.615  0.00  0.00    -0.495 OA
ATOM     13  C   UNL     1       4.906  -0.661  26.368  0.00  0.00    +0.277 C 
ENDBRANCH   9  12
ENDBRANCH   1   2
BRANCH   1  16
ATOM     14  C   UNL     1       6.277  -5.921  22.776  0.00  0.00    -0.000 C 
ATOM     15  C   UNL     1       7.580  -5.202  23.176  0.00  0.00    +0.026 C 
ATOM     16  C   UNL     1       7.617  -3.761  22.597  0.00  0.00    +0.090 C 
ATOM     17  N   UNL     1       6.238  -3.385  22.122  0.00  0.00    -0.296 NA
ATOM     18  C   UNL     1       5.240  -3.680  23.190  0.00  0.00    +0.092 C 
ATOM     19  C   UNL     1       5.901  -4.253  20.951  0.00  0.00    +0.085 C 
ATOM     20  C   UNL     1       5.025  -5.208  23.355  0.00  0.00    +0.028 C 
ATOM     21  C   UNL     1       6.166  -5.747  21.249  0.00  0.00    +0.019 C 
BRANCH  20  22
ATOM     22  C   UNL     1       4.471  -5.568  24.710  0.00  0.00    -0.030 C 
ATOM     23  C   UNL     1       4.947  -6.422  25.621  0.00  0.00    +0.004 C 
ENDBRANCH  20  22
ENDBRANCH   1  16
BRANCH   1  24
ATOM     24  O   UNL     1       9.662  -3.189  23.890  0.00  0.00    -0.386 OA
ATOM     25  H   UNL     1       9.873  -2.862  24.780  0.00  0.00    +0.210 HD
ENDBRANCH   1  24
TORSDOF 5
ENDMDL
MODEL 6
REMARK VINA RESULT:      -6.4      3.024      4.871
REMARK  Name = 
REMARK  6 active torsions:
REMARK  status: ('A' for Active; 'I' for Inactive)
REMARK    1  A    between atoms: C_7  and  C_9
REMARK    2  A    between atoms: C_11  and  C_14
REMARK    3  A    between atoms: C_14  and  O_16
REMARK    4  A    between atoms: C_14  and  C_17
REMARK    5  A    between atoms: C_20  and  O_21
REMARK    6  A    between atoms: O_21  and  C_22
REMARK                            x       y       z     vdW  Elec       q    Type
REMARK                         _______ _______ _______ _____ _____    ______ ____
ROOT
ATOM      1  C   UNL     1       6.637  -1.867  23.129  0.00  0.00    +0.162 C 
ENDROOT
BRANCH   1   2
ATOM      2  C   UNL     1       7.700  -0.853  22.685  0.00  0.00    -0.007 A 
ATOM      3  C   UNL     1       8.938  -1.338  22.223  0.00  0.00    +0.026 A 
ATOM      4  C   UNL     1       9.884  -0.458  21.749  0.00  0.00    +0.112 A 
ATOM      5  N   UNL     1       9.697   0.870  21.689  0.00  0.00    -0.255 NA
ATOM      6  C   UNL     1       8.537   1.362  22.136  0.00  0.00    +0.072 A 
ATOM      7  C   UNL     1       8.389   2.737  22.071  0.00  0.00    +0.032 A 
ATOM      8  C   UNL     1       7.239   3.378  22.530  0.00  0.00    +0.048 A 
ATOM      9  C   UNL     1       6.207   2.628  23.074  0.00  0.00    +0.121 A 
ATOM     10  C   UNL     1       6.331   1.231  23.133  0.00  0.00    +0.056 A 
ATOM     11  C   UNL     1       7.487   0.565  22.658  0.00  0.00    +0.010 A 
BRANCH   9  12
ATOM     12  O   UNL     1       5.041   3.130  23.586  0.00  0.00    -0.495 OA
ATOM     13  C   UNL     1       3.990   3.385  22.659  0.00  0.00    +0.277 C 
ENDBRANCH   9  12
ENDBRANCH   1   2
BRANCH   1  16
ATOM     14  C   UNL     1       7.024  -5.712  23.231  0.00  0.00    -0.000 C 
ATOM     15  C   UNL     1       7.554  -4.280  23.434  0.00  0.00    +0.026 C 
ATOM     16  C   UNL     1       6.849  -3.286  22.471  0.00  0.00    +0.090 C 
ATOM     17  N   UNL     1       5.632  -3.950  21.883  0.00  0.00    -0.296 NA
ATOM     18  C   UNL     1       4.816  -4.561  22.972  0.00  0.00    +0.092 C 
ATOM     19  C   UNL     1       6.095  -5.066  21.000  0.00  0.00    +0.085 C 
ATOM     20  C   UNL     1       5.510  -5.818  23.560  0.00  0.00    +0.028 C 
ATOM     21  C   UNL     1       7.123  -5.974  21.715  0.00  0.00    +0.019 C 
BRANCH  20  22
ATOM     22  C   UNL     1       5.029  -6.144  24.951  0.00  0.00    -0.030 C 
ATOM     23  C   UNL     1       5.669  -6.030  26.119  0.00  0.00    +0.004 C 
ENDBRANCH  20  22
ENDBRANCH   1  16
BRANCH   1  24
ATOM     24  O   UNL     1       6.650  -1.955  24.561  0.00  0.00    -0.386 OA
ATOM     25  H   UNL     1       7.382  -2.543  24.812  0.00  0.00    +0.210 HD
ENDBRANCH   1  24
TORSDOF 5
ENDMDL
MODEL 7
REMARK VINA RESULT:      -6.2      1.924      3.084
REMARK  Name = 
REMARK  6 active torsions:
REMARK  status: ('A' for Active; 'I' for Inactive)
REMARK    1  A    between atoms: C_7  and  C_9
REMARK    2  A    between atoms: C_11  and  C_14
REMARK    3  A    between atoms: C_14  and  O_16
REMARK    4  A    between atoms: C_14  and  C_17
REMARK    5  A    between atoms: C_20  and  O_21
REMARK    6  A    between atoms: O_21  and  C_22
REMARK                            x       y       z     vdW  Elec       q    Type
REMARK                         _______ _______ _______ _____ _____    ______ ____
ROOT
ATOM      1  C   UNL     1       6.308  -3.823  26.991  0.00  0.00    +0.162 C 
ENDROOT
BRANCH   1   2
ATOM      2  C   UNL     1       7.584  -3.998  26.156  0.00  0.00    -0.007 A 
ATOM      3  C   UNL     1       8.175  -5.273  26.095  0.00  0.00    +0.026 A 
ATOM      4  C   UNL     1       9.277  -5.478  25.296  0.00  0.00    +0.112 A 
ATOM      5  N   UNL     1       9.837  -4.518  24.544  0.00  0.00    -0.255 NA
ATOM      6  C   UNL     1       9.306  -3.292  24.594  0.00  0.00    +0.072 A 
ATOM      7  C   UNL     1       9.922  -2.326  23.817  0.00  0.00    +0.032 A 
ATOM      8  C   UNL     1       9.485  -1.001  23.800  0.00  0.00    +0.048 A 
ATOM      9  C   UNL     1       8.404  -0.627  24.585  0.00  0.00    +0.121 A 
ATOM     10  C   UNL     1       7.757  -1.596  25.368  0.00  0.00    +0.056 A 
ATOM     11  C   UNL     1       8.181  -2.947  25.384  0.00  0.00    +0.010 A 
BRANCH   9  12
ATOM     12  O   UNL     1       7.893   0.638  24.685  0.00  0.00    -0.495 OA
ATOM     13  C   UNL     1       6.507   0.748  24.997  0.00  0.00    +0.277 C 
ENDBRANCH   9  12
ENDBRANCH   1   2
BRANCH   1  16
ATOM     14  C   UNL     1       4.364  -4.336  23.688  0.00  0.00    -0.000 C 
ATOM     15  C   UNL     1       5.116  -3.460  24.708  0.00  0.00    +0.026 C 
ATOM     16  C   UNL     1       4.998  -4.052  26.140  0.00  0.00    +0.090 C 
ATOM     17  N   UNL     1       4.487  -5.466  26.048  0.00  0.00    -0.296 NA
ATOM     18  C   UNL     1       5.288  -6.226  25.045  0.00  0.00    +0.092 C 
ATOM     19  C   UNL     1       3.080  -5.417  25.543  0.00  0.00    +0.085 C 
ATOM     20  C   UNL     1       4.967  -5.764  23.599  0.00  0.00    +0.028 C 
ATOM     21  C   UNL     1       2.954  -4.533  24.279  0.00  0.00    +0.019 C 
BRANCH  20  22
ATOM     22  C   UNL     1       6.076  -6.090  22.631  0.00  0.00    -0.030 C 
ATOM     23  C   UNL     1       7.120  -5.345  22.255  0.00  0.00    +0.004 C 
ENDBRANCH  20  22
ENDBRANCH   1  16
BRANCH   1  24
ATOM     24  O   UNL     1       6.359  -4.720  28.110  0.00  0.00    -0.386 OA
ATOM     25  H   UNL     1       5.656  -5.379  27.989  0.00  0.00    +0.210 HD
ENDBRANCH   1  24
TORSDOF 5
ENDMDL
MODEL 8
REMARK VINA RESULT:      -6.2      1.996      6.061
REMARK  Name = 
REMARK  6 active torsions:
REMARK  status: ('A' for Active; 'I' for Inactive)
REMARK    1  A    between atoms: C_7  and  C_9
REMARK    2  A    between atoms: C_11  and  C_14
REMARK    3  A    between atoms: C_14  and  O_16
REMARK    4  A    between atoms: C_14  and  C_17
REMARK    5  A    between atoms: C_20  and  O_21
REMARK    6  A    between atoms: O_21  and  C_22
REMARK                            x       y       z     vdW  Elec       q    Type
REMARK                         _______ _______ _______ _____ _____    ______ ____
ROOT
ATOM      1  C   UNL     1       8.278  -3.973  25.571  0.00  0.00    +0.162 C 
ENDROOT
BRANCH   1   2
ATOM      2  C   UNL     1       7.264  -4.964  26.158  0.00  0.00    -0.007 A 
ATOM      3  C   UNL     1       7.337  -5.263  27.531  0.00  0.00    +0.026 A 
ATOM      4  C   UNL     1       6.396  -6.091  28.102  0.00  0.00    +0.112 A 
ATOM      5  N   UNL     1       5.380  -6.641  27.419  0.00  0.00    -0.255 NA
ATOM      6  C   UNL     1       5.295  -6.387  26.109  0.00  0.00    +0.072 A 
ATOM      7  C   UNL     1       4.242  -6.985  25.437  0.00  0.00    +0.032 A 
ATOM      8  C   UNL     1       4.056  -6.825  24.064  0.00  0.00    +0.048 A 
ATOM      9  C   UNL     1       4.946  -6.048  23.338  0.00  0.00    +0.121 A 
ATOM     10  C   UNL     1       6.011  -5.420  24.004  0.00  0.00    +0.056 A 
ATOM     11  C   UNL     1       6.204  -5.563  25.400  0.00  0.00    +0.010 A 
BRANCH   9  12
ATOM     12  O   UNL     1       4.897  -5.832  21.988  0.00  0.00    -0.495 OA
ATOM     13  C   UNL     1       6.145  -5.764  21.302  0.00  0.00    +0.277 C 
ENDBRANCH   9  12
ENDBRANCH   1   2
BRANCH   1  16
ATOM     14  C   UNL     1       7.752  -0.517  23.921  0.00  0.00    -0.000 C 
ATOM     15  C   UNL     1       7.545  -1.531  25.062  0.00  0.00    +0.026 C 
ATOM     16  C   UNL     1       7.621  -2.988  24.528  0.00  0.00    +0.090 C 
ATOM     17  N   UNL     1       8.211  -2.975  23.142  0.00  0.00    -0.296 NA
ATOM     18  C   UNL     1       9.464  -2.166  23.136  0.00  0.00    +0.092 C 
ATOM     19  C   UNL     1       7.240  -2.290  22.233  0.00  0.00    +0.085 C 
ATOM     20  C   UNL     1       9.159  -0.652  23.278  0.00  0.00    +0.028 C 
ATOM     21  C   UNL     1       6.765  -0.938  22.815  0.00  0.00    +0.019 C 
BRANCH  20  22
ATOM     22  C   UNL     1      10.339   0.127  23.800  0.00  0.00    -0.030 C 
ATOM     23  C   UNL     1      10.713   0.358  25.063  0.00  0.00    +0.004 C 
ENDBRANCH  20  22
ENDBRANCH   1  16
BRANCH   1  24
ATOM     24  O   UNL     1       8.895  -3.249  26.646  0.00  0.00    -0.386 OA
ATOM     25  H   UNL     1       9.824  -3.101  26.404  0.00  0.00    +0.210 HD
ENDBRANCH   1  24
TORSDOF 5
ENDMDL
MODEL 9
REMARK VINA RESULT:      -6.2      2.135      5.181
REMARK  Name = 
REMARK  6 active torsions:
REMARK  status: ('A' for Active; 'I' for Inactive)
REMARK    1  A    between atoms: C_7  and  C_9
REMARK    2  A    between atoms: C_11  and  C_14
REMARK    3  A    between atoms: C_14  and  O_16
REMARK    4  A    between atoms: C_14  and  C_17
REMARK    5  A    between atoms: C_20  and  O_21
REMARK    6  A    between atoms: O_21  and  C_22
REMARK                            x       y       z     vdW  Elec       q    Type
REMARK                         _______ _______ _______ _____ _____    ______ ____
ROOT
ATOM      1  C   UNL     1       9.167  -4.565  24.686  0.00  0.00    +0.162 C 
ENDROOT
BRANCH   1   2
ATOM      2  C   UNL     1       7.993  -5.148  25.483  0.00  0.00    -0.007 A 
ATOM      3  C   UNL     1       8.143  -5.317  26.871  0.00  0.00    +0.026 A 
ATOM      4  C   UNL     1       7.083  -5.768  27.624  0.00  0.00    +0.112 A 
ATOM      5  N   UNL     1       5.878  -6.059  27.109  0.00  0.00    -0.255 NA
ATOM      6  C   UNL     1       5.710  -5.922  25.789  0.00  0.00    +0.072 A 
ATOM      7  C   UNL     1       4.458  -6.247  25.295  0.00  0.00    +0.032 A 
ATOM      8  C   UNL     1       4.160  -6.176  23.934  0.00  0.00    +0.048 A 
ATOM      9  C   UNL     1       5.140  -5.773  23.039  0.00  0.00    +0.121 A 
ATOM     10  C   UNL     1       6.411  -5.425  23.523  0.00  0.00    +0.056 A 
ATOM     11  C   UNL     1       6.723  -5.479  24.903  0.00  0.00    +0.010 A 
BRANCH   9  12
ATOM     12  O   UNL     1       4.991  -5.687  21.681  0.00  0.00    -0.495 OA
ATOM     13  C   UNL     1       6.181  -5.756  20.899  0.00  0.00    +0.277 C 
ENDBRANCH   9  12
ENDBRANCH   1   2
BRANCH   1  16
ATOM     14  C   UNL     1       7.480  -1.173  23.914  0.00  0.00    -0.000 C 
ATOM     15  C   UNL     1       8.187  -2.474  23.490  0.00  0.00    +0.026 C 
ATOM     16  C   UNL     1       9.124  -2.988  24.618  0.00  0.00    +0.090 C 
ATOM     17  N   UNL     1       8.797  -2.263  25.898  0.00  0.00    -0.296 NA
ATOM     18  C   UNL     1       7.326  -2.307  26.140  0.00  0.00    +0.092 C 
ATOM     19  C   UNL     1       9.172  -0.825  25.722  0.00  0.00    +0.085 C 
ATOM     20  C   UNL     1       6.563  -1.392  25.148  0.00  0.00    +0.028 C 
ATOM     21  C   UNL     1       8.601  -0.240  24.410  0.00  0.00    +0.019 C 
BRANCH  20  22
ATOM     22  C   UNL     1       5.117  -1.790  24.993  0.00  0.00    -0.030 C 
ATOM     23  C   UNL     1       4.333  -2.483  25.825  0.00  0.00    +0.004 C 
ENDBRANCH  20  22
ENDBRANCH   1  16
BRANCH   1  24
ATOM     24  O   UNL     1      10.396  -5.022  25.270  0.00  0.00    -0.386 OA
ATOM     25  H   UNL     1      11.027  -5.170  24.546  0.00  0.00    +0.210 HD
ENDBRANCH   1  24
TORSDOF 5
ENDMDL
