MODEL 1
REMARK VINA RESULT:      -5.1      0.000      0.000
REMARK  Name = 
REMARK  6 active torsions:
REMARK  status: ('A' for Active; 'I' for Inactive)
REMARK    1  A    between atoms: O_1  and  N_2
REMARK    2  A    between atoms: C_5  and  O_6
REMARK    3  A    between atoms: C_5  and  C_14
REMARK    4  A    between atoms: C_8  and  O_10
REMARK    5  A    between atoms: C_11  and  O_13
REMARK    6  A    between atoms: C_14  and  O_15
REMARK                            x       y       z     vdW  Elec       q    Type
REMARK                         _______ _______ _______ _____ _____    ______ ____
ROOT
ATOM      1  N   UNL     1       9.061  -5.642  24.109  0.00  0.00    -0.094 NA
ATOM      2  C   UNL     1       8.135  -4.737  23.988  0.00  0.00    +0.091 C 
ATOM      3  C   UNL     1       6.978  -4.982  23.011  0.00  0.00    +0.190 C 
ATOM      4  C   UNL     1       6.861  -3.792  22.039  0.00  0.00    +0.152 C 
ATOM      5  C   UNL     1       6.892  -2.435  22.750  0.00  0.00    +0.081 C 
ATOM      6  C   UNL     1       8.055  -2.279  23.727  0.00  0.00    +0.170 C 
ATOM      7  C   UNL     1       8.107  -3.422  24.735  0.00  0.00    +0.103 C 
ENDROOT
BRANCH   1   8
ATOM      8  O   UNL     1      10.044  -5.258  25.025  0.00  0.00    -0.409 OA
ATOM      9  H   UNL     1       9.542  -5.189  25.860  0.00  0.00    +0.328 HD
ENDBRANCH   1   8
BRANCH   3  10
ATOM     10  O   UNL     1       7.145  -6.195  22.285  0.00  0.00    -0.383 OA
ATOM     11  H   UNL     1       7.653  -5.969  21.481  0.00  0.00    +0.210 HD
ENDBRANCH   3  10
BRANCH   4  12
ATOM     12  O   UNL     1       5.606  -3.861  21.349  0.00  0.00    -0.389 OA
ATOM     13  H   UNL     1       5.291  -4.780  21.404  0.00  0.00    +0.210 HD
ENDBRANCH   4  12
BRANCH   6  14
ATOM     14  O   UNL     1       7.884  -1.030  24.445  0.00  0.00    -0.377 OA
ATOM     15  H   UNL     1       7.832  -1.234  25.399  0.00  0.00    +0.211 HD
ENDBRANCH   6  14
BRANCH   6  16
ATOM     16  C   UNL     1       9.392  -2.154  22.968  0.00  0.00    +0.337 C 
ATOM     17  O   UNL     1       9.536  -1.606  21.888  0.00  0.00    -0.248 OA
BRANCH  16  18
ATOM     18  O   UNL     1      10.417  -2.703  23.666  0.00  0.00    -0.479 OA
ATOM     19  H   UNL     1      10.618  -2.094  24.418  0.00  0.00    +0.295 HD
ENDBRANCH  16  18
ENDBRANCH   6  16
TORSDOF 6
ENDMDL
MODEL 2
REMARK VINA RESULT:      -5.1      2.794      3.548
REMARK  Name = 
REMARK  6 active torsions:
REMARK  status: ('A' for Active; 'I' for Inactive)
REMARK    1  A    between atoms: O_1  and  N_2
REMARK    2  A    between atoms: C_5  and  O_6
REMARK    3  A    between atoms: C_5  and  C_14
REMARK    4  A    between atoms: C_8  and  O_10
REMARK    5  A    between atoms: C_11  and  O_13
REMARK    6  A    between atoms: C_14  and  O_15
REMARK                            x       y       z     vdW  Elec       q    Type
REMARK                         _______ _______ _______ _____ _____    ______ ____
ROOT
ATOM      1  N   UNL     1       5.299  -6.928  26.566  0.00  0.00    -0.094 NA
ATOM      2  C   UNL     1       5.351  -5.991  25.665  0.00  0.00    +0.091 C 
ATOM      3  C   UNL     1       4.777  -6.267  24.269  0.00  0.00    +0.190 C 
ATOM      4  C   UNL     1       5.845  -5.963  23.202  0.00  0.00    +0.152 C 
ATOM      5  C   UNL     1       6.531  -4.609  23.413  0.00  0.00    +0.081 C 
ATOM      6  C   UNL     1       7.048  -4.397  24.834  0.00  0.00    +0.170 C 
ATOM      7  C   UNL     1       5.958  -4.621  25.875  0.00  0.00    +0.103 C 
ENDROOT
BRANCH   1   8
ATOM      8  O   UNL     1       5.874  -6.519  27.772  0.00  0.00    -0.409 OA
ATOM      9  H   UNL     1       6.500  -5.826  27.487  0.00  0.00    +0.328 HD
ENDBRANCH   1   8
BRANCH   3  10
ATOM     10  O   UNL     1       4.322  -7.611  24.140  0.00  0.00    -0.383 OA
ATOM     11  H   UNL     1       4.757  -8.119  24.852  0.00  0.00    +0.210 HD
ENDBRANCH   3  10
BRANCH   4  12
ATOM     12  O   UNL     1       5.226  -5.907  21.910  0.00  0.00    -0.389 OA
ATOM     13  H   UNL     1       4.307  -6.210  22.011  0.00  0.00    +0.210 HD
ENDBRANCH   4  12
BRANCH   6  14
ATOM     14  O   UNL     1       7.529  -3.032  24.947  0.00  0.00    -0.377 OA
ATOM     15  H   UNL     1       8.452  -3.010  24.628  0.00  0.00    +0.211 HD
ENDBRANCH   6  14
BRANCH   6  16
ATOM     16  C   UNL     1       8.267  -5.300  25.111  0.00  0.00    +0.337 C 
ATOM     17  O   UNL     1       9.144  -5.562  24.304  0.00  0.00    -0.248 OA
BRANCH  16  18
ATOM     18  O   UNL     1       8.274  -5.755  26.389  0.00  0.00    -0.479 OA
ATOM     19  H   UNL     1       8.106  -6.728  26.354  0.00  0.00    +0.295 HD
ENDBRANCH  16  18
ENDBRANCH   6  16
TORSDOF 6
ENDMDL
MODEL 3
REMARK VINA RESULT:      -5.0      3.325      5.047
REMARK  Name = 
REMARK  6 active torsions:
REMARK  status: ('A' for Active; 'I' for Inactive)
REMARK    1  A    between atoms: O_1  and  N_2
REMARK    2  A    between atoms: C_5  and  O_6
REMARK    3  A    between atoms: C_5  and  C_14
REMARK    4  A    between atoms: C_8  and  O_10
REMARK    5  A    between atoms: C_11  and  O_13
REMARK    6  A    between atoms: C_14  and  O_15
REMARK                            x       y       z     vdW  Elec       q    Type
REMARK                         _______ _______ _______ _____ _____    ______ ____
ROOT
ATOM      1  N   UNL     1       9.589   0.927  21.531  0.00  0.00    -0.094 NA
ATOM      2  C   UNL     1       9.801   0.395  22.699  0.00  0.00    +0.091 C 
ATOM      3  C   UNL     1      10.304  -1.053  22.777  0.00  0.00    +0.190 C 
ATOM      4  C   UNL     1       9.371  -1.876  23.687  0.00  0.00    +0.152 C 
ATOM      5  C   UNL     1       9.062  -1.176  25.015  0.00  0.00    +0.081 C 
ATOM      6  C   UNL     1       8.597   0.269  24.855  0.00  0.00    +0.170 C 
ATOM      7  C   UNL     1       9.573   1.092  24.022  0.00  0.00    +0.103 C 
ENDROOT
BRANCH   1   8
ATOM      8  O   UNL     1       9.123   2.240  21.637  0.00  0.00    -0.409 OA
ATOM      9  H   UNL     1       9.747   2.735  21.072  0.00  0.00    +0.328 HD
ENDBRANCH   1   8
BRANCH   3  10
ATOM     10  O   UNL     1      10.391  -1.654  21.489  0.00  0.00    -0.383 OA
ATOM     11  H   UNL     1      11.206  -1.308  21.077  0.00  0.00    +0.210 HD
ENDBRANCH   3  10
BRANCH   4  12
ATOM     12  O   UNL     1      10.003  -3.118  24.019  0.00  0.00    -0.389 OA
ATOM     13  H   UNL     1       9.917  -3.245  24.980  0.00  0.00    +0.210 HD
ENDBRANCH   4  12
BRANCH   6  14
ATOM     14  O   UNL     1       8.491   0.864  26.174  0.00  0.00    -0.377 OA
ATOM     15  H   UNL     1       8.606   1.829  26.080  0.00  0.00    +0.211 HD
ENDBRANCH   6  14
BRANCH   6  16
ATOM     16  C   UNL     1       7.179   0.321  24.251  0.00  0.00    +0.337 C 
ATOM     17  O   UNL     1       6.312  -0.519  24.423  0.00  0.00    -0.248 OA
BRANCH  16  18
ATOM     18  O   UNL     1       6.987   1.447  23.518  0.00  0.00    -0.479 OA
ATOM     19  H   UNL     1       7.205   1.226  22.580  0.00  0.00    +0.295 HD
ENDBRANCH  16  18
ENDBRANCH   6  16
TORSDOF 6
ENDMDL
MODEL 4
REMARK VINA RESULT:      -5.0      3.801      5.201
REMARK  Name = 
REMARK  6 active torsions:
REMARK  status: ('A' for Active; 'I' for Inactive)
REMARK    1  A    between atoms: O_1  and  N_2
REMARK    2  A    between atoms: C_5  and  O_6
REMARK    3  A    between atoms: C_5  and  C_14
REMARK    4  A    between atoms: C_8  and  O_10
REMARK    5  A    between atoms: C_11  and  O_13
REMARK    6  A    between atoms: C_14  and  O_15
REMARK                            x       y       z     vdW  Elec       q    Type
REMARK                         _______ _______ _______ _____ _____    ______ ____
ROOT
ATOM      1  N   UNL     1       9.600  -1.600  22.748  0.00  0.00    -0.094 NA
ATOM      2  C   UNL     1       9.797  -0.520  23.445  0.00  0.00    +0.091 C 
ATOM      3  C   UNL     1       9.205  -0.427  24.857  0.00  0.00    +0.190 C 
ATOM      4  C   UNL     1       8.358   0.856  24.978  0.00  0.00    +0.152 C 
ATOM      5  C   UNL     1       9.078   2.099  24.445  0.00  0.00    +0.081 C 
ATOM      6  C   UNL     1       9.666   1.917  23.047  0.00  0.00    +0.170 C 
ATOM      7  C   UNL     1      10.568   0.691  22.966  0.00  0.00    +0.103 C 
ENDROOT
BRANCH   1   8
ATOM      8  O   UNL     1      10.193  -1.517  21.485  0.00  0.00    -0.409 OA
ATOM      9  H   UNL     1      11.088  -1.871  21.645  0.00  0.00    +0.328 HD
ENDBRANCH   1   8
BRANCH   3  10
ATOM     10  O   UNL     1       8.416  -1.568  25.177  0.00  0.00    -0.383 OA
ATOM     11  H   UNL     1       7.934  -1.808  24.362  0.00  0.00    +0.210 HD
ENDBRANCH   3  10
BRANCH   4  12
ATOM     12  O   UNL     1       8.076   1.111  26.360  0.00  0.00    -0.389 OA
ATOM     13  H   UNL     1       7.368   0.501  26.633  0.00  0.00    +0.210 HD
ENDBRANCH   4  12
BRANCH   6  14
ATOM     14  O   UNL     1      10.449   3.095  22.725  0.00  0.00    -0.377 OA
ATOM     15  H   UNL     1       9.875   3.713  22.231  0.00  0.00    +0.211 HD
ENDBRANCH   6  14
BRANCH   6  16
ATOM     16  C   UNL     1       8.546   1.848  21.990  0.00  0.00    +0.337 C 
ATOM     17  O   UNL     1       7.466   2.408  22.075  0.00  0.00    -0.248 OA
BRANCH  16  18
ATOM     18  O   UNL     1       8.916   1.108  20.915  0.00  0.00    -0.479 OA
ATOM     19  H   UNL     1       8.785   1.669  20.113  0.00  0.00    +0.295 HD
ENDBRANCH  16  18
ENDBRANCH   6  16
TORSDOF 6
ENDMDL
MODEL 5
REMARK VINA RESULT:      -4.9      3.744      5.175
REMARK  Name = 
REMARK  6 active torsions:
REMARK  status: ('A' for Active; 'I' for Inactive)
REMARK    1  A    between atoms: O_1  and  N_2
REMARK    2  A    between atoms: C_5  and  O_6
REMARK    3  A    between atoms: C_5  and  C_14
REMARK    4  A    between atoms: C_8  and  O_10
REMARK    5  A    between atoms: C_11  and  O_13
REMARK    6  A    between atoms: C_14  and  O_15
REMARK                            x       y       z     vdW  Elec       q    Type
REMARK                         _______ _______ _______ _____ _____    ______ ____
ROOT
ATOM      1  N   UNL     1       8.718   2.110  21.868  0.00  0.00    -0.094 NA
ATOM      2  C   UNL     1       8.386   0.918  22.267  0.00  0.00    +0.091 C 
ATOM      3  C   UNL     1       6.930   0.644  22.666  0.00  0.00    +0.190 C 
ATOM      4  C   UNL     1       6.887   0.038  24.083  0.00  0.00    +0.152 C 
ATOM      5  C   UNL     1       7.884  -1.110  24.270  0.00  0.00    +0.081 C 
ATOM      6  C   UNL     1       9.304  -0.771  23.823  0.00  0.00    +0.170 C 
ATOM      7  C   UNL     1       9.339  -0.251  22.390  0.00  0.00    +0.103 C 
ENDROOT
BRANCH   1   8
ATOM      8  O   UNL     1      10.077   2.192  21.557  0.00  0.00    -0.409 OA
ATOM      9  H   UNL     1      10.354   3.009  22.015  0.00  0.00    +0.328 HD
ENDBRANCH   1   8
BRANCH   3  10
ATOM     10  O   UNL     1       6.135   1.825  22.613  0.00  0.00    -0.383 OA
ATOM     11  H   UNL     1       6.019   2.037  21.666  0.00  0.00    +0.210 HD
ENDBRANCH   3  10
BRANCH   4  12
ATOM     12  O   UNL     1       5.585  -0.510  24.327  0.00  0.00    -0.389 OA
ATOM     13  H   UNL     1       5.555  -0.792  25.258  0.00  0.00    +0.210 HD
ENDBRANCH   4  12
BRANCH   6  14
ATOM     14  O   UNL     1      10.108  -1.976  23.903  0.00  0.00    -0.377 OA
ATOM     15  H   UNL     1      10.626  -2.048  23.077  0.00  0.00    +0.211 HD
ENDBRANCH   6  14
BRANCH   6  16
ATOM     16  C   UNL     1       9.954   0.238  24.791  0.00  0.00    +0.337 C 
ATOM     17  O   UNL     1      10.720   1.130  24.465  0.00  0.00    -0.248 OA
BRANCH  16  18
ATOM     18  O   UNL     1       9.545   0.041  26.069  0.00  0.00    -0.479 OA
ATOM     19  H   UNL     1       9.352  -0.923  26.169  0.00  0.00    +0.295 HD
ENDBRANCH  16  18
ENDBRANCH   6  16
TORSDOF 6
ENDMDL
MODEL 6
REMARK VINA RESULT:      -4.9      3.264      4.850
REMARK  Name = 
REMARK  6 active torsions:
REMARK  status: ('A' for Active; 'I' for Inactive)
REMARK    1  A    between atoms: O_1  and  N_2
REMARK    2  A    between atoms: C_5  and  O_6
REMARK    3  A    between atoms: C_5  and  C_14
REMARK    4  A    between atoms: C_8  and  O_10
REMARK    5  A    between atoms: C_11  and  O_13
REMARK    6  A    between atoms: C_14  and  O_15
REMARK                            x       y       z     vdW  Elec       q    Type
REMARK                         _______ _______ _______ _____ _____    ______ ____
ROOT
ATOM      1  N   UNL     1       6.381  -0.678  23.944  0.00  0.00    -0.094 NA
ATOM      2  C   UNL     1       7.195  -0.362  22.979  0.00  0.00    +0.091 C 
ATOM      3  C   UNL     1       8.168  -1.423  22.449  0.00  0.00    +0.190 C 
ATOM      4  C   UNL     1       9.607  -0.871  22.492  0.00  0.00    +0.152 C 
ATOM      5  C   UNL     1       9.724   0.536  21.897  0.00  0.00    +0.081 C 
ATOM      6  C   UNL     1       8.702   1.526  22.452  0.00  0.00    +0.170 C 
ATOM      7  C   UNL     1       7.276   1.000  22.326  0.00  0.00    +0.103 C 
ENDROOT
BRANCH   1   8
ATOM      8  O   UNL     1       5.575   0.402  24.314  0.00  0.00    -0.409 OA
ATOM      9  H   UNL     1       5.760   1.058  23.615  0.00  0.00    +0.328 HD
ENDBRANCH   1   8
BRANCH   3  10
ATOM     10  O   UNL     1       8.085  -2.636  23.191  0.00  0.00    -0.383 OA
ATOM     11  H   UNL     1       7.316  -2.544  23.786  0.00  0.00    +0.210 HD
ENDBRANCH   3  10
BRANCH   4  12
ATOM     12  O   UNL     1      10.464  -1.715  21.712  0.00  0.00    -0.389 OA
ATOM     13  H   UNL     1       9.907  -2.183  21.066  0.00  0.00    +0.210 HD
ENDBRANCH   4  12
BRANCH   6  14
ATOM     14  O   UNL     1       8.812   2.764  21.703  0.00  0.00    -0.377 OA
ATOM     15  H   UNL     1       9.560   2.675  21.081  0.00  0.00    +0.211 HD
ENDBRANCH   6  14
BRANCH   6  16
ATOM     16  C   UNL     1       9.030   1.884  23.915  0.00  0.00    +0.337 C 
ATOM     17  O   UNL     1      10.150   1.910  24.397  0.00  0.00    -0.248 OA
BRANCH  16  18
ATOM     18  O   UNL     1       7.913   2.207  24.614  0.00  0.00    -0.479 OA
ATOM     19  H   UNL     1       7.903   1.644  25.426  0.00  0.00    +0.295 HD
ENDBRANCH  16  18
ENDBRANCH   6  16
TORSDOF 6
ENDMDL
MODEL 7
REMARK VINA RESULT:      -4.8      2.286      4.115
REMARK  Name = 
REMARK  6 active torsions:
REMARK  status: ('A' for Active; 'I' for Inactive)
REMARK    1  A    between atoms: O_1  and  N_2
REMARK    2  A    between atoms: C_5  and  O_6
REMARK    3  A    between atoms: C_5  and  C_14
REMARK    4  A    between atoms: C_8  and  O_10
REMARK    5  A    between atoms: C_11  and  O_13
REMARK    6  A    between atoms: C_14  and  O_15
REMARK                            x       y       z     vdW  Elec       q    Type
REMARK                         _______ _______ _______ _____ _____    ______ ____
ROOT
ATOM      1  N   UNL     1       9.788  -4.017  24.609  0.00  0.00    -0.094 NA
ATOM      2  C   UNL     1       8.500  -4.001  24.431  0.00  0.00    +0.091 C 
ATOM      3  C   UNL     1       7.795  -2.656  24.212  0.00  0.00    +0.190 C 
ATOM      4  C   UNL     1       6.646  -2.503  25.228  0.00  0.00    +0.152 C 
ATOM      5  C   UNL     1       5.755  -3.747  25.313  0.00  0.00    +0.081 C 
ATOM      6  C   UNL     1       6.531  -5.048  25.500  0.00  0.00    +0.170 C 
ATOM      7  C   UNL     1       7.610  -5.225  24.438  0.00  0.00    +0.103 C 
ENDROOT
BRANCH   1   8
ATOM      8  O   UNL     1      10.267  -5.315  24.806  0.00  0.00    -0.409 OA
ATOM      9  H   UNL     1      10.008  -5.767  23.980  0.00  0.00    +0.328 HD
ENDBRANCH   1   8
BRANCH   3  10
ATOM     10  O   UNL     1       8.698  -1.561  24.323  0.00  0.00    -0.383 OA
ATOM     11  H   UNL     1       9.437  -1.748  23.712  0.00  0.00    +0.210 HD
ENDBRANCH   3  10
BRANCH   4  12
ATOM     12  O   UNL     1       5.797  -1.421  24.827  0.00  0.00    -0.389 OA
ATOM     13  H   UNL     1       5.606  -1.532  23.879  0.00  0.00    +0.210 HD
ENDBRANCH   4  12
BRANCH   6  14
ATOM     14  O   UNL     1       5.597  -6.155  25.407  0.00  0.00    -0.377 OA
ATOM     15  H   UNL     1       5.288  -6.365  26.310  0.00  0.00    +0.211 HD
ENDBRANCH   6  14
BRANCH   6  16
ATOM     16  C   UNL     1       7.137  -5.122  26.917  0.00  0.00    +0.337 C 
ATOM     17  O   UNL     1       6.640  -4.633  27.918  0.00  0.00    -0.248 OA
BRANCH  16  18
ATOM     18  O   UNL     1       8.291  -5.835  26.932  0.00  0.00    -0.479 OA
ATOM     19  H   UNL     1       8.583  -5.899  27.873  0.00  0.00    +0.295 HD
ENDBRANCH  16  18
ENDBRANCH   6  16
TORSDOF 6
ENDMDL
MODEL 8
REMARK VINA RESULT:      -4.7      4.582      5.258
REMARK  Name = 
REMARK  6 active torsions:
REMARK  status: ('A' for Active; 'I' for Inactive)
REMARK    1  A    between atoms: O_1  and  N_2
REMARK    2  A    between atoms: C_5  and  O_6
REMARK    3  A    between atoms: C_5  and  C_14
REMARK    4  A    between atoms: C_8  and  O_10
REMARK    5  A    between atoms: C_11  and  O_13
REMARK    6  A    between atoms: C_14  and  O_15
REMARK                            x       y       z     vdW  Elec       q    Type
REMARK                         _______ _______ _______ _____ _____    ______ ____
ROOT
ATOM      1  N   UNL     1       8.658   0.381  25.565  0.00  0.00    -0.094 NA
ATOM      2  C   UNL     1       8.484   1.259  24.621  0.00  0.00    +0.091 C 
ATOM      3  C   UNL     1       7.055   1.636  24.208  0.00  0.00    +0.190 C 
ATOM      4  C   UNL     1       6.891   1.452  22.687  0.00  0.00    +0.152 C 
ATOM      5  C   UNL     1       8.033   2.083  21.883  0.00  0.00    +0.081 C 
ATOM      6  C   UNL     1       9.424   1.684  22.374  0.00  0.00    +0.170 C 
ATOM      7  C   UNL     1       9.598   1.950  23.865  0.00  0.00    +0.103 C 
ENDROOT
BRANCH   1   8
ATOM      8  O   UNL     1      10.014   0.145  25.808  0.00  0.00    -0.409 OA
ATOM      9  H   UNL     1      10.127  -0.778  25.509  0.00  0.00    +0.328 HD
ENDBRANCH   1   8
BRANCH   3  10
ATOM     10  O   UNL     1       6.082   0.863  24.904  0.00  0.00    -0.383 OA
ATOM     11  H   UNL     1       5.458   1.500  25.304  0.00  0.00    +0.210 HD
ENDBRANCH   3  10
BRANCH   4  12
ATOM     12  O   UNL     1       5.686   2.098  22.256  0.00  0.00    -0.389 OA
ATOM     13  H   UNL     1       5.280   2.513  23.037  0.00  0.00    +0.210 HD
ENDBRANCH   4  12
BRANCH   6  14
ATOM     14  O   UNL     1      10.406   2.462  21.642  0.00  0.00    -0.377 OA
ATOM     15  H   UNL     1      10.011   2.720  20.787  0.00  0.00    +0.211 HD
ENDBRANCH   6  14
BRANCH   6  16
ATOM     16  C   UNL     1       9.717   0.207  22.039  0.00  0.00    +0.337 C 
ATOM     17  O   UNL     1       9.309  -0.382  21.053  0.00  0.00    -0.248 OA
BRANCH  16  18
ATOM     18  O   UNL     1      10.523  -0.366  22.967  0.00  0.00    -0.479 OA
ATOM     19  H   UNL     1      10.503   0.211  23.769  0.00  0.00    +0.295 HD
ENDBRANCH  16  18
ENDBRANCH   6  16
TORSDOF 6
ENDMDL
MODEL 9
REMARK VINA RESULT:      -4.7      2.858      4.194
REMARK  Name = 
REMARK  6 active torsions:
REMARK  status: ('A' for Active; 'I' for Inactive)
REMARK    1  A    between atoms: O_1  and  N_2
REMARK    2  A    between atoms: C_5  and  O_6
REMARK    3  A    between atoms: C_5  and  C_14
REMARK    4  A    between atoms: C_8  and  O_10
REMARK    5  A    between atoms: C_11  and  O_13
REMARK    6  A    between atoms: C_14  and  O_15
REMARK                            x       y       z     vdW  Elec       q    Type
REMARK                         _______ _______ _______ _____ _____    ______ ____
ROOT
ATOM      1  N   UNL     1       8.011   1.088  24.778  0.00  0.00    -0.094 NA
ATOM      2  C   UNL     1       7.933   0.387  23.685  0.00  0.00    +0.091 C 
ATOM      3  C   UNL     1       6.598  -0.273  23.318  0.00  0.00    +0.190 C 
ATOM      4  C   UNL     1       6.815  -1.779  23.076  0.00  0.00    +0.152 C 
ATOM      5  C   UNL     1       8.008  -2.071  22.160  0.00  0.00    +0.081 C 
ATOM      6  C   UNL     1       9.291  -1.354  22.574  0.00  0.00    +0.170 C 
ATOM      7  C   UNL     1       9.079   0.147  22.727  0.00  0.00    +0.103 C 
ENDROOT
BRANCH   1   8
ATOM      8  O   UNL     1       9.295   1.607  24.970  0.00  0.00    -0.409 OA
ATOM      9  H   UNL     1       9.516   1.304  25.871  0.00  0.00    +0.328 HD
ENDBRANCH   1   8
BRANCH   3  10
ATOM     10  O   UNL     1       5.613  -0.073  24.327  0.00  0.00    -0.383 OA
ATOM     11  H   UNL     1       5.032  -0.859  24.305  0.00  0.00    +0.210 HD
ENDBRANCH   3  10
BRANCH   4  12
ATOM     12  O   UNL     1       5.661  -2.329  22.429  0.00  0.00    -0.389 OA
ATOM     13  H   UNL     1       5.545  -3.239  22.756  0.00  0.00    +0.210 HD
ENDBRANCH   4  12
BRANCH   6  14
ATOM     14  O   UNL     1      10.293  -1.583  21.549  0.00  0.00    -0.377 OA
ATOM     15  H   UNL     1      10.381  -2.548  21.424  0.00  0.00    +0.211 HD
ENDBRANCH   6  14
BRANCH   6  16
ATOM     16  C   UNL     1       9.863  -1.965  23.869  0.00  0.00    +0.337 C 
ATOM     17  O   UNL     1       9.974  -3.160  24.091  0.00  0.00    -0.248 OA
BRANCH  16  18
ATOM     18  O   UNL     1      10.267  -1.006  24.739  0.00  0.00    -0.479 OA
ATOM     19  H   UNL     1       9.784  -0.177  24.505  0.00  0.00    +0.295 HD
ENDBRANCH  16  18
ENDBRANCH   6  16
TORSDOF 6
ENDMDL
