MODEL 1
REMARK VINA RESULT:      -6.6      0.000      0.000
REMARK  Name = 
REMARK  19 active torsions:
REMARK  status: ('A' for Active; 'I' for Inactive)
REMARK    1  A    between atoms: C_1  and  C_2
REMARK    2  A    between atoms: C_2  and  N_3
REMARK    3  A    between atoms: N_7  and  C_8
REMARK    4  A    between atoms: C_8  and  C_9
REMARK    5  A    between atoms: C_8  and  C_10
REMARK    6  A    between atoms: C_12  and  S_13
REMARK    7  A    between atoms: S_13  and  C_14
REMARK    8  A    between atoms: C_14  and  C_15
REMARK    9  A    between atoms: C_15  and  N_17
REMARK   10  A    between atoms: C_15  and  C_28
REMARK   11  A    between atoms: C_18  and  C_20
REMARK   12  A    between atoms: C_20  and  C_21
REMARK   13  A    between atoms: C_21  and  C_22
REMARK   14  A    between atoms: C_22  and  N_24
REMARK   15  A    between atoms: C_22  and  C_25
REMARK   16  A    between atoms: C_25  and  O_26
REMARK   17  A    between atoms: N_30  and  CA_31
REMARK   18  A    between atoms: CA_31  and  C_32
REMARK   19  A    between atoms: C_32  and  O_33
REMARK                            x       y       z     vdW  Elec       q    Type
REMARK                         _______ _______ _______ _____ _____    ______ ____
ROOT
ATOM      1  C   UNK A   1       8.485  -2.422  23.224  0.00  0.00    +0.169 C 
ENDROOT
BRANCH   1   2
ATOM      2  N   UNK A   1       7.922  -3.614  22.566  0.00  0.00    -0.303 N 
ATOM      3  H   UNK A   1       8.520  -4.420  22.438  0.00  0.00    +0.149 HD
ATOM      4  C   UNK A   1       6.623  -3.665  22.117  0.00  0.00    +0.214 C 
ATOM      5  O   UNK A   1       5.861  -2.707  22.176  0.00  0.00    -0.276 OA
BRANCH   4   6
ATOM      6  C   UNK A   1       6.221  -5.003  21.531  0.00  0.00    +0.098 C 
BRANCH   6   7
ATOM      7  C   UNK A   1       6.332  -6.104  22.596  0.00  0.00    +0.039 C 
BRANCH   7   8
ATOM      8  C   UNK A   1       5.029  -6.435  23.325  0.00  0.00    +0.161 C 
BRANCH   8   9
ATOM      9  N   UNK A   1       3.837  -5.960  22.567  0.00  0.00    -0.318 NA
ATOM     10  H   UNK A   1       3.229  -6.771  22.413  0.00  0.00    +0.119 HD
ATOM     11  H   UNK A   1       3.284  -5.367  23.200  0.00  0.00    +0.119 HD
ENDBRANCH   8   9
BRANCH   8  12
ATOM     12  C   UNK A   1       5.022  -5.780  24.715  0.00  0.00    +0.322 C 
ATOM     13  O   UNK A   1       4.948  -4.583  24.932  0.00  0.00    -0.249 OA
BRANCH  12  14
ATOM     14  O   UNK A   1       5.031  -6.723  25.695  0.00  0.00    -0.480 OA
ATOM     15  H   UNK A   1       5.985  -6.916  25.881  0.00  0.00    +0.295 HD
ENDBRANCH  12  14
ENDBRANCH   8  12
ENDBRANCH   7   8
ENDBRANCH   6   7
ENDBRANCH   4   6
ENDBRANCH   1   2
BRANCH   1  16
ATOM     16  C   UNK A   1       8.817  -2.712  24.712  0.00  0.00    +0.235 C 
ATOM     17  N   GLY A   2       9.004  -4.049  25.027  0.00  0.00    -0.303 N 
ATOM     18  H   GLY A   2       8.799  -4.734  24.310  0.00  0.00    +0.149 HD
ATOM     19  O   UNK A   1       8.777  -1.853  25.590  0.00  0.00    -0.274 OA
BRANCH  17  20
ATOM     20  CA  GLY A   2       9.040  -4.511  26.417  0.00  0.00    +0.224 C 
BRANCH  20  21
ATOM     21  C   GLY A   2       7.684  -4.890  26.999  0.00  0.00    +0.322 C 
ATOM     22  OXT GLY A   2       7.392  -6.023  27.371  0.00  0.00    -0.249 OA
BRANCH  21  23
ATOM     23  O   GLY A   2       6.822  -3.849  27.115  0.00  0.00    -0.480 OA
ATOM     24  H   GLY A   2       7.186  -3.052  26.677  0.00  0.00    +0.295 HD
ENDBRANCH  21  23
ENDBRANCH  20  21
ENDBRANCH  17  20
ENDBRANCH   1  16
BRANCH   1  25
ATOM     25  C   UNK A   1       9.704  -1.771  22.535  0.00  0.00    +0.109 C 
BRANCH  25  26
ATOM     26  S   UNK A   1       9.270  -0.366  21.428  0.00  0.00    -0.084 S 
BRANCH  26  31
ATOM     27  N   UNK A   1      11.311   3.902  23.005  0.00  0.00    -0.314 N 
ATOM     28  H   UNK A   1      11.472   3.949  22.005  0.00  0.00    +0.149 HD
ATOM     29  C   UNK A   1      10.387   2.888  23.242  0.00  0.00    +0.220 A 
ATOM     30  N   UNK A   1      10.266   1.956  22.305  0.00  0.00    -0.189 NA
ATOM     31  C   UNK A   1       9.390   0.993  22.588  0.00  0.00    +0.194 A 
ATOM     32  N   UNK A   1       8.627   0.945  23.670  0.00  0.00    -0.189 NA
ATOM     33  C   UNK A   1       8.843   1.896  24.557  0.00  0.00    +0.221 A 
ATOM     34  N   UNK A   1       8.217   1.867  25.783  0.00  0.00    -0.311 N 
ATOM     35  H   UNK A   1       8.406   2.728  26.280  0.00  0.00    +0.149 HD
ATOM     36  N   UNK A   1       9.700   2.890  24.379  0.00  0.00    -0.181 NA
BRANCH  34  37
ATOM     37  C   UNK A   1       6.880   1.314  25.896  0.00  0.00    +0.067 C 
ATOM     38  C   UNK A   1       5.842   2.421  25.719  0.00  0.00    +0.027 C 
ATOM     39  C   UNK A   1       6.751   0.682  27.281  0.00  0.00    +0.027 C 
ENDBRANCH  34  37
BRANCH  27  41
ATOM     40  C   UNK A   1      12.333   5.929  23.904  0.00  0.00    +0.024 C 
ATOM     41  C   UNK A   1      11.039   5.162  23.681  0.00  0.00    +0.101 C 
ENDBRANCH  27  41
ENDBRANCH  26  31
ENDBRANCH  25  26
ENDBRANCH   1  25
TORSDOF 16
ENDMDL
MODEL 2
REMARK VINA RESULT:      -6.6      2.595      8.170
REMARK  Name = 
REMARK  19 active torsions:
REMARK  status: ('A' for Active; 'I' for Inactive)
REMARK    1  A    between atoms: C_1  and  C_2
REMARK    2  A    between atoms: C_2  and  N_3
REMARK    3  A    between atoms: N_7  and  C_8
REMARK    4  A    between atoms: C_8  and  C_9
REMARK    5  A    between atoms: C_8  and  C_10
REMARK    6  A    between atoms: C_12  and  S_13
REMARK    7  A    between atoms: S_13  and  C_14
REMARK    8  A    between atoms: C_14  and  C_15
REMARK    9  A    between atoms: C_15  and  N_17
REMARK   10  A    between atoms: C_15  and  C_28
REMARK   11  A    between atoms: C_18  and  C_20
REMARK   12  A    between atoms: C_20  and  C_21
REMARK   13  A    between atoms: C_21  and  C_22
REMARK   14  A    between atoms: C_22  and  N_24
REMARK   15  A    between atoms: C_22  and  C_25
REMARK   16  A    between atoms: C_25  and  O_26
REMARK   17  A    between atoms: N_30  and  CA_31
REMARK   18  A    between atoms: CA_31  and  C_32
REMARK   19  A    between atoms: C_32  and  O_33
REMARK                            x       y       z     vdW  Elec       q    Type
REMARK                         _______ _______ _______ _____ _____    ______ ____
ROOT
ATOM      1  C   UNK A   1       7.759  -2.234  22.587  0.00  0.00    +0.169 C 
ENDROOT
BRANCH   1   2
ATOM      2  N   UNK A   1       7.812  -0.773  22.403  0.00  0.00    -0.303 N 
ATOM      3  H   UNK A   1       7.059  -0.213  22.783  0.00  0.00    +0.149 HD
ATOM      4  C   UNK A   1       8.837  -0.150  21.731  0.00  0.00    +0.214 C 
ATOM      5  O   UNK A   1       9.745  -0.765  21.186  0.00  0.00    -0.276 OA
BRANCH   4   6
ATOM      6  C   UNK A   1       8.737   1.362  21.711  0.00  0.00    +0.098 C 
BRANCH   6   7
ATOM      7  C   UNK A   1       9.550   1.963  22.867  0.00  0.00    +0.039 C 
BRANCH   7   8
ATOM      8  C   UNK A   1       9.135   1.498  24.263  0.00  0.00    +0.161 C 
BRANCH   8   9
ATOM      9  N   UNK A   1       8.807   2.649  25.152  0.00  0.00    -0.318 NA
ATOM     10  H   UNK A   1       8.921   2.331  26.120  0.00  0.00    +0.119 HD
ATOM     11  H   UNK A   1       9.555   3.347  25.043  0.00  0.00    +0.119 HD
ENDBRANCH   8   9
BRANCH   8  12
ATOM     12  C   UNK A   1      10.267   0.685  24.908  0.00  0.00    +0.322 C 
ATOM     13  O   UNK A   1      11.440   0.724  24.580  0.00  0.00    -0.249 OA
BRANCH  12  14
ATOM     14  O   UNK A   1       9.804  -0.040  25.961  0.00  0.00    -0.480 OA
ATOM     15  H   UNK A   1       9.031  -0.556  25.620  0.00  0.00    +0.295 HD
ENDBRANCH  12  14
ENDBRANCH   8  12
ENDBRANCH   7   8
ENDBRANCH   6   7
ENDBRANCH   4   6
ENDBRANCH   1   2
BRANCH   1  16
ATOM     16  C   UNK A   1       8.505  -2.661  23.879  0.00  0.00    +0.235 C 
ATOM     17  N   GLY A   2       7.690  -3.006  24.946  0.00  0.00    -0.303 N 
ATOM     18  H   GLY A   2       6.695  -2.847  24.848  0.00  0.00    +0.149 HD
ATOM     19  O   UNK A   1       9.722  -2.566  24.016  0.00  0.00    -0.274 OA
BRANCH  17  20
ATOM     20  CA  GLY A   2       8.224  -3.154  26.302  0.00  0.00    +0.224 C 
BRANCH  20  21
ATOM     21  C   GLY A   2       8.620  -4.576  26.679  0.00  0.00    +0.322 C 
ATOM     22  OXT GLY A   2       7.947  -5.303  27.405  0.00  0.00    -0.249 OA
BRANCH  21  23
ATOM     23  O   GLY A   2       9.773  -4.999  26.105  0.00  0.00    -0.480 OA
ATOM     24  H   GLY A   2      10.000  -5.900  26.415  0.00  0.00    +0.295 HD
ENDBRANCH  21  23
ENDBRANCH  20  21
ENDBRANCH  17  20
ENDBRANCH   1  16
BRANCH   1  25
ATOM     25  C   UNK A   1       6.356  -2.878  22.558  0.00  0.00    +0.109 C 
BRANCH  25  26
ATOM     26  S   UNK A   1       6.331  -4.575  21.843  0.00  0.00    -0.084 S 
BRANCH  26  31
ATOM     27  N   UNK A   1       5.620  -6.487  26.394  0.00  0.00    -0.314 N 
ATOM     28  H   UNK A   1       6.309  -5.764  26.574  0.00  0.00    +0.149 HD
ATOM     29  C   UNK A   1       5.103  -6.275  25.118  0.00  0.00    +0.220 A 
ATOM     30  N   UNK A   1       5.847  -5.565  24.280  0.00  0.00    -0.189 NA
ATOM     31  C   UNK A   1       5.324  -5.412  23.064  0.00  0.00    +0.194 A 
ATOM     32  N   UNK A   1       4.136  -5.854  22.681  0.00  0.00    -0.189 NA
ATOM     33  C   UNK A   1       3.487  -6.577  23.572  0.00  0.00    +0.221 A 
ATOM     34  N   UNK A   1       2.311  -7.213  23.238  0.00  0.00    -0.311 N 
ATOM     35  H   UNK A   1       1.897  -7.615  24.069  0.00  0.00    +0.149 HD
ATOM     36  N   UNK A   1       3.925  -6.799  24.802  0.00  0.00    -0.181 NA
BRANCH  34  37
ATOM     37  C   UNK A   1       1.413  -6.605  22.274  0.00  0.00    +0.067 C 
ATOM     38  C   UNK A   1       0.508  -5.591  22.972  0.00  0.00    +0.027 C 
ATOM     39  C   UNK A   1       0.576  -7.720  21.648  0.00  0.00    +0.027 C 
ENDBRANCH  34  37
BRANCH  27  41
ATOM     40  C   UNK A   1       4.370  -5.437  28.209  0.00  0.00    +0.024 C 
ATOM     41  C   UNK A   1       4.631  -6.720  27.435  0.00  0.00    +0.101 C 
ENDBRANCH  27  41
ENDBRANCH  26  31
ENDBRANCH  25  26
ENDBRANCH   1  25
TORSDOF 16
ENDMDL
MODEL 3
REMARK VINA RESULT:      -6.4      2.768      7.891
REMARK  Name = 
REMARK  19 active torsions:
REMARK  status: ('A' for Active; 'I' for Inactive)
REMARK    1  A    between atoms: C_1  and  C_2
REMARK    2  A    between atoms: C_2  and  N_3
REMARK    3  A    between atoms: N_7  and  C_8
REMARK    4  A    between atoms: C_8  and  C_9
REMARK    5  A    between atoms: C_8  and  C_10
REMARK    6  A    between atoms: C_12  and  S_13
REMARK    7  A    between atoms: S_13  and  C_14
REMARK    8  A    between atoms: C_14  and  C_15
REMARK    9  A    between atoms: C_15  and  N_17
REMARK   10  A    between atoms: C_15  and  C_28
REMARK   11  A    between atoms: C_18  and  C_20
REMARK   12  A    between atoms: C_20  and  C_21
REMARK   13  A    between atoms: C_21  and  C_22
REMARK   14  A    between atoms: C_22  and  N_24
REMARK   15  A    between atoms: C_22  and  C_25
REMARK   16  A    between atoms: C_25  and  O_26
REMARK   17  A    between atoms: N_30  and  CA_31
REMARK   18  A    between atoms: CA_31  and  C_32
REMARK   19  A    between atoms: C_32  and  O_33
REMARK                            x       y       z     vdW  Elec       q    Type
REMARK                         _______ _______ _______ _____ _____    ______ ____
ROOT
ATOM      1  C   UNK A   1       8.950  -2.718  23.658  0.00  0.00    +0.169 C 
ENDROOT
BRANCH   1   2
ATOM      2  N   UNK A   1       9.398  -1.477  24.312  0.00  0.00    -0.303 N 
ATOM      3  H   UNK A   1       9.089  -1.294  25.259  0.00  0.00    +0.149 HD
ATOM      4  C   UNK A   1      10.209  -0.561  23.683  0.00  0.00    +0.214 C 
ATOM      5  O   UNK A   1      10.567  -0.680  22.519  0.00  0.00    -0.276 OA
BRANCH   4   6
ATOM      6  C   UNK A   1      10.608   0.614  24.553  0.00  0.00    +0.098 C 
BRANCH   6   7
ATOM      7  C   UNK A   1       9.469   1.642  24.612  0.00  0.00    +0.039 C 
BRANCH   7   8
ATOM      8  C   UNK A   1       9.625   2.839  23.673  0.00  0.00    +0.161 C 
BRANCH   8   9
ATOM      9  N   UNK A   1       9.080   4.087  24.276  0.00  0.00    -0.318 NA
ATOM     10  H   UNK A   1       9.797   4.814  24.177  0.00  0.00    +0.119 HD
ATOM     11  H   UNK A   1       8.321   4.419  23.667  0.00  0.00    +0.119 HD
ENDBRANCH   8   9
BRANCH   8  12
ATOM     12  C   UNK A   1       8.892   2.570  22.350  0.00  0.00    +0.322 C 
ATOM     13  O   UNK A   1       7.721   2.820  22.127  0.00  0.00    -0.249 OA
BRANCH  12  14
ATOM     14  O   UNK A   1       9.748   2.079  21.413  0.00  0.00    -0.480 OA
ATOM     15  H   UNK A   1       9.769   2.748  20.683  0.00  0.00    +0.295 HD
ENDBRANCH  12  14
ENDBRANCH   8  12
ENDBRANCH   7   8
ENDBRANCH   6   7
ENDBRANCH   4   6
ENDBRANCH   1   2
BRANCH   1  16
ATOM     16  C   UNK A   1       9.038  -3.924  24.631  0.00  0.00    +0.235 C 
ATOM     17  N   GLY A   2       8.146  -3.894  25.692  0.00  0.00    -0.303 N 
ATOM     18  H   GLY A   2       7.597  -3.054  25.820  0.00  0.00    +0.149 HD
ATOM     19  O   UNK A   1       9.921  -4.776  24.569  0.00  0.00    -0.274 OA
BRANCH  17  20
ATOM     20  CA  GLY A   2       8.289  -4.794  26.839  0.00  0.00    +0.224 C 
BRANCH  20  21
ATOM     21  C   GLY A   2       7.001  -5.486  27.270  0.00  0.00    +0.322 C 
ATOM     22  OXT GLY A   2       6.610  -5.540  28.433  0.00  0.00    -0.249 OA
BRANCH  21  23
ATOM     23  O   GLY A   2       6.286  -6.010  26.244  0.00  0.00    -0.480 OA
ATOM     24  H   GLY A   2       5.757  -6.776  26.551  0.00  0.00    +0.295 HD
ENDBRANCH  21  23
ENDBRANCH  20  21
ENDBRANCH  17  20
ENDBRANCH   1  16
BRANCH   1  25
ATOM     25  C   UNK A   1       7.554  -2.682  22.999  0.00  0.00    +0.109 C 
BRANCH  25  26
ATOM     26  S   UNK A   1       7.051  -4.279  22.235  0.00  0.00    -0.084 S 
BRANCH  26  31
ATOM     27  N   UNK A   1       2.649  -6.567  22.740  0.00  0.00    -0.314 N 
ATOM     28  H   UNK A   1       3.186  -7.256  22.225  0.00  0.00    +0.149 HD
ATOM     29  C   UNK A   1       3.536  -5.614  23.231  0.00  0.00    +0.220 A 
ATOM     30  N   UNK A   1       4.705  -5.508  22.613  0.00  0.00    -0.189 NA
ATOM     31  C   UNK A   1       5.510  -4.565  23.101  0.00  0.00    +0.194 A 
ATOM     32  N   UNK A   1       5.248  -3.804  24.154  0.00  0.00    -0.189 NA
ATOM     33  C   UNK A   1       4.049  -3.959  24.679  0.00  0.00    +0.221 A 
ATOM     34  N   UNK A   1       3.608  -3.123  25.681  0.00  0.00    -0.311 N 
ATOM     35  H   UNK A   1       2.725  -3.462  26.041  0.00  0.00    +0.149 HD
ATOM     36  N   UNK A   1       3.170  -4.858  24.260  0.00  0.00    -0.181 NA
BRANCH  34  37
ATOM     37  C   UNK A   1       4.556  -2.589  26.641  0.00  0.00    +0.067 C 
ATOM     38  C   UNK A   1       4.176  -3.034  28.052  0.00  0.00    +0.027 C 
ATOM     39  C   UNK A   1       4.516  -1.064  26.538  0.00  0.00    +0.027 C 
ENDBRANCH  34  37
BRANCH  27  41
ATOM     40  C   UNK A   1       2.141  -8.431  24.233  0.00  0.00    +0.024 C 
ATOM     41  C   UNK A   1       1.688  -7.079  23.706  0.00  0.00    +0.101 C 
ENDBRANCH  27  41
ENDBRANCH  26  31
ENDBRANCH  25  26
ENDBRANCH   1  25
TORSDOF 16
ENDMDL
MODEL 4
REMARK VINA RESULT:      -6.4      2.044      4.572
REMARK  Name = 
REMARK  19 active torsions:
REMARK  status: ('A' for Active; 'I' for Inactive)
REMARK    1  A    between atoms: C_1  and  C_2
REMARK    2  A    between atoms: C_2  and  N_3
REMARK    3  A    between atoms: N_7  and  C_8
REMARK    4  A    between atoms: C_8  and  C_9
REMARK    5  A    between atoms: C_8  and  C_10
REMARK    6  A    between atoms: C_12  and  S_13
REMARK    7  A    between atoms: S_13  and  C_14
REMARK    8  A    between atoms: C_14  and  C_15
REMARK    9  A    between atoms: C_15  and  N_17
REMARK   10  A    between atoms: C_15  and  C_28
REMARK   11  A    between atoms: C_18  and  C_20
REMARK   12  A    between atoms: C_20  and  C_21
REMARK   13  A    between atoms: C_21  and  C_22
REMARK   14  A    between atoms: C_22  and  N_24
REMARK   15  A    between atoms: C_22  and  C_25
REMARK   16  A    between atoms: C_25  and  O_26
REMARK   17  A    between atoms: N_30  and  CA_31
REMARK   18  A    between atoms: CA_31  and  C_32
REMARK   19  A    between atoms: C_32  and  O_33
REMARK                            x       y       z     vdW  Elec       q    Type
REMARK                         _______ _______ _______ _____ _____    ______ ____
ROOT
ATOM      1  C   UNK A   1       9.085  -2.137  24.381  0.00  0.00    +0.169 C 
ENDROOT
BRANCH   1   2
ATOM      2  N   UNK A   1       8.567  -3.105  25.363  0.00  0.00    -0.303 N 
ATOM      3  H   UNK A   1       7.825  -2.809  25.985  0.00  0.00    +0.149 HD
ATOM      4  C   UNK A   1       9.058  -4.386  25.468  0.00  0.00    +0.214 C 
ATOM      5  O   UNK A   1       9.999  -4.794  24.798  0.00  0.00    -0.276 OA
BRANCH   4   6
ATOM      6  C   UNK A   1       8.344  -5.241  26.496  0.00  0.00    +0.098 C 
BRANCH   6   7
ATOM      7  C   UNK A   1       7.150  -4.478  27.085  0.00  0.00    +0.039 C 
BRANCH   7   8
ATOM      8  C   UNK A   1       5.790  -5.152  26.894  0.00  0.00    +0.161 C 
BRANCH   8   9
ATOM      9  N   UNK A   1       5.861  -6.617  27.154  0.00  0.00    -0.318 NA
ATOM     10  H   UNK A   1       6.612  -6.772  27.835  0.00  0.00    +0.119 HD
ATOM     11  H   UNK A   1       5.013  -6.881  27.674  0.00  0.00    +0.119 HD
ENDBRANCH   8   9
BRANCH   8  12
ATOM     12  C   UNK A   1       5.289  -4.930  25.459  0.00  0.00    +0.322 C 
ATOM     13  O   UNK A   1       4.954  -3.858  24.985  0.00  0.00    -0.249 OA
BRANCH  12  14
ATOM     14  O   UNK A   1       5.338  -6.087  24.745  0.00  0.00    -0.480 OA
ATOM     15  H   UNK A   1       5.237  -5.826  23.795  0.00  0.00    +0.295 HD
ENDBRANCH  12  14
ENDBRANCH   8  12
ENDBRANCH   7   8
ENDBRANCH   6   7
ENDBRANCH   4   6
ENDBRANCH   1   2
BRANCH   1  16
ATOM     16  C   UNK A   1       8.349  -2.275  23.021  0.00  0.00    +0.235 C 
ATOM     17  N   GLY A   2       7.092  -2.858  23.085  0.00  0.00    -0.303 N 
ATOM     18  H   GLY A   2       6.801  -3.250  23.972  0.00  0.00    +0.149 HD
ATOM     19  O   UNK A   1       8.879  -2.030  21.941  0.00  0.00    -0.274 OA
BRANCH  17  20
ATOM     20  CA  GLY A   2       6.396  -3.315  21.880  0.00  0.00    +0.224 C 
BRANCH  20  21
ATOM     21  C   GLY A   2       6.474  -4.816  21.629  0.00  0.00    +0.322 C 
ATOM     22  OXT GLY A   2       5.971  -5.373  20.657  0.00  0.00    -0.249 OA
BRANCH  21  23
ATOM     23  O   GLY A   2       7.192  -5.495  22.557  0.00  0.00    -0.480 OA
ATOM     24  H   GLY A   2       8.083  -5.101  22.657  0.00  0.00    +0.295 HD
ENDBRANCH  21  23
ENDBRANCH  20  21
ENDBRANCH  17  20
ENDBRANCH   1  16
BRANCH   1  25
ATOM     25  C   UNK A   1       9.098  -0.657  24.818  0.00  0.00    +0.109 C 
BRANCH  25  26
ATOM     26  S   UNK A   1      10.598   0.264  24.278  0.00  0.00    -0.084 S 
BRANCH  26  31
ATOM     27  N   UNK A   1       6.740   3.422  24.149  0.00  0.00    -0.314 N 
ATOM     28  H   UNK A   1       6.385   2.680  24.742  0.00  0.00    +0.149 HD
ATOM     29  C   UNK A   1       8.116   3.248  24.025  0.00  0.00    +0.220 A 
ATOM     30  N   UNK A   1       8.590   2.031  24.259  0.00  0.00    -0.189 NA
ATOM     31  C   UNK A   1       9.907   1.907  24.102  0.00  0.00    +0.194 A 
ATOM     32  N   UNK A   1      10.738   2.893  23.798  0.00  0.00    -0.189 NA
ATOM     33  C   UNK A   1      10.169   4.056  23.550  0.00  0.00    +0.221 A 
ATOM     34  N   UNK A   1      10.914   5.115  23.081  0.00  0.00    -0.311 N 
ATOM     35  H   UNK A   1      10.342   5.950  23.064  0.00  0.00    +0.149 HD
ATOM     36  N   UNK A   1       8.869   4.281  23.665  0.00  0.00    -0.181 NA
BRANCH  34  37
ATOM     37  C   UNK A   1      12.296   5.265  23.499  0.00  0.00    +0.067 C 
ATOM     38  C   UNK A   1      12.405   6.366  24.552  0.00  0.00    +0.027 C 
ATOM     39  C   UNK A   1      13.121   5.628  22.265  0.00  0.00    +0.027 C 
ENDBRANCH  34  37
BRANCH  27  41
ATOM     40  C   UNK A   1       4.920   4.753  25.085  0.00  0.00    +0.024 C 
ATOM     41  C   UNK A   1       6.310   4.775  24.469  0.00  0.00    +0.101 C 
ENDBRANCH  27  41
ENDBRANCH  26  31
ENDBRANCH  25  26
ENDBRANCH   1  25
TORSDOF 16
ENDMDL
MODEL 5
REMARK VINA RESULT:      -6.3      3.050      8.075
REMARK  Name = 
REMARK  19 active torsions:
REMARK  status: ('A' for Active; 'I' for Inactive)
REMARK    1  A    between atoms: C_1  and  C_2
REMARK    2  A    between atoms: C_2  and  N_3
REMARK    3  A    between atoms: N_7  and  C_8
REMARK    4  A    between atoms: C_8  and  C_9
REMARK    5  A    between atoms: C_8  and  C_10
REMARK    6  A    between atoms: C_12  and  S_13
REMARK    7  A    between atoms: S_13  and  C_14
REMARK    8  A    between atoms: C_14  and  C_15
REMARK    9  A    between atoms: C_15  and  N_17
REMARK   10  A    between atoms: C_15  and  C_28
REMARK   11  A    between atoms: C_18  and  C_20
REMARK   12  A    between atoms: C_20  and  C_21
REMARK   13  A    between atoms: C_21  and  C_22
REMARK   14  A    between atoms: C_22  and  N_24
REMARK   15  A    between atoms: C_22  and  C_25
REMARK   16  A    between atoms: C_25  and  O_26
REMARK   17  A    between atoms: N_30  and  CA_31
REMARK   18  A    between atoms: CA_31  and  C_32
REMARK   19  A    between atoms: C_32  and  O_33
REMARK                            x       y       z     vdW  Elec       q    Type
REMARK                         _______ _______ _______ _____ _____    ______ ____
ROOT
ATOM      1  C   UNK A   1       8.568  -2.662  24.316  0.00  0.00    +0.169 C 
ENDROOT
BRANCH   1   2
ATOM      2  N   UNK A   1       9.548  -1.563  24.279  0.00  0.00    -0.303 N 
ATOM      3  H   UNK A   1      10.201  -1.527  23.508  0.00  0.00    +0.149 HD
ATOM      4  C   UNK A   1       9.609  -0.595  25.255  0.00  0.00    +0.214 C 
ATOM      5  O   UNK A   1       8.897  -0.610  26.251  0.00  0.00    -0.276 OA
BRANCH   4   6
ATOM      6  C   UNK A   1      10.642   0.483  24.995  0.00  0.00    +0.098 C 
BRANCH   6   7
ATOM      7  C   UNK A   1       9.963   1.756  24.472  0.00  0.00    +0.039 C 
BRANCH   7   8
ATOM      8  C   UNK A   1      10.486   2.266  23.128  0.00  0.00    +0.161 C 
BRANCH   8   9
ATOM      9  N   UNK A   1      10.247   3.727  22.963  0.00  0.00    -0.318 NA
ATOM     10  H   UNK A   1       9.543   4.003  23.656  0.00  0.00    +0.119 HD
ATOM     11  H   UNK A   1      11.095   4.217  23.279  0.00  0.00    +0.119 HD
ENDBRANCH   8   9
BRANCH   8  12
ATOM     12  C   UNK A   1       9.794   1.520  21.976  0.00  0.00    +0.322 C 
ATOM     13  O   UNK A   1       9.988   0.357  21.670  0.00  0.00    -0.249 OA
BRANCH  12  14
ATOM     14  O   UNK A   1       8.864   2.312  21.377  0.00  0.00    -0.480 OA
ATOM     15  H   UNK A   1       8.025   1.787  21.364  0.00  0.00    +0.295 HD
ENDBRANCH  12  14
ENDBRANCH   8  12
ENDBRANCH   7   8
ENDBRANCH   6   7
ENDBRANCH   4   6
ENDBRANCH   1   2
BRANCH   1  16
ATOM     16  C   UNK A   1       7.766  -2.739  22.990  0.00  0.00    +0.235 C 
ATOM     17  N   GLY A   2       6.600  -3.487  23.045  0.00  0.00    -0.303 N 
ATOM     18  H   GLY A   2       6.420  -4.014  23.891  0.00  0.00    +0.149 HD
ATOM     19  O   UNK A   1       8.188  -2.302  21.922  0.00  0.00    -0.274 OA
BRANCH  17  20
ATOM     20  CA  GLY A   2       5.888  -3.889  21.830  0.00  0.00    +0.224 C 
BRANCH  20  21
ATOM     21  C   GLY A   2       6.250  -5.275  21.309  0.00  0.00    +0.322 C 
ATOM     22  OXT GLY A   2       6.021  -5.656  20.164  0.00  0.00    -0.249 OA
BRANCH  21  23
ATOM     23  O   GLY A   2       6.895  -6.054  22.212  0.00  0.00    -0.480 OA
ATOM     24  H   GLY A   2       7.683  -5.591  22.564  0.00  0.00    +0.295 HD
ENDBRANCH  21  23
ENDBRANCH  20  21
ENDBRANCH  17  20
ENDBRANCH   1  16
BRANCH   1  25
ATOM     25  C   UNK A   1       9.118  -4.060  24.674  0.00  0.00    +0.109 C 
BRANCH  25  26
ATOM     26  S   UNK A   1       8.719  -4.600  26.388  0.00  0.00    -0.084 S 
BRANCH  26  31
ATOM     27  N   UNK A   1       4.714  -6.704  24.291  0.00  0.00    -0.314 N 
ATOM     28  H   UNK A   1       5.424  -7.413  24.146  0.00  0.00    +0.149 HD
ATOM     29  C   UNK A   1       5.206  -5.790  25.219  0.00  0.00    +0.220 A 
ATOM     30  N   UNK A   1       6.524  -5.730  25.361  0.00  0.00    -0.189 NA
ATOM     31  C   UNK A   1       6.949  -4.823  26.239  0.00  0.00    +0.194 A 
ATOM     32  N   UNK A   1       6.169  -4.056  26.985  0.00  0.00    -0.189 NA
ATOM     33  C   UNK A   1       4.877  -4.163  26.748  0.00  0.00    +0.221 A 
ATOM     34  N   UNK A   1       3.979  -3.312  27.354  0.00  0.00    -0.311 N 
ATOM     35  H   UNK A   1       3.035  -3.615  27.151  0.00  0.00    +0.149 HD
ATOM     36  N   UNK A   1       4.353  -5.022  25.887  0.00  0.00    -0.181 NA
BRANCH  34  37
ATOM     37  C   UNK A   1       4.246  -2.820  28.693  0.00  0.00    +0.067 C 
ATOM     38  C   UNK A   1       3.303  -3.489  29.692  0.00  0.00    +0.027 C 
ATOM     39  C   UNK A   1       4.025  -1.308  28.688  0.00  0.00    +0.027 C 
ENDBRANCH  34  37
BRANCH  27  41
ATOM     40  C   UNK A   1       2.440  -6.768  23.405  0.00  0.00    +0.024 C 
ATOM     41  C   UNK A   1       3.361  -7.179  24.543  0.00  0.00    +0.101 C 
ENDBRANCH  27  41
ENDBRANCH  26  31
ENDBRANCH  25  26
ENDBRANCH   1  25
TORSDOF 16
ENDMDL
MODEL 6
REMARK VINA RESULT:      -6.3      2.900      8.120
REMARK  Name = 
REMARK  19 active torsions:
REMARK  status: ('A' for Active; 'I' for Inactive)
REMARK    1  A    between atoms: C_1  and  C_2
REMARK    2  A    between atoms: C_2  and  N_3
REMARK    3  A    between atoms: N_7  and  C_8
REMARK    4  A    between atoms: C_8  and  C_9
REMARK    5  A    between atoms: C_8  and  C_10
REMARK    6  A    between atoms: C_12  and  S_13
REMARK    7  A    between atoms: S_13  and  C_14
REMARK    8  A    between atoms: C_14  and  C_15
REMARK    9  A    between atoms: C_15  and  N_17
REMARK   10  A    between atoms: C_15  and  C_28
REMARK   11  A    between atoms: C_18  and  C_20
REMARK   12  A    between atoms: C_20  and  C_21
REMARK   13  A    between atoms: C_21  and  C_22
REMARK   14  A    between atoms: C_22  and  N_24
REMARK   15  A    between atoms: C_22  and  C_25
REMARK   16  A    between atoms: C_25  and  O_26
REMARK   17  A    between atoms: N_30  and  CA_31
REMARK   18  A    between atoms: CA_31  and  C_32
REMARK   19  A    between atoms: C_32  and  O_33
REMARK                            x       y       z     vdW  Elec       q    Type
REMARK                         _______ _______ _______ _____ _____    ______ ____
ROOT
ATOM      1  C   UNK A   1       8.201  -2.663  22.324  0.00  0.00    +0.169 C 
ENDROOT
BRANCH   1   2
ATOM      2  N   UNK A   1       8.585  -1.304  21.902  0.00  0.00    -0.303 N 
ATOM      3  H   UNK A   1       9.252  -1.205  21.148  0.00  0.00    +0.149 HD
ATOM      4  C   UNK A   1       8.076  -0.175  22.499  0.00  0.00    +0.214 C 
ATOM      5  O   UNK A   1       7.317  -0.214  23.460  0.00  0.00    -0.276 OA
BRANCH   4   6
ATOM      6  C   UNK A   1       8.547   1.123  21.874  0.00  0.00    +0.098 C 
BRANCH   6   7
ATOM      7  C   UNK A   1      10.052   1.311  22.109  0.00  0.00    +0.039 C 
BRANCH   7   8
ATOM      8  C   UNK A   1      10.472   1.412  23.576  0.00  0.00    +0.161 C 
BRANCH   8   9
ATOM      9  N   UNK A   1      10.425   0.086  24.255  0.00  0.00    -0.318 NA
ATOM     10  H   UNK A   1      11.310  -0.032  24.760  0.00  0.00    +0.119 HD
ATOM     11  H   UNK A   1       9.729   0.150  25.010  0.00  0.00    +0.119 HD
ENDBRANCH   8   9
BRANCH   8  12
ATOM     12  C   UNK A   1       9.546   2.382  24.324  0.00  0.00    +0.322 C 
ATOM     13  O   UNK A   1       9.382   3.558  24.048  0.00  0.00    -0.249 OA
BRANCH  12  14
ATOM     14  O   UNK A   1       8.859   1.737  25.305  0.00  0.00    -0.480 OA
ATOM     15  H   UNK A   1       8.764   0.799  25.001  0.00  0.00    +0.295 HD
ENDBRANCH  12  14
ENDBRANCH   8  12
ENDBRANCH   7   8
ENDBRANCH   6   7
ENDBRANCH   4   6
ENDBRANCH   1   2
BRANCH   1  16
ATOM     16  C   UNK A   1       8.682  -2.954  23.770  0.00  0.00    +0.235 C 
ATOM     17  N   GLY A   2       7.700  -2.878  24.747  0.00  0.00    -0.303 N 
ATOM     18  H   GLY A   2       6.790  -2.532  24.471  0.00  0.00    +0.149 HD
ATOM     19  O   UNK A   1       9.864  -3.097  24.071  0.00  0.00    -0.274 OA
BRANCH  17  20
ATOM     20  CA  GLY A   2       8.037  -2.845  26.172  0.00  0.00    +0.224 C 
BRANCH  20  21
ATOM     21  C   GLY A   2       8.105  -1.448  26.778  0.00  0.00    +0.322 C 
ATOM     22  OXT GLY A   2       9.143  -0.803  26.893  0.00  0.00    -0.249 OA
BRANCH  21  23
ATOM     23  O   GLY A   2       6.900  -0.947  27.147  0.00  0.00    -0.480 OA
ATOM     24  H   GLY A   2       6.734  -1.118  28.097  0.00  0.00    +0.295 HD
ENDBRANCH  21  23
ENDBRANCH  20  21
ENDBRANCH  17  20
ENDBRANCH   1  16
BRANCH   1  25
ATOM     25  C   UNK A   1       6.707  -3.027  22.188  0.00  0.00    +0.109 C 
BRANCH  25  26
ATOM     26  S   UNK A   1       6.411  -4.724  21.541  0.00  0.00    -0.084 S 
BRANCH  26  31
ATOM     27  N   UNK A   1       6.116  -6.101  26.325  0.00  0.00    -0.314 N 
ATOM     28  H   UNK A   1       6.790  -5.344  26.365  0.00  0.00    +0.149 HD
ATOM     29  C   UNK A   1       5.497  -6.055  25.079  0.00  0.00    +0.220 A 
ATOM     30  N   UNK A   1       6.149  -5.431  24.107  0.00  0.00    -0.189 NA
ATOM     31  C   UNK A   1       5.530  -5.437  22.927  0.00  0.00    +0.194 A 
ATOM     32  N   UNK A   1       4.332  -5.952  22.693  0.00  0.00    -0.189 NA
ATOM     33  C   UNK A   1       3.779  -6.580  23.711  0.00  0.00    +0.221 A 
ATOM     34  N   UNK A   1       2.605  -7.282  23.549  0.00  0.00    -0.311 N 
ATOM     35  H   UNK A   1       2.269  -7.593  24.451  0.00  0.00    +0.149 HD
ATOM     36  N   UNK A   1       4.316  -6.644  24.920  0.00  0.00    -0.181 NA
BRANCH  34  37
ATOM     37  C   UNK A   1       1.615  -6.817  22.595  0.00  0.00    +0.067 C 
ATOM     38  C   UNK A   1       0.542  -6.000  23.313  0.00  0.00    +0.027 C 
ATOM     39  C   UNK A   1       0.991  -8.045  21.932  0.00  0.00    +0.027 C 
ENDBRANCH  34  37
BRANCH  27  41
ATOM     40  C   UNK A   1       4.956  -4.873  28.088  0.00  0.00    +0.024 C 
ATOM     41  C   UNK A   1       5.217  -6.234  27.462  0.00  0.00    +0.101 C 
ENDBRANCH  27  41
ENDBRANCH  26  31
ENDBRANCH  25  26
ENDBRANCH   1  25
TORSDOF 16
ENDMDL
MODEL 7
REMARK VINA RESULT:      -6.2      3.093      5.731
REMARK  Name = 
REMARK  19 active torsions:
REMARK  status: ('A' for Active; 'I' for Inactive)
REMARK    1  A    between atoms: C_1  and  C_2
REMARK    2  A    between atoms: C_2  and  N_3
REMARK    3  A    between atoms: N_7  and  C_8
REMARK    4  A    between atoms: C_8  and  C_9
REMARK    5  A    between atoms: C_8  and  C_10
REMARK    6  A    between atoms: C_12  and  S_13
REMARK    7  A    between atoms: S_13  and  C_14
REMARK    8  A    between atoms: C_14  and  C_15
REMARK    9  A    between atoms: C_15  and  N_17
REMARK   10  A    between atoms: C_15  and  C_28
REMARK   11  A    between atoms: C_18  and  C_20
REMARK   12  A    between atoms: C_20  and  C_21
REMARK   13  A    between atoms: C_21  and  C_22
REMARK   14  A    between atoms: C_22  and  N_24
REMARK   15  A    between atoms: C_22  and  C_25
REMARK   16  A    between atoms: C_25  and  O_26
REMARK   17  A    between atoms: N_30  and  CA_31
REMARK   18  A    between atoms: CA_31  and  C_32
REMARK   19  A    between atoms: C_32  and  O_33
REMARK                            x       y       z     vdW  Elec       q    Type
REMARK                         _______ _______ _______ _____ _____    ______ ____
ROOT
ATOM      1  C   UNK A   1       3.742  -2.507  26.859  0.00  0.00    +0.169 C 
ENDROOT
BRANCH   1   2
ATOM      2  N   UNK A   1       3.653  -3.512  25.786  0.00  0.00    -0.303 N 
ATOM      3  H   UNK A   1       4.471  -4.070  25.580  0.00  0.00    +0.149 HD
ATOM      4  C   UNK A   1       2.505  -3.711  25.054  0.00  0.00    +0.214 C 
ATOM      5  O   UNK A   1       1.498  -3.029  25.199  0.00  0.00    -0.276 OA
BRANCH   4   6
ATOM      6  C   UNK A   1       2.601  -4.837  24.044  0.00  0.00    +0.098 C 
BRANCH   6   7
ATOM      7  C   UNK A   1       1.966  -6.114  24.610  0.00  0.00    +0.039 C 
BRANCH   7   8
ATOM      8  C   UNK A   1       2.863  -6.925  25.547  0.00  0.00    +0.161 C 
BRANCH   8   9
ATOM      9  N   UNK A   1       2.824  -6.398  26.940  0.00  0.00    -0.318 NA
ATOM     10  H   UNK A   1       2.540  -5.414  26.888  0.00  0.00    +0.119 HD
ATOM     11  H   UNK A   1       2.033  -6.848  27.419  0.00  0.00    +0.119 HD
ENDBRANCH   8   9
BRANCH   8  12
ATOM     12  C   UNK A   1       4.315  -6.890  25.047  0.00  0.00    +0.322 C 
ATOM     13  O   UNK A   1       5.238  -6.315  25.596  0.00  0.00    -0.249 OA
BRANCH  12  14
ATOM     14  O   UNK A   1       4.463  -7.660  23.935  0.00  0.00    -0.480 OA
ATOM     15  H   UNK A   1       3.701  -8.292  23.936  0.00  0.00    +0.295 HD
ENDBRANCH  12  14
ENDBRANCH   8  12
ENDBRANCH   7   8
ENDBRANCH   6   7
ENDBRANCH   4   6
ENDBRANCH   1   2
BRANCH   1  16
ATOM     16  C   UNK A   1       4.343  -3.123  28.151  0.00  0.00    +0.235 C 
ATOM     17  N   GLY A   2       5.094  -4.274  27.963  0.00  0.00    -0.303 N 
ATOM     18  H   GLY A   2       5.099  -4.686  27.039  0.00  0.00    +0.149 HD
ATOM     19  O   UNK A   1       4.066  -2.724  29.279  0.00  0.00    -0.274 OA
BRANCH  17  20
ATOM     20  CA  GLY A   2       5.486  -5.125  29.089  0.00  0.00    +0.224 C 
BRANCH  20  21
ATOM     21  C   GLY A   2       6.278  -6.368  28.702  0.00  0.00    +0.322 C 
ATOM     22  OXT GLY A   2       5.937  -7.512  28.989  0.00  0.00    -0.249 OA
BRANCH  21  23
ATOM     23  O   GLY A   2       7.387  -6.110  27.966  0.00  0.00    -0.480 OA
ATOM     24  H   GLY A   2       8.195  -6.316  28.479  0.00  0.00    +0.295 HD
ENDBRANCH  21  23
ENDBRANCH  20  21
ENDBRANCH  17  20
ENDBRANCH   1  16
BRANCH   1  25
ATOM     25  C   UNK A   1       4.484  -1.198  26.513  0.00  0.00    +0.109 C 
BRANCH  25  26
ATOM     26  S   UNK A   1       6.226  -1.152  27.104  0.00  0.00    -0.084 S 
BRANCH  26  31
ATOM     27  N   UNK A   1       7.168  -4.963  24.030  0.00  0.00    -0.314 N 
ATOM     28  H   UNK A   1       6.233  -5.182  24.355  0.00  0.00    +0.149 HD
ATOM     29  C   UNK A   1       7.445  -3.644  24.379  0.00  0.00    +0.220 A 
ATOM     30  N   UNK A   1       6.736  -3.126  25.373  0.00  0.00    -0.189 NA
ATOM     31  C   UNK A   1       7.054  -1.871  25.689  0.00  0.00    +0.194 A 
ATOM     32  N   UNK A   1       7.952  -1.128  25.060  0.00  0.00    -0.189 NA
ATOM     33  C   UNK A   1       8.628  -1.741  24.110  0.00  0.00    +0.221 A 
ATOM     34  N   UNK A   1       9.687  -1.117  23.487  0.00  0.00    -0.311 N 
ATOM     35  H   UNK A   1      10.005  -1.684  22.711  0.00  0.00    +0.149 HD
ATOM     36  N   UNK A   1       8.399  -2.988  23.728  0.00  0.00    -0.181 NA
BRANCH  34  37
ATOM     37  C   UNK A   1       9.663   0.321  23.295  0.00  0.00    +0.067 C 
ATOM     38  C   UNK A   1       9.818   0.651  21.811  0.00  0.00    +0.027 C 
ATOM     39  C   UNK A   1      10.820   0.919  24.094  0.00  0.00    +0.027 C 
ENDBRANCH  34  37
BRANCH  27  41
ATOM     40  C   UNK A   1       6.203  -5.443  21.839  0.00  0.00    +0.024 C 
ATOM     41  C   UNK A   1       7.481  -5.321  22.654  0.00  0.00    +0.101 C 
ENDBRANCH  27  41
ENDBRANCH  26  31
ENDBRANCH  25  26
ENDBRANCH   1  25
TORSDOF 16
ENDMDL
MODEL 8
REMARK VINA RESULT:      -6.2      2.426      4.707
REMARK  Name = 
REMARK  19 active torsions:
REMARK  status: ('A' for Active; 'I' for Inactive)
REMARK    1  A    between atoms: C_1  and  C_2
REMARK    2  A    between atoms: C_2  and  N_3
REMARK    3  A    between atoms: N_7  and  C_8
REMARK    4  A    between atoms: C_8  and  C_9
REMARK    5  A    between atoms: C_8  and  C_10
REMARK    6  A    between atoms: C_12  and  S_13
REMARK    7  A    between atoms: S_13  and  C_14
REMARK    8  A    between atoms: C_14  and  C_15
REMARK    9  A    between atoms: C_15  and  N_17
REMARK   10  A    between atoms: C_15  and  C_28
REMARK   11  A    between atoms: C_18  and  C_20
REMARK   12  A    between atoms: C_20  and  C_21
REMARK   13  A    between atoms: C_21  and  C_22
REMARK   14  A    between atoms: C_22  and  N_24
REMARK   15  A    between atoms: C_22  and  C_25
REMARK   16  A    between atoms: C_25  and  O_26
REMARK   17  A    between atoms: N_30  and  CA_31
REMARK   18  A    between atoms: CA_31  and  C_32
REMARK   19  A    between atoms: C_32  and  O_33
REMARK                            x       y       z     vdW  Elec       q    Type
REMARK                         _______ _______ _______ _____ _____    ______ ____
ROOT
ATOM      1  C   UNK A   1       8.265  -2.973  26.159  0.00  0.00    +0.169 C 
ENDROOT
BRANCH   1   2
ATOM      2  N   UNK A   1       7.002  -3.604  26.581  0.00  0.00    -0.303 N 
ATOM      3  H   UNK A   1       6.143  -3.079  26.474  0.00  0.00    +0.149 HD
ATOM      4  C   UNK A   1       6.952  -4.869  27.118  0.00  0.00    +0.214 C 
ATOM      5  O   UNK A   1       7.954  -5.537  27.340  0.00  0.00    -0.276 OA
BRANCH   4   6
ATOM      6  C   UNK A   1       5.550  -5.358  27.423  0.00  0.00    +0.098 C 
BRANCH   6   7
ATOM      7  C   UNK A   1       5.130  -6.433  26.411  0.00  0.00    +0.039 C 
BRANCH   7   8
ATOM      8  C   UNK A   1       4.997  -5.948  24.967  0.00  0.00    +0.161 C 
BRANCH   8   9
ATOM      9  N   UNK A   1       4.356  -4.605  24.894  0.00  0.00    -0.318 NA
ATOM     10  H   UNK A   1       5.065  -3.912  25.155  0.00  0.00    +0.119 HD
ATOM     11  H   UNK A   1       4.179  -4.399  23.902  0.00  0.00    +0.119 HD
ENDBRANCH   8   9
BRANCH   8  12
ATOM     12  C   UNK A   1       4.153  -6.941  24.153  0.00  0.00    +0.322 C 
ATOM     13  O   UNK A   1       3.635  -7.954  24.591  0.00  0.00    -0.249 OA
BRANCH  12  14
ATOM     14  O   UNK A   1       3.987  -6.503  22.876  0.00  0.00    -0.480 OA
ATOM     15  H   UNK A   1       3.938  -7.315  22.312  0.00  0.00    +0.295 HD
ENDBRANCH  12  14
ENDBRANCH   8  12
ENDBRANCH   7   8
ENDBRANCH   6   7
ENDBRANCH   4   6
ENDBRANCH   1   2
BRANCH   1  16
ATOM     16  C   UNK A   1       8.510  -3.177  24.640  0.00  0.00    +0.235 C 
ATOM     17  N   GLY A   2       7.474  -2.769  23.814  0.00  0.00    -0.303 N 
ATOM     18  H   GLY A   2       6.607  -2.485  24.253  0.00  0.00    +0.149 HD
ATOM     19  O   UNK A   1       9.477  -3.786  24.191  0.00  0.00    -0.274 OA
BRANCH  17  20
ATOM     20  CA  GLY A   2       7.426  -3.148  22.400  0.00  0.00    +0.224 C 
BRANCH  20  21
ATOM     21  C   GLY A   2       6.459  -4.279  22.075  0.00  0.00    +0.322 C 
ATOM     22  OXT GLY A   2       6.799  -5.452  21.941  0.00  0.00    -0.249 OA
BRANCH  21  23
ATOM     23  O   GLY A   2       5.163  -3.890  21.988  0.00  0.00    -0.480 OA
ATOM     24  H   GLY A   2       4.603  -4.631  21.676  0.00  0.00    +0.295 HD
ENDBRANCH  21  23
ENDBRANCH  20  21
ENDBRANCH  17  20
ENDBRANCH   1  16
BRANCH   1  25
ATOM     25  C   UNK A   1       8.440  -1.481  26.520  0.00  0.00    +0.109 C 
BRANCH  25  26
ATOM     26  S   UNK A   1       6.875  -0.648  27.017  0.00  0.00    -0.084 S 
BRANCH  26  31
ATOM     27  N   UNK A   1       4.192   2.658  24.421  0.00  0.00    -0.314 N 
ATOM     28  H   UNK A   1       3.922   2.871  25.375  0.00  0.00    +0.149 HD
ATOM     29  C   UNK A   1       5.320   1.844  24.467  0.00  0.00    +0.220 A 
ATOM     30  N   UNK A   1       5.528   1.171  25.592  0.00  0.00    -0.189 NA
ATOM     31  C   UNK A   1       6.604   0.386  25.580  0.00  0.00    +0.194 A 
ATOM     32  N   UNK A   1       7.469   0.287  24.582  0.00  0.00    -0.189 NA
ATOM     33  C   UNK A   1       7.159   0.966  23.495  0.00  0.00    +0.221 A 
ATOM     34  N   UNK A   1       7.901   0.826  22.344  0.00  0.00    -0.311 N 
ATOM     35  H   UNK A   1       7.596   1.505  21.659  0.00  0.00    +0.149 HD
ATOM     36  N   UNK A   1       6.106   1.765  23.400  0.00  0.00    -0.181 NA
BRANCH  34  37
ATOM     37  C   UNK A   1       9.327   0.567  22.434  0.00  0.00    +0.067 C 
ATOM     38  C   UNK A   1      10.109   1.840  22.113  0.00  0.00    +0.027 C 
ATOM     39  C   UNK A   1       9.667  -0.531  21.427  0.00  0.00    +0.027 C 
ENDBRANCH  34  37
BRANCH  27  41
ATOM     40  C   UNK A   1       4.041   5.088  24.242  0.00  0.00    +0.024 C 
ATOM     41  C   UNK A   1       4.273   3.782  23.499  0.00  0.00    +0.101 C 
ENDBRANCH  27  41
ENDBRANCH  26  31
ENDBRANCH  25  26
ENDBRANCH   1  25
TORSDOF 16
ENDMDL
MODEL 9
REMARK VINA RESULT:      -6.2      2.168      4.740
REMARK  Name = 
REMARK  19 active torsions:
REMARK  status: ('A' for Active; 'I' for Inactive)
REMARK    1  A    between atoms: C_1  and  C_2
REMARK    2  A    between atoms: C_2  and  N_3
REMARK    3  A    between atoms: N_7  and  C_8
REMARK    4  A    between atoms: C_8  and  C_9
REMARK    5  A    between atoms: C_8  and  C_10
REMARK    6  A    between atoms: C_12  and  S_13
REMARK    7  A    between atoms: S_13  and  C_14
REMARK    8  A    between atoms: C_14  and  C_15
REMARK    9  A    between atoms: C_15  and  N_17
REMARK   10  A    between atoms: C_15  and  C_28
REMARK   11  A    between atoms: C_18  and  C_20
REMARK   12  A    between atoms: C_20  and  C_21
REMARK   13  A    between atoms: C_21  and  C_22
REMARK   14  A    between atoms: C_22  and  N_24
REMARK   15  A    between atoms: C_22  and  C_25
REMARK   16  A    between atoms: C_25  and  O_26
REMARK   17  A    between atoms: N_30  and  CA_31
REMARK   18  A    between atoms: CA_31  and  C_32
REMARK   19  A    between atoms: C_32  and  O_33
REMARK                            x       y       z     vdW  Elec       q    Type
REMARK                         _______ _______ _______ _____ _____    ______ ____
ROOT
ATOM      1  C   UNK A   1       8.320  -2.522  25.940  0.00  0.00    +0.169 C 
ENDROOT
BRANCH   1   2
ATOM      2  N   UNK A   1       7.113  -3.361  26.047  0.00  0.00    -0.303 N 
ATOM      3  H   UNK A   1       6.240  -2.995  25.690  0.00  0.00    +0.149 HD
ATOM      4  C   UNK A   1       7.133  -4.612  26.618  0.00  0.00    +0.214 C 
ATOM      5  O   UNK A   1       8.135  -5.094  27.131  0.00  0.00    -0.276 OA
BRANCH   4   6
ATOM      6  C   UNK A   1       5.802  -5.337  26.569  0.00  0.00    +0.098 C 
BRANCH   6   7
ATOM      7  C   UNK A   1       4.829  -4.598  25.639  0.00  0.00    +0.039 C 
BRANCH   7   8
ATOM      8  C   UNK A   1       4.578  -5.276  24.291  0.00  0.00    +0.161 C 
BRANCH   8   9
ATOM      9  N   UNK A   1       4.802  -6.747  24.365  0.00  0.00    -0.318 NA
ATOM     10  H   UNK A   1       4.770  -7.013  25.355  0.00  0.00    +0.119 HD
ATOM     11  H   UNK A   1       3.972  -7.207  23.970  0.00  0.00    +0.119 HD
ENDBRANCH   8   9
BRANCH   8  12
ATOM     12  C   UNK A   1       5.513  -4.687  23.224  0.00  0.00    +0.322 C 
ATOM     13  O   UNK A   1       6.721  -4.841  23.180  0.00  0.00    -0.249 OA
BRANCH  12  14
ATOM     14  O   UNK A   1       4.803  -4.025  22.271  0.00  0.00    -0.480 OA
ATOM     15  H   UNK A   1       3.963  -3.736  22.707  0.00  0.00    +0.295 HD
ENDBRANCH  12  14
ENDBRANCH   8  12
ENDBRANCH   7   8
ENDBRANCH   6   7
ENDBRANCH   4   6
ENDBRANCH   1   2
BRANCH   1  16
ATOM     16  C   UNK A   1       8.889  -2.548  24.496  0.00  0.00    +0.235 C 
ATOM     17  N   GLY A   2       8.133  -1.874  23.550  0.00  0.00    -0.303 N 
ATOM     18  H   GLY A   2       7.227  -1.523  23.835  0.00  0.00    +0.149 HD
ATOM     19  O   UNK A   1       9.856  -3.230  24.166  0.00  0.00    -0.274 OA
BRANCH  17  20
ATOM     20  CA  GLY A   2       8.376  -2.040  22.114  0.00  0.00    +0.224 C 
BRANCH  20  21
ATOM     21  C   GLY A   2       9.443  -1.117  21.538  0.00  0.00    +0.322 C 
ATOM     22  OXT GLY A   2       9.208   0.000  21.087  0.00  0.00    -0.249 OA
BRANCH  21  23
ATOM     23  O   GLY A   2      10.701  -1.619  21.603  0.00  0.00    -0.480 OA
ATOM     24  H   GLY A   2      10.691  -2.524  21.977  0.00  0.00    +0.295 HD
ENDBRANCH  21  23
ENDBRANCH  20  21
ENDBRANCH  17  20
ENDBRANCH   1  16
BRANCH   1  25
ATOM     25  C   UNK A   1       8.183  -1.061  26.420  0.00  0.00    +0.109 C 
BRANCH  25  26
ATOM     26  S   UNK A   1       9.652  -0.016  26.045  0.00  0.00    -0.084 S 
BRANCH  26  31
ATOM     27  N   UNK A   1       5.908   1.565  23.155  0.00  0.00    -0.314 N 
ATOM     28  H   UNK A   1       5.421   0.988  23.833  0.00  0.00    +0.149 HD
ATOM     29  C   UNK A   1       7.194   1.795  23.635  0.00  0.00    +0.220 A 
ATOM     30  N   UNK A   1       7.664   0.933  24.528  0.00  0.00    -0.189 NA
ATOM     31  C   UNK A   1       8.908   1.179  24.938  0.00  0.00    +0.194 A 
ATOM     32  N   UNK A   1       9.645   2.216  24.569  0.00  0.00    -0.189 NA
ATOM     33  C   UNK A   1       9.105   2.996  23.654  0.00  0.00    +0.221 A 
ATOM     34  N   UNK A   1       9.833   4.018  23.085  0.00  0.00    -0.311 N 
ATOM     35  H   UNK A   1       9.228   4.580  22.500  0.00  0.00    +0.149 HD
ATOM     36  N   UNK A   1       7.883   2.832  23.171  0.00  0.00    -0.181 NA
BRANCH  34  37
ATOM     37  C   UNK A   1      10.831   4.716  23.874  0.00  0.00    +0.067 C 
ATOM     38  C   UNK A   1      10.352   6.133  24.185  0.00  0.00    +0.027 C 
ATOM     39  C   UNK A   1      12.124   4.761  23.061  0.00  0.00    +0.027 C 
ENDBRANCH  34  37
BRANCH  27  41
ATOM     40  C   UNK A   1       4.226   3.238  23.734  0.00  0.00    +0.024 C 
ATOM     41  C   UNK A   1       5.202   2.745  22.677  0.00  0.00    +0.101 C 
ENDBRANCH  27  41
ENDBRANCH  26  31
ENDBRANCH  25  26
ENDBRANCH   1  25
TORSDOF 16
ENDMDL
