MODEL 1
REMARK VINA RESULT:      -3.3      0.000      0.000
REMARK  Name = 
REMARK  3 active torsions:
REMARK  status: ('A' for Active; 'I' for Inactive)
REMARK    1  A    between atoms: N_1  and  CA_5
REMARK    2  A    between atoms: CA_5  and  C_7
REMARK    3  A    between atoms: CA_5  and  C_9
REMARK                            x       y       z     vdW  Elec       q    Type
REMARK                         _______ _______ _______ _____ _____    ______ ____
ROOT
ATOM      1  CA  UNL     1       8.658  -5.424  25.504  0.00  0.00    +0.131 C 
ENDROOT
BRANCH   1   2
ATOM      2  N   UNL     1      10.144  -5.442  25.761  0.00  0.00    +0.228 N 
ATOM      3  H1  UNL     1      10.361  -6.113  26.500  0.00  0.00    +0.200 HD
ATOM      4  H2  UNL     1      10.573  -4.529  25.880  0.00  0.00    +0.200 HD
ATOM      5  H3  UNL     1      10.488  -5.916  24.893  0.00  0.00    +0.200 HD
ENDBRANCH   1   2
BRANCH   1   6
ATOM      6  C   UNL     1       7.959  -4.786  26.760  0.00  0.00    +0.094 C 
ATOM      7  OXT UNL     1       7.624  -5.717  27.571  0.00  0.00    -0.544 OA
ATOM      8  O   UNL     1       7.802  -3.547  26.788  0.00  0.00    -0.544 OA
ENDBRANCH   1   6
BRANCH   1   9
ATOM      9  C   UNL     1       8.316  -4.735  24.214  0.00  0.00    +0.025 C 
ATOM     10  C   UNL     1       7.586  -5.227  23.200  0.00  0.00    +0.010 C 
ENDBRANCH   1   9
TORSDOF 3
ENDMDL
MODEL 2
REMARK VINA RESULT:      -3.2      6.192      6.739
REMARK  Name = 
REMARK  3 active torsions:
REMARK  status: ('A' for Active; 'I' for Inactive)
REMARK    1  A    between atoms: N_1  and  CA_5
REMARK    2  A    between atoms: CA_5  and  C_7
REMARK    3  A    between atoms: CA_5  and  C_9
REMARK                            x       y       z     vdW  Elec       q    Type
REMARK                         _______ _______ _______ _____ _____    ______ ____
ROOT
ATOM      1  CA  UNL     1      10.097   0.928  22.209  0.00  0.00    +0.131 C 
ENDROOT
BRANCH   1   2
ATOM      2  N   UNL     1       9.731   2.256  21.594  0.00  0.00    +0.228 N 
ATOM      3  H1  UNL     1       9.671   2.972  22.320  0.00  0.00    +0.200 HD
ATOM      4  H2  UNL     1       8.941   2.233  20.956  0.00  0.00    +0.200 HD
ATOM      5  H3  UNL     1      10.620   2.491  21.092  0.00  0.00    +0.200 HD
ENDBRANCH   1   2
BRANCH   1   6
ATOM      6  C   UNL     1       9.805   1.015  23.752  0.00  0.00    +0.094 C 
ATOM      7  OXT UNL     1      10.899   0.856  24.395  0.00  0.00    -0.544 OA
ATOM      8  O   UNL     1       8.624   1.182  24.125  0.00  0.00    -0.544 OA
ENDBRANCH   1   6
BRANCH   1   9
ATOM      9  C   UNL     1       9.404  -0.219  21.531  0.00  0.00    +0.025 C 
ATOM     10  C   UNL     1       9.409  -1.507  21.908  0.00  0.00    +0.010 C 
ENDBRANCH   1   9
TORSDOF 3
ENDMDL
MODEL 3
REMARK VINA RESULT:      -3.2      6.505      7.215
REMARK  Name = 
REMARK  3 active torsions:
REMARK  status: ('A' for Active; 'I' for Inactive)
REMARK    1  A    between atoms: N_1  and  CA_5
REMARK    2  A    between atoms: CA_5  and  C_7
REMARK    3  A    between atoms: CA_5  and  C_9
REMARK                            x       y       z     vdW  Elec       q    Type
REMARK                         _______ _______ _______ _____ _____    ______ ____
ROOT
ATOM      1  CA  UNL     1       9.588   1.556  22.860  0.00  0.00    +0.131 C 
ENDROOT
BRANCH   1   2
ATOM      2  N   UNL     1      10.173   2.321  21.699  0.00  0.00    +0.228 N 
ATOM      3  H1  UNL     1       9.686   2.072  20.836  0.00  0.00    +0.200 HD
ATOM      4  H2  UNL     1      11.187   2.296  21.633  0.00  0.00    +0.200 HD
ATOM      5  H3  UNL     1       9.827   3.287  21.906  0.00  0.00    +0.200 HD
ENDBRANCH   1   2
BRANCH   1   6
ATOM      6  C   UNL     1       8.946   0.236  22.293  0.00  0.00    +0.094 C 
ATOM      7  OXT UNL     1       9.742  -0.282  21.436  0.00  0.00    -0.544 OA
ATOM      8  O   UNL     1       7.811  -0.094  22.698  0.00  0.00    -0.544 OA
ENDBRANCH   1   6
BRANCH   1   9
ATOM      9  C   UNL     1      10.597   1.314  23.945  0.00  0.00    +0.025 C 
ATOM     10  C   UNL     1      10.580   0.339  24.868  0.00  0.00    +0.010 C 
ENDBRANCH   1   9
TORSDOF 3
ENDMDL
MODEL 4
REMARK VINA RESULT:      -3.2      4.961      5.665
REMARK  Name = 
REMARK  3 active torsions:
REMARK  status: ('A' for Active; 'I' for Inactive)
REMARK    1  A    between atoms: N_1  and  CA_5
REMARK    2  A    between atoms: CA_5  and  C_7
REMARK    3  A    between atoms: CA_5  and  C_9
REMARK                            x       y       z     vdW  Elec       q    Type
REMARK                         _______ _______ _______ _____ _____    ______ ____
ROOT
ATOM      1  CA  UNL     1       9.255  -0.947  24.012  0.00  0.00    +0.131 C 
ENDROOT
BRANCH   1   2
ATOM      2  N   UNL     1       8.594  -0.197  22.881  0.00  0.00    +0.228 N 
ATOM      3  H1  UNL     1       8.824  -0.638  21.989  0.00  0.00    +0.200 HD
ATOM      4  H2  UNL     1       8.722   0.811  22.899  0.00  0.00    +0.200 HD
ATOM      5  H3  UNL     1       7.591  -0.458  23.032  0.00  0.00    +0.200 HD
ENDBRANCH   1   2
BRANCH   1   6
ATOM      6  C   UNL     1      10.054  -2.149  23.389  0.00  0.00    +0.094 C 
ATOM      7  OXT UNL     1      10.518  -1.799  22.250  0.00  0.00    -0.544 OA
ATOM      8  O   UNL     1      10.102  -3.224  24.025  0.00  0.00    -0.544 OA
ENDBRANCH   1   6
BRANCH   1   9
ATOM      9  C   UNL     1      10.096  -0.048  24.872  0.00  0.00    +0.025 C 
ATOM     10  C   UNL     1      10.952   0.900  24.460  0.00  0.00    +0.010 C 
ENDBRANCH   1   9
TORSDOF 3
ENDMDL
MODEL 5
REMARK VINA RESULT:      -3.2     11.083     11.580
REMARK  Name = 
REMARK  3 active torsions:
REMARK  status: ('A' for Active; 'I' for Inactive)
REMARK    1  A    between atoms: N_1  and  CA_5
REMARK    2  A    between atoms: CA_5  and  C_7
REMARK    3  A    between atoms: CA_5  and  C_9
REMARK                            x       y       z     vdW  Elec       q    Type
REMARK                         _______ _______ _______ _____ _____    ______ ____
ROOT
ATOM      1  CA  UNL     1      11.854   6.149  23.807  0.00  0.00    +0.131 C 
ENDROOT
BRANCH   1   2
ATOM      2  N   UNL     1      12.578   6.728  24.997  0.00  0.00    +0.228 N 
ATOM      3  H1  UNL     1      12.027   7.486  25.406  0.00  0.00    +0.200 HD
ATOM      4  H2  UNL     1      13.555   6.955  24.840  0.00  0.00    +0.200 HD
ATOM      5  H3  UNL     1      12.472   5.949  25.689  0.00  0.00    +0.200 HD
ENDBRANCH   1   2
BRANCH   1   6
ATOM      6  C   UNL     1      12.651   4.881  23.328  0.00  0.00    +0.094 C 
ATOM      7  OXT UNL     1      11.864   3.874  23.309  0.00  0.00    -0.544 OA
ATOM      8  O   UNL     1      13.870   5.005  23.080  0.00  0.00    -0.544 OA
ENDBRANCH   1   6
BRANCH   1   9
ATOM      9  C   UNL     1      10.408   5.871  24.105  0.00  0.00    +0.025 C 
ATOM     10  C   UNL     1       9.339   6.515  23.610  0.00  0.00    +0.010 C 
ENDBRANCH   1   9
TORSDOF 3
ENDMDL
MODEL 6
REMARK VINA RESULT:      -3.2      5.539      6.108
REMARK  Name = 
REMARK  3 active torsions:
REMARK  status: ('A' for Active; 'I' for Inactive)
REMARK    1  A    between atoms: N_1  and  CA_5
REMARK    2  A    between atoms: CA_5  and  C_7
REMARK    3  A    between atoms: CA_5  and  C_9
REMARK                            x       y       z     vdW  Elec       q    Type
REMARK                         _______ _______ _______ _____ _____    ______ ____
ROOT
ATOM      1  CA  UNL     1      10.655   0.243  23.826  0.00  0.00    +0.131 C 
ENDROOT
BRANCH   1   2
ATOM      2  N   UNL     1      10.396   0.357  25.308  0.00  0.00    +0.228 N 
ATOM      3  H1  UNL     1       9.961  -0.501  25.652  0.00  0.00    +0.200 HD
ATOM      4  H2  UNL     1       9.934   1.212  25.601  0.00  0.00    +0.200 HD
ATOM      5  H3  UNL     1      11.373   0.302  25.682  0.00  0.00    +0.200 HD
ENDBRANCH   1   2
BRANCH   1   6
ATOM      6  C   UNL     1      10.018  -1.105  23.327  0.00  0.00    +0.094 C 
ATOM      7  OXT UNL     1       8.900  -1.286  23.922  0.00  0.00    -0.544 OA
ATOM      8  O   UNL     1      10.654  -1.793  22.500  0.00  0.00    -0.544 OA
ENDBRANCH   1   6
BRANCH   1   9
ATOM      9  C   UNL     1      10.171   1.450  23.073  0.00  0.00    +0.025 C 
ATOM     10  C   UNL     1       9.714   1.490  21.812  0.00  0.00    +0.010 C 
ENDBRANCH   1   9
TORSDOF 3
ENDMDL
MODEL 7
REMARK VINA RESULT:      -3.1      1.483      1.885
REMARK  Name = 
REMARK  3 active torsions:
REMARK  status: ('A' for Active; 'I' for Inactive)
REMARK    1  A    between atoms: N_1  and  CA_5
REMARK    2  A    between atoms: CA_5  and  C_7
REMARK    3  A    between atoms: CA_5  and  C_9
REMARK                            x       y       z     vdW  Elec       q    Type
REMARK                         _______ _______ _______ _____ _____    ______ ____
ROOT
ATOM      1  CA  UNL     1       8.853  -4.957  25.180  0.00  0.00    +0.131 C 
ENDROOT
BRANCH   1   2
ATOM      2  N   UNL     1      10.112  -5.569  25.740  0.00  0.00    +0.228 N 
ATOM      3  H1  UNL     1      10.790  -5.720  24.991  0.00  0.00    +0.200 HD
ATOM      4  H2  UNL     1       9.969  -6.371  26.348  0.00  0.00    +0.200 HD
ATOM      5  H3  UNL     1      10.508  -4.756  26.268  0.00  0.00    +0.200 HD
ENDBRANCH   1   2
BRANCH   1   6
ATOM      6  C   UNL     1       7.656  -5.383  26.106  0.00  0.00    +0.094 C 
ATOM      7  OXT UNL     1       6.587  -5.447  25.407  0.00  0.00    -0.544 OA
ATOM      8  O   UNL     1       7.879  -5.558  27.323  0.00  0.00    -0.544 OA
ENDBRANCH   1   6
BRANCH   1   9
ATOM      9  C   UNL     1       8.976  -3.471  25.005  0.00  0.00    +0.025 C 
ATOM     10  C   UNL     1       9.656  -2.820  24.047  0.00  0.00    +0.010 C 
ENDBRANCH   1   9
TORSDOF 3
ENDMDL
MODEL 8
REMARK VINA RESULT:      -3.1      2.131      2.868
REMARK  Name = 
REMARK  3 active torsions:
REMARK  status: ('A' for Active; 'I' for Inactive)
REMARK    1  A    between atoms: N_1  and  CA_5
REMARK    2  A    between atoms: CA_5  and  C_7
REMARK    3  A    between atoms: CA_5  and  C_9
REMARK                            x       y       z     vdW  Elec       q    Type
REMARK                         _______ _______ _______ _____ _____    ______ ____
ROOT
ATOM      1  CA  UNL     1       9.115  -4.593  25.900  0.00  0.00    +0.131 C 
ENDROOT
BRANCH   1   2
ATOM      2  N   UNL     1      10.261  -5.542  25.651  0.00  0.00    +0.228 N 
ATOM      3  H1  UNL     1      11.031  -5.048  25.198  0.00  0.00    +0.200 HD
ATOM      4  H2  UNL     1      10.005  -6.421  25.209  0.00  0.00    +0.200 HD
ATOM      5  H3  UNL     1      10.607  -5.692  26.628  0.00  0.00    +0.200 HD
ENDBRANCH   1   2
BRANCH   1   6
ATOM      6  C   UNL     1       9.053  -3.586  24.693  0.00  0.00    +0.094 C 
ATOM      7  OXT UNL     1       7.846  -3.196  24.534  0.00  0.00    -0.544 OA
ATOM      8  O   UNL     1      10.108  -3.340  24.070  0.00  0.00    -0.544 OA
ENDBRANCH   1   6
BRANCH   1   9
ATOM      9  C   UNL     1       7.823  -5.317  26.143  0.00  0.00    +0.025 C 
ATOM     10  C   UNL     1       7.113  -5.351  27.281  0.00  0.00    +0.010 C 
ENDBRANCH   1   9
TORSDOF 3
ENDMDL
MODEL 9
REMARK VINA RESULT:      -3.1      5.729      6.283
REMARK  Name = 
REMARK  3 active torsions:
REMARK  status: ('A' for Active; 'I' for Inactive)
REMARK    1  A    between atoms: N_1  and  CA_5
REMARK    2  A    between atoms: CA_5  and  C_7
REMARK    3  A    between atoms: CA_5  and  C_9
REMARK                            x       y       z     vdW  Elec       q    Type
REMARK                         _______ _______ _______ _____ _____    ______ ____
ROOT
ATOM      1  CA  UNL     1       9.423  -0.218  22.332  0.00  0.00    +0.131 C 
ENDROOT
BRANCH   1   2
ATOM      2  N   UNL     1       9.900  -1.229  21.319  0.00  0.00    +0.228 N 
ATOM      3  H1  UNL     1      10.618  -0.814  20.724  0.00  0.00    +0.200 HD
ATOM      4  H2  UNL     1       9.164  -1.716  20.817  0.00  0.00    +0.200 HD
ATOM      5  H3  UNL     1      10.440  -1.883  21.934  0.00  0.00    +0.200 HD
ENDBRANCH   1   2
BRANCH   1   6
ATOM      6  C   UNL     1      10.251  -0.431  23.652  0.00  0.00    +0.094 C 
ATOM      7  OXT UNL     1      10.008  -1.597  24.116  0.00  0.00    -0.544 OA
ATOM      8  O   UNL     1      10.962   0.510  24.066  0.00  0.00    -0.544 OA
ENDBRANCH   1   6
BRANCH   1   9
ATOM      9  C   UNL     1       9.488   1.186  21.803  0.00  0.00    +0.025 C 
ATOM     10  C   UNL     1       8.505   2.100  21.804  0.00  0.00    +0.010 C 
ENDBRANCH   1   9
TORSDOF 3
ENDMDL
