MODEL 1
REMARK VINA RESULT:      -5.8      0.000      0.000
REMARK  Name = 
REMARK  7 active torsions:
REMARK  status: ('A' for Active; 'I' for Inactive)
REMARK    1  A    between atoms: N_1  and  CA_2
REMARK    2  A    between atoms: CA_2  and  C_4
REMARK    3  A    between atoms: CA_2  and  C_14
REMARK    4  A    between atoms: C_4  and  C_5
REMARK    5  A    between atoms: C_5  and  C_7
REMARK    6  A    between atoms: C_12  and  N_13
REMARK    7  A    between atoms: C_14  and  O_15
REMARK                            x       y       z     vdW  Elec       q    Type
REMARK                         _______ _______ _______ _____ _____    ______ ____
ROOT
ATOM      1  C   UNL     1       9.834  -1.886  23.810  0.00  0.00    +0.167 C 
ATOM      2  O   UNL     1      10.553  -2.722  23.252  0.00  0.00    -0.292 OA
ENDROOT
BRANCH   1   3
ATOM      3  C   UNL     1      10.009  -0.435  23.482  0.00  0.00    +0.038 A 
ATOM      4  C   UNL     1       9.744   0.010  22.164  0.00  0.00    +0.035 A 
ATOM      5  C   UNL     1       9.929   1.366  21.857  0.00  0.00    +0.023 A 
ATOM      6  C   UNL     1      10.287   2.283  22.845  0.00  0.00    +0.002 A 
ATOM      7  C   UNL     1      10.499   1.849  24.148  0.00  0.00    +0.001 A 
ATOM      8  C   UNL     1      10.360   0.498  24.471  0.00  0.00    +0.013 A 
BRANCH   4   9
ATOM      9  N   UNL     1       9.528  -0.885  21.094  0.00  0.00    -0.357 N 
ATOM     10  H   UNL     1      10.248  -1.617  21.080  0.00  0.00    +0.142 HD
ATOM     11  H   UNL     1       8.596  -1.289  21.086  0.00  0.00    +0.142 HD
ENDBRANCH   4   9
ENDBRANCH   1   3
BRANCH   1  12
ATOM     12  C   UNL     1       8.840  -2.334  24.869  0.00  0.00    +0.109 C 
BRANCH  12  13
ATOM     13  CA  UNL     1       8.481  -3.818  24.712  0.00  0.00    +0.168 C 
BRANCH  13  14
ATOM     14  N   UNL     1       7.022  -4.108  24.868  0.00  0.00    -0.318 NA
ATOM     15  H1  UNL     1       6.651  -3.409  25.538  0.00  0.00    +0.119 HD
ATOM     16  H2  UNL     1       6.555  -3.856  23.992  0.00  0.00    +0.119 HD
ENDBRANCH  13  14
BRANCH  13  17
ATOM     17  C   UNL     1       9.274  -4.654  25.730  0.00  0.00    +0.322 C 
ATOM     18  OXT UNL     1       8.979  -4.765  26.911  0.00  0.00    -0.249 OA
BRANCH  17  19
ATOM     19  O   UNL     1      10.346  -5.256  25.161  0.00  0.00    -0.480 OA
ATOM     20  H   UNL     1      11.073  -5.198  25.830  0.00  0.00    +0.295 HD
ENDBRANCH  17  19
ENDBRANCH  13  17
ENDBRANCH  12  13
ENDBRANCH   1  12
TORSDOF 7
ENDMDL
MODEL 2
REMARK VINA RESULT:      -5.5      1.727      2.408
REMARK  Name = 
REMARK  7 active torsions:
REMARK  status: ('A' for Active; 'I' for Inactive)
REMARK    1  A    between atoms: N_1  and  CA_2
REMARK    2  A    between atoms: CA_2  and  C_4
REMARK    3  A    between atoms: CA_2  and  C_14
REMARK    4  A    between atoms: C_4  and  C_5
REMARK    5  A    between atoms: C_5  and  C_7
REMARK    6  A    between atoms: C_12  and  N_13
REMARK    7  A    between atoms: C_14  and  O_15
REMARK                            x       y       z     vdW  Elec       q    Type
REMARK                         _______ _______ _______ _____ _____    ______ ____
ROOT
ATOM      1  C   UNL     1       9.780  -1.897  23.841  0.00  0.00    +0.167 C 
ATOM      2  O   UNL     1      10.539  -2.742  23.354  0.00  0.00    -0.292 OA
ENDROOT
BRANCH   1   3
ATOM      3  C   UNL     1       9.974  -0.453  23.493  0.00  0.00    +0.038 A 
ATOM      4  C   UNL     1       9.717  -0.022  22.169  0.00  0.00    +0.035 A 
ATOM      5  C   UNL     1       9.920   1.327  21.844  0.00  0.00    +0.023 A 
ATOM      6  C   UNL     1      10.287   2.252  22.820  0.00  0.00    +0.002 A 
ATOM      7  C   UNL     1      10.492   1.834  24.130  0.00  0.00    +0.001 A 
ATOM      8  C   UNL     1      10.335   0.489  24.471  0.00  0.00    +0.013 A 
BRANCH   4   9
ATOM      9  N   UNL     1       9.491  -0.930  21.111  0.00  0.00    -0.357 N 
ATOM     10  H   UNL     1       8.605  -1.430  21.243  0.00  0.00    +0.142 HD
ATOM     11  H   UNL     1       9.535  -0.499  20.193  0.00  0.00    +0.142 HD
ENDBRANCH   4   9
ENDBRANCH   1   3
BRANCH   1  12
ATOM     12  C   UNL     1       8.715  -2.326  24.838  0.00  0.00    +0.109 C 
BRANCH  12  13
ATOM     13  CA  UNL     1       7.706  -3.291  24.202  0.00  0.00    +0.168 C 
BRANCH  13  14
ATOM     14  N   UNL     1       8.312  -4.575  23.730  0.00  0.00    -0.318 NA
ATOM     15  H1  UNL     1       9.170  -4.323  23.206  0.00  0.00    +0.119 HD
ATOM     16  H2  UNL     1       8.680  -5.070  24.548  0.00  0.00    +0.119 HD
ENDBRANCH  13  14
BRANCH  13  17
ATOM     17  C   UNL     1       7.002  -2.602  23.022  0.00  0.00    +0.322 C 
ATOM     18  OXT UNL     1       7.121  -2.939  21.854  0.00  0.00    -0.249 OA
BRANCH  17  19
ATOM     19  O   UNL     1       6.227  -1.568  23.433  0.00  0.00    -0.480 OA
ATOM     20  H   UNL     1       6.430  -1.446  24.394  0.00  0.00    +0.295 HD
ENDBRANCH  17  19
ENDBRANCH  13  17
ENDBRANCH  12  13
ENDBRANCH   1  12
TORSDOF 7
ENDMDL
MODEL 3
REMARK VINA RESULT:      -5.5      1.903      2.404
REMARK  Name = 
REMARK  7 active torsions:
REMARK  status: ('A' for Active; 'I' for Inactive)
REMARK    1  A    between atoms: N_1  and  CA_2
REMARK    2  A    between atoms: CA_2  and  C_4
REMARK    3  A    between atoms: CA_2  and  C_14
REMARK    4  A    between atoms: C_4  and  C_5
REMARK    5  A    between atoms: C_5  and  C_7
REMARK    6  A    between atoms: C_12  and  N_13
REMARK    7  A    between atoms: C_14  and  O_15
REMARK                            x       y       z     vdW  Elec       q    Type
REMARK                         _______ _______ _______ _____ _____    ______ ____
ROOT
ATOM      1  C   UNL     1       9.465  -2.007  23.092  0.00  0.00    +0.167 C 
ATOM      2  O   UNL     1      10.332  -2.733  23.591  0.00  0.00    -0.292 OA
ENDROOT
BRANCH   1   3
ATOM      3  C   UNL     1       9.671  -0.524  23.082  0.00  0.00    +0.038 A 
ATOM      4  C   UNL     1       9.851   0.156  24.311  0.00  0.00    +0.035 A 
ATOM      5  C   UNL     1      10.022   1.548  24.296  0.00  0.00    +0.023 A 
ATOM      6  C   UNL     1      10.101   2.248  23.093  0.00  0.00    +0.002 A 
ATOM      7  C   UNL     1       9.973   1.570  21.886  0.00  0.00    +0.001 A 
ATOM      8  C   UNL     1       9.761   0.190  21.875  0.00  0.00    +0.013 A 
BRANCH   4   9
ATOM      9  N   UNL     1       9.632  -0.469  25.558  0.00  0.00    -0.357 N 
ATOM     10  H   UNL     1       8.806  -1.077  25.521  0.00  0.00    +0.142 HD
ATOM     11  H   UNL     1      10.442  -0.973  25.905  0.00  0.00    +0.142 HD
ENDBRANCH   4   9
ENDBRANCH   1   3
BRANCH   1  12
ATOM     12  C   UNL     1       8.178  -2.622  22.566  0.00  0.00    +0.109 C 
BRANCH  12  13
ATOM     13  CA  UNL     1       7.444  -3.411  23.659  0.00  0.00    +0.168 C 
BRANCH  13  14
ATOM     14  N   UNL     1       7.801  -2.992  25.050  0.00  0.00    -0.318 NA
ATOM     15  H1  UNL     1       8.166  -2.024  24.984  0.00  0.00    +0.119 HD
ATOM     16  H2  UNL     1       6.931  -2.874  25.578  0.00  0.00    +0.119 HD
ENDBRANCH  13  14
BRANCH  13  17
ATOM     17  C   UNL     1       7.728  -4.912  23.495  0.00  0.00    +0.322 C 
ATOM     18  OXT UNL     1       7.052  -5.674  22.819  0.00  0.00    -0.249 OA
BRANCH  17  19
ATOM     19  O   UNL     1       8.825  -5.297  24.193  0.00  0.00    -0.480 OA
ATOM     20  H   UNL     1       9.105  -6.160  23.798  0.00  0.00    +0.295 HD
ENDBRANCH  17  19
ENDBRANCH  13  17
ENDBRANCH  12  13
ENDBRANCH   1  12
TORSDOF 7
ENDMDL
MODEL 4
REMARK VINA RESULT:      -5.5      3.588      4.778
REMARK  Name = 
REMARK  7 active torsions:
REMARK  status: ('A' for Active; 'I' for Inactive)
REMARK    1  A    between atoms: N_1  and  CA_2
REMARK    2  A    between atoms: CA_2  and  C_4
REMARK    3  A    between atoms: CA_2  and  C_14
REMARK    4  A    between atoms: C_4  and  C_5
REMARK    5  A    between atoms: C_5  and  C_7
REMARK    6  A    between atoms: C_12  and  N_13
REMARK    7  A    between atoms: C_14  and  O_15
REMARK                            x       y       z     vdW  Elec       q    Type
REMARK                         _______ _______ _______ _____ _____    ______ ____
ROOT
ATOM      1  C   UNL     1       8.722  -3.626  24.258  0.00  0.00    +0.167 C 
ATOM      2  O   UNL     1       9.838  -3.215  23.920  0.00  0.00    -0.292 OA
ENDROOT
BRANCH   1   3
ATOM      3  C   UNL     1       7.793  -4.164  23.213  0.00  0.00    +0.038 A 
ATOM      4  C   UNL     1       7.020  -3.259  22.446  0.00  0.00    +0.035 A 
ATOM      5  C   UNL     1       6.137  -3.769  21.485  0.00  0.00    +0.023 A 
ATOM      6  C   UNL     1       6.076  -5.137  21.221  0.00  0.00    +0.002 A 
ATOM      7  C   UNL     1       6.872  -6.018  21.943  0.00  0.00    +0.001 A 
ATOM      8  C   UNL     1       7.731  -5.539  22.934  0.00  0.00    +0.013 A 
BRANCH   4   9
ATOM      9  N   UNL     1       6.927  -1.886  22.767  0.00  0.00    -0.357 N 
ATOM     10  H   UNL     1       6.120  -1.709  23.378  0.00  0.00    +0.142 HD
ATOM     11  H   UNL     1       7.779  -1.506  23.165  0.00  0.00    +0.142 HD
ENDBRANCH   4   9
ENDBRANCH   1   3
BRANCH   1  12
ATOM     12  C   UNL     1       8.285  -3.511  25.710  0.00  0.00    +0.109 C 
BRANCH  12  13
ATOM     13  CA  UNL     1       8.733  -4.729  26.530  0.00  0.00    +0.168 C 
BRANCH  13  14
ATOM     14  N   UNL     1       9.788  -5.553  25.862  0.00  0.00    -0.318 NA
ATOM     15  H1  UNL     1      10.235  -4.943  25.152  0.00  0.00    +0.119 HD
ATOM     16  H2  UNL     1      10.541  -5.710  26.537  0.00  0.00    +0.119 HD
ENDBRANCH  13  14
BRANCH  13  17
ATOM     17  C   UNL     1       7.519  -5.619  26.842  0.00  0.00    +0.322 C 
ATOM     18  OXT UNL     1       6.620  -5.863  26.052  0.00  0.00    -0.249 OA
BRANCH  17  19
ATOM     19  O   UNL     1       7.563  -6.104  28.107  0.00  0.00    -0.480 OA
ATOM     20  H   UNL     1       6.693  -6.553  28.252  0.00  0.00    +0.295 HD
ENDBRANCH  17  19
ENDBRANCH  13  17
ENDBRANCH  12  13
ENDBRANCH   1  12
TORSDOF 7
ENDMDL
MODEL 5
REMARK VINA RESULT:      -5.5      1.803      2.311
REMARK  Name = 
REMARK  7 active torsions:
REMARK  status: ('A' for Active; 'I' for Inactive)
REMARK    1  A    between atoms: N_1  and  CA_2
REMARK    2  A    between atoms: CA_2  and  C_4
REMARK    3  A    between atoms: CA_2  and  C_14
REMARK    4  A    between atoms: C_4  and  C_5
REMARK    5  A    between atoms: C_5  and  C_7
REMARK    6  A    between atoms: C_12  and  N_13
REMARK    7  A    between atoms: C_14  and  O_15
REMARK                            x       y       z     vdW  Elec       q    Type
REMARK                         _______ _______ _______ _____ _____    ______ ____
ROOT
ATOM      1  C   UNL     1       7.921  -2.377  25.419  0.00  0.00    +0.167 C 
ATOM      2  O   UNL     1       6.739  -2.409  25.059  0.00  0.00    -0.292 OA
ENDROOT
BRANCH   1   3
ATOM      3  C   UNL     1       8.861  -1.418  24.756  0.00  0.00    +0.038 A 
ATOM      4  C   UNL     1       9.046  -1.492  23.354  0.00  0.00    +0.035 A 
ATOM      5  C   UNL     1       9.943  -0.606  22.742  0.00  0.00    +0.023 A 
ATOM      6  C   UNL     1      10.583   0.390  23.479  0.00  0.00    +0.002 A 
ATOM      7  C   UNL     1      10.362   0.490  24.847  0.00  0.00    +0.001 A 
ATOM      8  C   UNL     1       9.504  -0.407  25.488  0.00  0.00    +0.013 A 
BRANCH   4   9
ATOM      9  N   UNL     1       8.547  -2.565  22.582  0.00  0.00    -0.357 N 
ATOM     10  H   UNL     1       9.107  -2.692  21.730  0.00  0.00    +0.142 HD
ATOM     11  H   UNL     1       8.469  -3.433  23.101  0.00  0.00    +0.142 HD
ENDBRANCH   4   9
ENDBRANCH   1   3
BRANCH   1  12
ATOM     12  C   UNL     1       8.416  -3.357  26.472  0.00  0.00    +0.109 C 
BRANCH  12  13
ATOM     13  CA  UNL     1       8.060  -4.804  26.104  0.00  0.00    +0.168 C 
BRANCH  13  14
ATOM     14  N   UNL     1       8.139  -5.757  27.255  0.00  0.00    -0.318 NA
ATOM     15  H1  UNL     1       8.028  -5.191  28.116  0.00  0.00    +0.119 HD
ATOM     16  H2  UNL     1       7.292  -6.332  27.247  0.00  0.00    +0.119 HD
ENDBRANCH  13  14
BRANCH  13  17
ATOM     17  C   UNL     1       8.984  -5.295  24.978  0.00  0.00    +0.322 C 
ATOM     18  OXT UNL     1       8.645  -5.417  23.810  0.00  0.00    -0.249 OA
BRANCH  17  19
ATOM     19  O   UNL     1      10.228  -5.579  25.435  0.00  0.00    -0.480 OA
ATOM     20  H   UNL     1      10.758  -5.821  24.635  0.00  0.00    +0.295 HD
ENDBRANCH  17  19
ENDBRANCH  13  17
ENDBRANCH  12  13
ENDBRANCH   1  12
TORSDOF 7
ENDMDL
MODEL 6
REMARK VINA RESULT:      -5.4      2.144      2.532
REMARK  Name = 
REMARK  7 active torsions:
REMARK  status: ('A' for Active; 'I' for Inactive)
REMARK    1  A    between atoms: N_1  and  CA_2
REMARK    2  A    between atoms: CA_2  and  C_4
REMARK    3  A    between atoms: CA_2  and  C_14
REMARK    4  A    between atoms: C_4  and  C_5
REMARK    5  A    between atoms: C_5  and  C_7
REMARK    6  A    between atoms: C_12  and  N_13
REMARK    7  A    between atoms: C_14  and  O_15
REMARK                            x       y       z     vdW  Elec       q    Type
REMARK                         _______ _______ _______ _____ _____    ______ ____
ROOT
ATOM      1  C   UNL     1       9.233  -1.927  24.506  0.00  0.00    +0.167 C 
ATOM      2  O   UNL     1       8.521  -1.796  25.507  0.00  0.00    -0.292 OA
ENDROOT
BRANCH   1   3
ATOM      3  C   UNL     1       9.453  -0.750  23.606  0.00  0.00    +0.038 A 
ATOM      4  C   UNL     1      10.122   0.391  24.113  0.00  0.00    +0.035 A 
ATOM      5  C   UNL     1      10.306   1.497  23.272  0.00  0.00    +0.023 A 
ATOM      6  C   UNL     1       9.917   1.454  21.934  0.00  0.00    +0.002 A 
ATOM      7  C   UNL     1       9.304   0.315  21.427  0.00  0.00    +0.001 A 
ATOM      8  C   UNL     1       9.073  -0.786  22.254  0.00  0.00    +0.013 A 
BRANCH   4   9
ATOM      9  N   UNL     1      10.402   0.552  25.488  0.00  0.00    -0.357 N 
ATOM     10  H   UNL     1       9.548   0.780  26.010  0.00  0.00    +0.142 HD
ATOM     11  H   UNL     1      10.881  -0.243  25.899  0.00  0.00    +0.142 HD
ENDBRANCH   4   9
ENDBRANCH   1   3
BRANCH   1  12
ATOM     12  C   UNL     1       9.812  -3.291  24.165  0.00  0.00    +0.109 C 
BRANCH  12  13
ATOM     13  CA  UNL     1       9.263  -4.382  25.094  0.00  0.00    +0.168 C 
BRANCH  13  14
ATOM     14  N   UNL     1      10.247  -5.465  25.403  0.00  0.00    -0.318 NA
ATOM     15  H1  UNL     1      10.073  -6.228  24.723  0.00  0.00    +0.119 HD
ATOM     16  H2  UNL     1      11.179  -5.130  25.140  0.00  0.00    +0.119 HD
ENDBRANCH  13  14
BRANCH  13  17
ATOM     17  C   UNL     1       8.003  -5.007  24.472  0.00  0.00    +0.322 C 
ATOM     18  OXT UNL     1       6.904  -5.022  25.006  0.00  0.00    -0.249 OA
BRANCH  17  19
ATOM     19  O   UNL     1       8.257  -5.545  23.254  0.00  0.00    -0.480 OA
ATOM     20  H   UNL     1       7.989  -6.495  23.320  0.00  0.00    +0.295 HD
ENDBRANCH  17  19
ENDBRANCH  13  17
ENDBRANCH  12  13
ENDBRANCH   1  12
TORSDOF 7
ENDMDL
MODEL 7
REMARK VINA RESULT:      -5.3      2.727      5.420
REMARK  Name = 
REMARK  7 active torsions:
REMARK  status: ('A' for Active; 'I' for Inactive)
REMARK    1  A    between atoms: N_1  and  CA_2
REMARK    2  A    between atoms: CA_2  and  C_4
REMARK    3  A    between atoms: CA_2  and  C_14
REMARK    4  A    between atoms: C_4  and  C_5
REMARK    5  A    between atoms: C_5  and  C_7
REMARK    6  A    between atoms: C_12  and  N_13
REMARK    7  A    between atoms: C_14  and  O_15
REMARK                            x       y       z     vdW  Elec       q    Type
REMARK                         _______ _______ _______ _____ _____    ______ ____
ROOT
ATOM      1  C   UNL     1       8.462  -2.991  24.276  0.00  0.00    +0.167 C 
ATOM      2  O   UNL     1       8.041  -2.827  25.427  0.00  0.00    -0.292 OA
ENDROOT
BRANCH   1   3
ATOM      3  C   UNL     1       7.642  -3.782  23.304  0.00  0.00    +0.038 A 
ATOM      4  C   UNL     1       6.684  -3.112  22.505  0.00  0.00    +0.035 A 
ATOM      5  C   UNL     1       5.904  -3.861  21.612  0.00  0.00    +0.023 A 
ATOM      6  C   UNL     1       6.119  -5.229  21.444  0.00  0.00    +0.002 A 
ATOM      7  C   UNL     1       7.094  -5.874  22.197  0.00  0.00    +0.001 A 
ATOM      8  C   UNL     1       7.856  -5.158  23.122  0.00  0.00    +0.013 A 
BRANCH   4   9
ATOM      9  N   UNL     1       6.318  -1.768  22.733  0.00  0.00    -0.357 N 
ATOM     10  H   UNL     1       5.300  -1.650  22.666  0.00  0.00    +0.142 HD
ATOM     11  H   UNL     1       6.672  -1.396  23.609  0.00  0.00    +0.142 HD
ENDBRANCH   4   9
ENDBRANCH   1   3
BRANCH   1  12
ATOM     12  C   UNL     1       9.831  -2.454  23.890  0.00  0.00    +0.109 C 
BRANCH  12  13
ATOM     13  CA  UNL     1       9.808  -0.930  23.715  0.00  0.00    +0.168 C 
BRANCH  13  14
ATOM     14  N   UNL     1       8.582  -0.276  24.271  0.00  0.00    -0.318 NA
ATOM     15  H1  UNL     1       8.187  -0.932  24.969  0.00  0.00    +0.119 HD
ATOM     16  H2  UNL     1       8.880   0.518  24.845  0.00  0.00    +0.119 HD
ENDBRANCH  13  14
BRANCH  13  17
ATOM     17  C   UNL     1       9.937  -0.576  22.225  0.00  0.00    +0.322 C 
ATOM     18  OXT UNL     1       9.919   0.562  21.781  0.00  0.00    -0.249 OA
BRANCH  17  19
ATOM     19  O   UNL     1      10.074  -1.684  21.455  0.00  0.00    -0.480 OA
ATOM     20  H   UNL     1      10.512  -2.358  22.032  0.00  0.00    +0.295 HD
ENDBRANCH  17  19
ENDBRANCH  13  17
ENDBRANCH  12  13
ENDBRANCH   1  12
TORSDOF 7
ENDMDL
MODEL 8
REMARK VINA RESULT:      -5.2      2.316      2.927
REMARK  Name = 
REMARK  7 active torsions:
REMARK  status: ('A' for Active; 'I' for Inactive)
REMARK    1  A    between atoms: N_1  and  CA_2
REMARK    2  A    between atoms: CA_2  and  C_4
REMARK    3  A    between atoms: CA_2  and  C_14
REMARK    4  A    between atoms: C_4  and  C_5
REMARK    5  A    between atoms: C_5  and  C_7
REMARK    6  A    between atoms: C_12  and  N_13
REMARK    7  A    between atoms: C_14  and  O_15
REMARK                            x       y       z     vdW  Elec       q    Type
REMARK                         _______ _______ _______ _____ _____    ______ ____
ROOT
ATOM      1  C   UNL     1       7.671  -3.215  23.801  0.00  0.00    +0.167 C 
ATOM      2  O   UNL     1       6.440  -3.110  23.825  0.00  0.00    -0.292 OA
ENDROOT
BRANCH   1   3
ATOM      3  C   UNL     1       8.500  -2.021  23.441  0.00  0.00    +0.038 A 
ATOM      4  C   UNL     1       8.811  -1.070  24.443  0.00  0.00    +0.035 A 
ATOM      5  C   UNL     1       9.570   0.057  24.094  0.00  0.00    +0.023 A 
ATOM      6  C   UNL     1      10.085   0.205  22.807  0.00  0.00    +0.002 A 
ATOM      7  C   UNL     1       9.817  -0.755  21.838  0.00  0.00    +0.001 A 
ATOM      8  C   UNL     1       9.030  -1.867  22.149  0.00  0.00    +0.013 A 
BRANCH   4   9
ATOM      9  N   UNL     1       8.199  -1.086  25.715  0.00  0.00    -0.357 N 
ATOM     10  H   UNL     1       7.825  -2.019  25.927  0.00  0.00    +0.142 HD
ATOM     11  H   UNL     1       8.805  -0.757  26.459  0.00  0.00    +0.142 HD
ENDBRANCH   4   9
ENDBRANCH   1   3
BRANCH   1  12
ATOM     12  C   UNL     1       8.317  -4.566  24.065  0.00  0.00    +0.109 C 
BRANCH  12  13
ATOM     13  CA  UNL     1       9.169  -4.541  25.341  0.00  0.00    +0.168 C 
BRANCH  13  14
ATOM     14  N   UNL     1      10.246  -5.580  25.370  0.00  0.00    -0.318 NA
ATOM     15  H1  UNL     1      10.246  -6.032  24.437  0.00  0.00    +0.119 HD
ATOM     16  H2  UNL     1      11.149  -5.099  25.393  0.00  0.00    +0.119 HD
ENDBRANCH  13  14
BRANCH  13  17
ATOM     17  C   UNL     1       8.266  -4.716  26.572  0.00  0.00    +0.322 C 
ATOM     18  OXT UNL     1       7.699  -3.800  27.149  0.00  0.00    -0.249 OA
BRANCH  17  19
ATOM     19  O   UNL     1       8.171  -6.015  26.947  0.00  0.00    -0.480 OA
ATOM     20  H   UNL     1       9.018  -6.439  26.660  0.00  0.00    +0.295 HD
ENDBRANCH  17  19
ENDBRANCH  13  17
ENDBRANCH  12  13
ENDBRANCH   1  12
TORSDOF 7
ENDMDL
MODEL 9
REMARK VINA RESULT:      -5.2      3.320      4.679
REMARK  Name = 
REMARK  7 active torsions:
REMARK  status: ('A' for Active; 'I' for Inactive)
REMARK    1  A    between atoms: N_1  and  CA_2
REMARK    2  A    between atoms: CA_2  and  C_4
REMARK    3  A    between atoms: CA_2  and  C_14
REMARK    4  A    between atoms: C_4  and  C_5
REMARK    5  A    between atoms: C_5  and  C_7
REMARK    6  A    between atoms: C_12  and  N_13
REMARK    7  A    between atoms: C_14  and  O_15
REMARK                            x       y       z     vdW  Elec       q    Type
REMARK                         _______ _______ _______ _____ _____    ______ ____
ROOT
ATOM      1  C   UNL     1      10.143   1.824  23.377  0.00  0.00    +0.167 C 
ATOM      2  O   UNL     1       9.963   1.108  24.369  0.00  0.00    -0.292 OA
ENDROOT
BRANCH   1   3
ATOM      3  C   UNL     1      10.331   3.298  23.564  0.00  0.00    +0.038 A 
ATOM      4  C   UNL     1       9.263   4.069  24.085  0.00  0.00    +0.035 A 
ATOM      5  C   UNL     1       9.438   5.451  24.238  0.00  0.00    +0.023 A 
ATOM      6  C   UNL     1      10.665   6.054  23.965  0.00  0.00    +0.002 A 
ATOM      7  C   UNL     1      11.726   5.286  23.500  0.00  0.00    +0.001 A 
ATOM      8  C   UNL     1      11.565   3.913  23.301  0.00  0.00    +0.013 A 
BRANCH   4   9
ATOM      9  N   UNL     1       7.959   3.547  24.236  0.00  0.00    -0.357 N 
ATOM     10  H   UNL     1       7.417   4.110  24.902  0.00  0.00    +0.142 HD
ATOM     11  H   UNL     1       7.462   3.440  23.357  0.00  0.00    +0.142 HD
ENDBRANCH   4   9
ENDBRANCH   1   3
BRANCH   1  12
ATOM     12  C   UNL     1      10.097   1.211  21.987  0.00  0.00    +0.109 C 
BRANCH  12  13
ATOM     13  CA  UNL     1       8.783   0.454  21.748  0.00  0.00    +0.168 C 
BRANCH  13  14
ATOM     14  N   UNL     1       7.666   0.885  22.646  0.00  0.00    -0.318 NA
ATOM     15  H1  UNL     1       8.005   0.766  23.619  0.00  0.00    +0.119 HD
ATOM     16  H2  UNL     1       7.565   1.900  22.560  0.00  0.00    +0.119 HD
ENDBRANCH  13  14
BRANCH  13  17
ATOM     17  C   UNL     1       9.015  -1.055  21.919  0.00  0.00    +0.322 C 
ATOM     18  OXT UNL     1       8.221  -1.821  22.444  0.00  0.00    -0.249 OA
BRANCH  17  19
ATOM     19  O   UNL     1      10.213  -1.440  21.415  0.00  0.00    -0.480 OA
ATOM     20  H   UNL     1      10.869  -0.776  21.745  0.00  0.00    +0.295 HD
ENDBRANCH  17  19
ENDBRANCH  13  17
ENDBRANCH  12  13
ENDBRANCH   1  12
TORSDOF 7
ENDMDL
